MODEL 1
REMARK VINA RESULT:      -8.9      0.000      0.000
REMARK  4 active torsions:
REMARK  status: ('A' for Active; 'I' for Inactive)
REMARK    1  A    between atoms: C3_3  and  C4_4 
REMARK       I    between atoms: C4_4  and  N1_6 
REMARK    2  A    between atoms: N1_6  and  C5_7 
REMARK    3  A    between atoms: C10_14  and  N4_15 
REMARK    4  A    between atoms: N4_15  and  C11_16 
ROOT
HETATM    1  C1  UNL     1      28.286   7.370  47.839  1.00  0.00     0.112 C 
HETATM    2  C2  UNL     1      27.552   6.200  48.377  1.00  0.00    -0.101 C 
HETATM    3  C3  UNL     1      26.948   5.259  48.825  1.00  0.00    -0.006 C 
ENDROOT
BRANCH   3   4
HETATM    4  C4  UNL     1      26.217   4.139  49.338  1.00  0.00     0.300 C 
HETATM    5  O1  UNL     1      26.872   3.081  49.490  1.00  0.00    -0.258 OA
HETATM    6  N1  UNL     1      24.852   4.134  49.677  1.00  0.00    -0.316 N 
HETATM    7  H4  UNL     1      24.440   5.077  49.499  1.00  0.00     0.170 HD
BRANCH   6   8
HETATM    8  C5  UNL     1      24.058   3.076  50.189  1.00  0.00     0.036 A 
HETATM    9  C6  UNL     1      22.919   2.572  49.656  1.00  0.00     0.032 A 
HETATM   10  C7  UNL     1      22.174   1.548  50.178  1.00  0.00     0.035 A 
HETATM   11  C8  UNL     1      22.637   0.974  51.368  1.00  0.00     0.072 A 
HETATM   12  N2  UNL     1      21.870  -0.030  51.844  1.00  0.00    -0.241 NA
HETATM   13  C17 UNL     1      23.803   1.457  51.958  1.00  0.00     0.041 A 
HETATM   14  C9  UNL     1      22.281  -0.605  52.983  1.00  0.00     0.236 A 
HETATM   15  N3  UNL     1      23.392  -0.157  53.558  1.00  0.00    -0.224 NA
HETATM   16  C10 UNL     1      24.176   0.832  53.121  1.00  0.00     0.142 A 
HETATM   17  C18 UNL     1      24.475   2.482  51.359  1.00  0.00     0.047 A 
BRANCH  16  18
HETATM   18  N4  UNL     1      25.348   1.259  53.788  1.00  0.00    -0.340 N 
HETATM   19  H8  UNL     1      25.342   2.048  54.462  1.00  0.00     0.167 HD
BRANCH  18  20
HETATM   20  C11 UNL     1      26.677   0.761  53.703  1.00  0.00     0.035 A 
HETATM   21  C12 UNL     1      27.828   1.510  53.873  1.00  0.00     0.032 A 
HETATM   22  C13 UNL     1      29.096   1.006  53.781  1.00  0.00     0.046 A 
HETATM   23  C14 UNL     1      29.297  -0.326  53.506  1.00  0.00     0.138 A 
HETATM   24  F1  UNL     1      30.578  -0.756  53.430  1.00  0.00    -0.204 F 
HETATM   25  C15 UNL     1      28.186  -1.122  53.327  1.00  0.00     0.074 A 
HETATM   26 CL1  UNL     1      28.511  -2.806  52.979  1.00  0.00    -0.081 Cl
HETATM   27  C16 UNL     1      26.934  -0.560  53.430  1.00  0.00     0.056 A 
ENDBRANCH  18  20
ENDBRANCH  16  18
ENDBRANCH   6   8
ENDBRANCH   3   4
TORSDOF 4
ENDMDL
MODEL 2
REMARK VINA RESULT:      -8.5      3.931      7.324
REMARK  4 active torsions:
REMARK  status: ('A' for Active; 'I' for Inactive)
REMARK    1  A    between atoms: C3_3  and  C4_4 
REMARK       I    between atoms: C4_4  and  N1_6 
REMARK    2  A    between atoms: N1_6  and  C5_7 
REMARK    3  A    between atoms: C10_14  and  N4_15 
REMARK    4  A    between atoms: N4_15  and  C11_16 
ROOT
HETATM    1  C1  UNL     1      16.875  -1.029  52.237  1.00  0.00     0.112 C 
HETATM    2  C2  UNL     1      18.224  -0.809  52.813  1.00  0.00    -0.101 C 
HETATM    3  C3  UNL     1      19.321  -0.616  53.271  1.00  0.00    -0.006 C 
ENDROOT
BRANCH   3   4
HETATM    4  C4  UNL     1      20.616  -0.383  53.838  1.00  0.00     0.300 C 
HETATM    5  O1  UNL     1      20.664   0.458  54.767  1.00  0.00    -0.258 OA
HETATM    6  N1  UNL     1      21.811  -1.010  53.443  1.00  0.00    -0.316 N 
HETATM    7  H4  UNL     1      21.619  -1.681  52.665  1.00  0.00     0.170 HD
BRANCH   6   8
HETATM    8  C5  UNL     1      23.124  -0.839  53.949  1.00  0.00     0.036 A 
HETATM    9  C6  UNL     1      23.599  -1.233  55.156  1.00  0.00     0.032 A 
HETATM   10  C7  UNL     1      24.876  -1.051  55.615  1.00  0.00     0.035 A 
HETATM   11  C8  UNL     1      25.767  -0.398  54.755  1.00  0.00     0.072 A 
HETATM   12  N2  UNL     1      27.014  -0.241  55.250  1.00  0.00    -0.241 NA
HETATM   13  C17 UNL     1      25.330   0.029  53.503  1.00  0.00     0.041 A 
HETATM   14  C9  UNL     1      27.896   0.380  54.455  1.00  0.00     0.236 A 
HETATM   15  N3  UNL     1      27.496   0.793  53.258  1.00  0.00    -0.224 NA
HETATM   16  C10 UNL     1      26.275   0.659  52.733  1.00  0.00     0.142 A 
HETATM   17  C18 UNL     1      24.036  -0.201  53.138  1.00  0.00     0.047 A 
BRANCH  16  18
HETATM   18  N4  UNL     1      25.917   1.125  51.446  1.00  0.00    -0.340 N 
HETATM   19  H8  UNL     1      25.782   0.479  50.645  1.00  0.00     0.167 HD
BRANCH  18  20
HETATM   20  C11 UNL     1      25.681   2.450  50.990  1.00  0.00     0.035 A 
HETATM   21  C12 UNL     1      26.446   3.127  50.057  1.00  0.00     0.032 A 
HETATM   22  C13 UNL     1      26.200   4.405  49.639  1.00  0.00     0.046 A 
HETATM   23  C14 UNL     1      25.133   5.110  50.146  1.00  0.00     0.138 A 
HETATM   24  F1  UNL     1      24.948   6.370  49.687  1.00  0.00    -0.204 F 
HETATM   25  C15 UNL     1      24.335   4.486  51.080  1.00  0.00     0.074 A 
HETATM   26 CL1  UNL     1      22.996   5.437  51.686  1.00  0.00    -0.081 Cl
HETATM   27  C16 UNL     1      24.632   3.198  51.464  1.00  0.00     0.056 A 
ENDBRANCH  18  20
ENDBRANCH  16  18
ENDBRANCH   6   8
ENDBRANCH   3   4
TORSDOF 4
ENDMDL
MODEL 3
REMARK VINA RESULT:      -8.4      2.239      5.589
REMARK  4 active torsions:
REMARK  status: ('A' for Active; 'I' for Inactive)
REMARK    1  A    between atoms: C3_3  and  C4_4 
REMARK       I    between atoms: C4_4  and  N1_6 
REMARK    2  A    between atoms: N1_6  and  C5_7 
REMARK    3  A    between atoms: C10_14  and  N4_15 
REMARK    4  A    between atoms: N4_15  and  C11_16 
ROOT
HETATM    1  C1  UNL     1      17.641  -1.948  53.512  1.00  0.00     0.112 C 
HETATM    2  C2  UNL     1      18.583  -0.965  52.924  1.00  0.00    -0.101 C 
HETATM    3  C3  UNL     1      19.335  -0.157  52.442  1.00  0.00    -0.006 C 
ENDROOT
BRANCH   3   4
HETATM    4  C4  UNL     1      20.236   0.810  51.891  1.00  0.00     0.300 C 
HETATM    5  O1  UNL     1      20.024   2.003  52.214  1.00  0.00    -0.258 OA
HETATM    6  N1  UNL     1      21.317   0.532  51.035  1.00  0.00    -0.316 N 
HETATM    7  H4  UNL     1      21.370  -0.495  50.854  1.00  0.00     0.170 HD
BRANCH   6   8
HETATM    8  C5  UNL     1      22.251   1.424  50.450  1.00  0.00     0.036 A 
HETATM    9  C6  UNL     1      22.129   2.088  49.276  1.00  0.00     0.032 A 
HETATM   10  C7  UNL     1      23.053   2.944  48.738  1.00  0.00     0.035 A 
HETATM   11  C8  UNL     1      24.228   3.146  49.473  1.00  0.00     0.072 A 
HETATM   12  N2  UNL     1      25.109   3.996  48.903  1.00  0.00    -0.241 NA
HETATM   13  C17 UNL     1      24.404   2.485  50.687  1.00  0.00     0.041 A 
HETATM   14  C9  UNL     1      26.246   4.216  49.578  1.00  0.00     0.236 A 
HETATM   15  N3  UNL     1      26.429   3.594  50.737  1.00  0.00    -0.224 NA
HETATM   16  C10 UNL     1      25.586   2.747  51.333  1.00  0.00     0.142 A 
HETATM   17  C18 UNL     1      23.422   1.653  51.138  1.00  0.00     0.047 A 
BRANCH  16  18
HETATM   18  N4  UNL     1      25.847   2.118  52.573  1.00  0.00    -0.340 N 
HETATM   19  H8  UNL     1      25.215   2.226  53.388  1.00  0.00     0.167 HD
BRANCH  18  20
HETATM   20  C11 UNL     1      26.926   1.278  52.958  1.00  0.00     0.035 A 
HETATM   21  C12 UNL     1      28.077   1.692  53.605  1.00  0.00     0.032 A 
HETATM   22  C13 UNL     1      29.103   0.862  53.961  1.00  0.00     0.046 A 
HETATM   23  C14 UNL     1      29.038  -0.484  53.684  1.00  0.00     0.138 A 
HETATM   24  F1  UNL     1      30.089  -1.246  54.065  1.00  0.00    -0.204 F 
HETATM   25  C15 UNL     1      27.914  -0.955  53.041  1.00  0.00     0.074 A 
HETATM   26 CL1  UNL     1      27.895  -2.674  52.716  1.00  0.00    -0.081 Cl
HETATM   27  C16 UNL     1      26.913  -0.072  52.705  1.00  0.00     0.056 A 
ENDBRANCH  18  20
ENDBRANCH  16  18
ENDBRANCH   6   8
ENDBRANCH   3   4
TORSDOF 4
ENDMDL
MODEL 4
REMARK VINA RESULT:      -8.2      3.427      6.182
REMARK  4 active torsions:
REMARK  status: ('A' for Active; 'I' for Inactive)
REMARK    1  A    between atoms: C3_3  and  C4_4 
REMARK       I    between atoms: C4_4  and  N1_6 
REMARK    2  A    between atoms: N1_6  and  C5_7 
REMARK    3  A    between atoms: C10_14  and  N4_15 
REMARK    4  A    between atoms: N4_15  and  C11_16 
ROOT
HETATM    1  C1  UNL     1      30.420  -0.455  53.821  1.00  0.00     0.112 C 
HETATM    2  C2  UNL     1      28.963  -0.640  53.618  1.00  0.00    -0.101 C 
HETATM    3  C3  UNL     1      27.775  -0.780  53.467  1.00  0.00    -0.006 C 
ENDROOT
BRANCH   3   4
HETATM    4  C4  UNL     1      26.366  -0.934  53.269  1.00  0.00     0.300 C 
HETATM    5  O1  UNL     1      26.024  -1.685  52.325  1.00  0.00    -0.258 OA
HETATM    6  N1  UNL     1      25.356  -0.322  54.033  1.00  0.00    -0.316 N 
HETATM    7  H4  UNL     1      25.787   0.271  54.778  1.00  0.00     0.170 HD
BRANCH   6   8
HETATM    8  C5  UNL     1      23.948  -0.421  53.905  1.00  0.00     0.036 A 
HETATM    9  C6  UNL     1      23.090  -1.060  54.736  1.00  0.00     0.032 A 
HETATM   10  C7  UNL     1      21.731  -1.137  54.582  1.00  0.00     0.035 A 
HETATM   11  C8  UNL     1      21.186  -0.497  53.463  1.00  0.00     0.072 A 
HETATM   12  N2  UNL     1      19.844  -0.600  53.353  1.00  0.00    -0.241 NA
HETATM   13  C17 UNL     1      22.025   0.173  52.576  1.00  0.00     0.041 A 
HETATM   14  C9  UNL     1      19.285   0.001  52.294  1.00  0.00     0.236 A 
HETATM   15  N3  UNL     1      20.071   0.645  51.438  1.00  0.00    -0.224 NA
HETATM   16  C10 UNL     1      21.399   0.769  51.510  1.00  0.00     0.142 A 
HETATM   17  C18 UNL     1      23.367   0.194  52.818  1.00  0.00     0.047 A 
BRANCH  16  18
HETATM   18  N4  UNL     1      22.175   1.472  50.559  1.00  0.00    -0.340 N 
HETATM   19  H8  UNL     1      22.336   1.106  49.601  1.00  0.00     0.167 HD
BRANCH  18  20
HETATM   20  C11 UNL     1      22.852   2.716  50.675  1.00  0.00     0.035 A 
HETATM   21  C12 UNL     1      22.400   3.813  51.387  1.00  0.00     0.032 A 
HETATM   22  C13 UNL     1      23.070   5.002  51.479  1.00  0.00     0.046 A 
HETATM   23  C14 UNL     1      24.277   5.172  50.842  1.00  0.00     0.138 A 
HETATM   24  F1  UNL     1      24.884   6.374  50.976  1.00  0.00    -0.204 F 
HETATM   25  C15 UNL     1      24.777   4.112  50.117  1.00  0.00     0.074 A 
HETATM   26 CL1  UNL     1      26.315   4.394  49.330  1.00  0.00    -0.081 Cl
HETATM   27  C16 UNL     1      24.058   2.939  50.059  1.00  0.00     0.056 A 
ENDBRANCH  18  20
ENDBRANCH  16  18
ENDBRANCH   6   8
ENDBRANCH   3   4
TORSDOF 4
ENDMDL
MODEL 5
REMARK VINA RESULT:      -8.0      1.741      2.056
REMARK  4 active torsions:
REMARK  status: ('A' for Active; 'I' for Inactive)
REMARK    1  A    between atoms: C3_3  and  C4_4 
REMARK       I    between atoms: C4_4  and  N1_6 
REMARK    2  A    between atoms: N1_6  and  C5_7 
REMARK    3  A    between atoms: C10_14  and  N4_15 
REMARK    4  A    between atoms: N4_15  and  C11_16 
ROOT
HETATM    1  C1  UNL     1      28.264   8.582  48.858  1.00  0.00     0.112 C 
HETATM    2  C2  UNL     1      27.151   7.648  49.155  1.00  0.00    -0.101 C 
HETATM    3  C3  UNL     1      26.246   6.884  49.380  1.00  0.00    -0.006 C 
ENDROOT
BRANCH   3   4
HETATM    4  C4  UNL     1      25.187   5.963  49.660  1.00  0.00     0.300 C 
HETATM    5  O1  UNL     1      24.198   6.434  50.271  1.00  0.00    -0.258 OA
HETATM    6  N1  UNL     1      25.167   4.601  49.310  1.00  0.00    -0.316 N 
HETATM    7  H4  UNL     1      26.049   4.352  48.810  1.00  0.00     0.170 HD
BRANCH   6   8
HETATM    8  C5  UNL     1      24.164   3.628  49.547  1.00  0.00     0.036 A 
HETATM    9  C6  UNL     1      23.112   3.320  48.749  1.00  0.00     0.032 A 
HETATM   10  C7  UNL     1      22.158   2.372  49.008  1.00  0.00     0.035 A 
HETATM   11  C8  UNL     1      22.287   1.660  50.207  1.00  0.00     0.072 A 
HETATM   12  N2  UNL     1      21.324   0.737  50.419  1.00  0.00    -0.241 NA
HETATM   13  C17 UNL     1      23.350   1.939  51.064  1.00  0.00     0.041 A 
HETATM   14  C9  UNL     1      21.414   0.034  51.557  1.00  0.00     0.236 A 
HETATM   15  N3  UNL     1      22.421   0.287  52.385  1.00  0.00    -0.224 NA
HETATM   16  C10 UNL     1      23.390   1.189  52.213  1.00  0.00     0.142 A 
HETATM   17  C18 UNL     1      24.249   2.903  50.715  1.00  0.00     0.047 A 
BRANCH  16  18
HETATM   18  N4  UNL     1      24.437   1.406  53.140  1.00  0.00    -0.340 N 
HETATM   19  H8  UNL     1      24.350   2.088  53.918  1.00  0.00     0.167 HD
BRANCH  18  20
HETATM   20  C11 UNL     1      25.722   0.806  53.220  1.00  0.00     0.035 A 
HETATM   21  C12 UNL     1      26.038  -0.475  52.805  1.00  0.00     0.032 A 
HETATM   22  C13 UNL     1      27.285  -1.030  52.898  1.00  0.00     0.046 A 
HETATM   23  C14 UNL     1      28.329  -0.310  53.429  1.00  0.00     0.138 A 
HETATM   24  F1  UNL     1      29.535  -0.922  53.490  1.00  0.00    -0.204 F 
HETATM   25  C15 UNL     1      28.074   0.973  53.860  1.00  0.00     0.074 A 
HETATM   26 CL1  UNL     1      29.444   1.834  54.527  1.00  0.00    -0.081 Cl
HETATM   27  C16 UNL     1      26.799   1.480  53.742  1.00  0.00     0.056 A 
ENDBRANCH  18  20
ENDBRANCH  16  18
ENDBRANCH   6   8
ENDBRANCH   3   4
TORSDOF 4
ENDMDL
MODEL 6
REMARK VINA RESULT:      -8.0      3.372      5.840
REMARK  4 active torsions:
REMARK  status: ('A' for Active; 'I' for Inactive)
REMARK    1  A    between atoms: C3_3  and  C4_4 
REMARK       I    between atoms: C4_4  and  N1_6 
REMARK    2  A    between atoms: N1_6  and  C5_7 
REMARK    3  A    between atoms: C10_14  and  N4_15 
REMARK    4  A    between atoms: N4_15  and  C11_16 
ROOT
HETATM    1  C1  UNL     1      34.966   3.486  47.078  1.00  0.00     0.112 C 
HETATM    2  C2  UNL     1      33.688   4.077  47.542  1.00  0.00    -0.101 C 
HETATM    3  C3  UNL     1      32.652   4.552  47.934  1.00  0.00    -0.006 C 
ENDROOT
BRANCH   3   4
HETATM    4  C4  UNL     1      31.430   5.137  48.398  1.00  0.00     0.300 C 
HETATM    5  O1  UNL     1      31.442   5.570  49.575  1.00  0.00    -0.258 OA
HETATM    6  N1  UNL     1      30.244   5.263  47.654  1.00  0.00    -0.316 N 
HETATM    7  H4  UNL     1      30.381   4.861  46.699  1.00  0.00     0.170 HD
BRANCH   6   8
HETATM    8  C5  UNL     1      29.000   5.826  48.035  1.00  0.00     0.036 A 
HETATM    9  C6  UNL     1      28.601   7.113  47.888  1.00  0.00     0.032 A 
HETATM   10  C7  UNL     1      27.390   7.626  48.269  1.00  0.00     0.035 A 
HETATM   11  C8  UNL     1      26.486   6.736  48.862  1.00  0.00     0.072 A 
HETATM   12  N2  UNL     1      25.307   7.287  49.221  1.00  0.00    -0.241 NA
HETATM   13  C17 UNL     1      26.848   5.402  49.038  1.00  0.00     0.041 A 
HETATM   14  C9  UNL     1      24.415   6.465  49.793  1.00  0.00     0.236 A 
HETATM   15  N3  UNL     1      24.744   5.190  49.967  1.00  0.00    -0.224 NA
HETATM   16  C10 UNL     1      25.897   4.608  49.628  1.00  0.00     0.142 A 
HETATM   17  C18 UNL     1      28.080   4.988  48.624  1.00  0.00     0.047 A 
BRANCH  16  18
HETATM   18  N4  UNL     1      26.180   3.239  49.845  1.00  0.00    -0.340 N 
HETATM   19  H8  UNL     1      26.698   2.668  49.150  1.00  0.00     0.167 HD
BRANCH  18  20
HETATM   20  C11 UNL     1      25.857   2.405  50.950  1.00  0.00     0.035 A 
HETATM   21  C12 UNL     1      24.677   2.447  51.670  1.00  0.00     0.032 A 
HETATM   22  C13 UNL     1      24.393   1.636  52.733  1.00  0.00     0.046 A 
HETATM   23  C14 UNL     1      25.305   0.697  53.155  1.00  0.00     0.138 A 
HETATM   24  F1  UNL     1      24.958  -0.073  54.213  1.00  0.00    -0.204 F 
HETATM   25  C15 UNL     1      26.500   0.609  52.474  1.00  0.00     0.074 A 
HETATM   26 CL1  UNL     1      27.617  -0.604  53.062  1.00  0.00    -0.081 Cl
HETATM   27  C16 UNL     1      26.732   1.453  51.412  1.00  0.00     0.056 A 
ENDBRANCH  18  20
ENDBRANCH  16  18
ENDBRANCH   6   8
ENDBRANCH   3   4
TORSDOF 4
ENDMDL
MODEL 7
REMARK VINA RESULT:      -7.9      3.885      6.664
REMARK  4 active torsions:
REMARK  status: ('A' for Active; 'I' for Inactive)
REMARK    1  A    between atoms: C3_3  and  C4_4 
REMARK       I    between atoms: C4_4  and  N1_6 
REMARK    2  A    between atoms: N1_6  and  C5_7 
REMARK    3  A    between atoms: C10_14  and  N4_15 
REMARK    4  A    between atoms: N4_15  and  C11_16 
ROOT
HETATM    1  C1  UNL     1      30.482  -0.869  54.014  1.00  0.00     0.112 C 
HETATM    2  C2  UNL     1      29.122  -0.475  53.574  1.00  0.00    -0.101 C 
HETATM    3  C3  UNL     1      28.020  -0.139  53.222  1.00  0.00    -0.006 C 
ENDROOT
BRANCH   3   4
HETATM    4  C4  UNL     1      26.716   0.255  52.780  1.00  0.00     0.300 C 
HETATM    5  O1  UNL     1      26.282  -0.332  51.761  1.00  0.00    -0.258 OA
HETATM    6  N1  UNL     1      25.902   1.228  53.387  1.00  0.00    -0.316 N 
HETATM    7  H4  UNL     1      26.390   1.630  54.218  1.00  0.00     0.170 HD
BRANCH   6   8
HETATM    8  C5  UNL     1      24.608   1.674  53.016  1.00  0.00     0.036 A 
HETATM    9  C6  UNL     1      23.459   0.956  53.019  1.00  0.00     0.032 A 
HETATM   10  C7  UNL     1      22.222   1.419  52.654  1.00  0.00     0.035 A 
HETATM   11  C8  UNL     1      22.146   2.754  52.241  1.00  0.00     0.072 A 
HETATM   12  N2  UNL     1      20.908   3.164  51.891  1.00  0.00    -0.241 NA
HETATM   13  C17 UNL     1      23.299   3.536  52.219  1.00  0.00     0.041 A 
HETATM   14  C9  UNL     1      20.794   4.439  51.490  1.00  0.00     0.236 A 
HETATM   15  N3  UNL     1      21.884   5.198  51.463  1.00  0.00    -0.224 NA
HETATM   16  C10 UNL     1      23.123   4.831  51.800  1.00  0.00     0.142 A 
HETATM   17  C18 UNL     1      24.485   2.982  52.603  1.00  0.00     0.047 A 
BRANCH  16  18
HETATM   18  N4  UNL     1      24.241   5.696  51.746  1.00  0.00    -0.340 N 
HETATM   19  H8  UNL     1      24.561   6.233  52.575  1.00  0.00     0.167 HD
BRANCH  18  20
HETATM   20  C11 UNL     1      25.103   6.004  50.660  1.00  0.00     0.035 A 
HETATM   21  C12 UNL     1      25.701   5.080  49.821  1.00  0.00     0.032 A 
HETATM   22  C13 UNL     1      26.531   5.405  48.784  1.00  0.00     0.046 A 
HETATM   23  C14 UNL     1      26.823   6.721  48.511  1.00  0.00     0.138 A 
HETATM   24  F1  UNL     1      27.652   6.969  47.470  1.00  0.00    -0.204 F 
HETATM   25  C15 UNL     1      26.256   7.686  49.315  1.00  0.00     0.074 A 
HETATM   26 CL1  UNL     1      26.669   9.339  48.916  1.00  0.00    -0.081 Cl
HETATM   27  C16 UNL     1      25.428   7.300  50.345  1.00  0.00     0.056 A 
ENDBRANCH  18  20
ENDBRANCH  16  18
ENDBRANCH   6   8
ENDBRANCH   3   4
TORSDOF 4
ENDMDL
MODEL 8
REMARK VINA RESULT:      -7.8      3.943      5.993
REMARK  4 active torsions:
REMARK  status: ('A' for Active; 'I' for Inactive)
REMARK    1  A    between atoms: C3_3  and  C4_4 
REMARK       I    between atoms: C4_4  and  N1_6 
REMARK    2  A    between atoms: N1_6  and  C5_7 
REMARK    3  A    between atoms: C10_14  and  N4_15 
REMARK    4  A    between atoms: N4_15  and  C11_16 
ROOT
HETATM    1  C1  UNL     1      28.441   6.528  47.798  1.00  0.00     0.112 C 
HETATM    2  C2  UNL     1      27.732   5.451  48.529  1.00  0.00    -0.101 C 
HETATM    3  C3  UNL     1      27.169   4.574  49.134  1.00  0.00    -0.006 C 
ENDROOT
BRANCH   3   4
HETATM    4  C4  UNL     1      26.482   3.548  49.860  1.00  0.00     0.300 C 
HETATM    5  O1  UNL     1      25.460   3.076  49.307  1.00  0.00    -0.258 OA
HETATM    6  N1  UNL     1      26.856   3.039  51.116  1.00  0.00    -0.316 N 
HETATM    7  H4  UNL     1      27.719   3.523  51.451  1.00  0.00     0.170 HD
BRANCH   6   8
HETATM    8  C5  UNL     1      26.238   2.030  51.897  1.00  0.00     0.036 A 
HETATM    9  C6  UNL     1      26.840   0.995  52.529  1.00  0.00     0.032 A 
HETATM   10  C7  UNL     1      26.211   0.035  53.277  1.00  0.00     0.035 A 
HETATM   11  C8  UNL     1      24.820   0.138  53.394  1.00  0.00     0.072 A 
HETATM   12  N2  UNL     1      24.244  -0.829  54.139  1.00  0.00    -0.241 NA
HETATM   13  C17 UNL     1      24.151   1.184  52.761  1.00  0.00     0.041 A 
HETATM   14  C9  UNL     1      22.912  -0.764  54.274  1.00  0.00     0.236 A 
HETATM   15  N3  UNL     1      22.259   0.227  53.677  1.00  0.00    -0.224 NA
HETATM   16  C10 UNL     1      22.790   1.201  52.933  1.00  0.00     0.142 A 
HETATM   17  C18 UNL     1      24.869   2.091  52.038  1.00  0.00     0.047 A 
BRANCH  16  18
HETATM   18  N4  UNL     1      22.031   2.228  52.325  1.00  0.00    -0.340 N 
HETATM   19  H8  UNL     1      21.772   3.095  52.833  1.00  0.00     0.167 HD
BRANCH  18  20
HETATM   20  C11 UNL     1      21.496   2.310  51.011  1.00  0.00     0.035 A 
HETATM   21  C12 UNL     1      21.510   1.293  50.073  1.00  0.00     0.032 A 
HETATM   22  C13 UNL     1      20.992   1.401  48.812  1.00  0.00     0.046 A 
HETATM   23  C14 UNL     1      20.405   2.574  48.398  1.00  0.00     0.138 A 
HETATM   24  F1  UNL     1      19.913   2.609  47.137  1.00  0.00    -0.204 F 
HETATM   25  C15 UNL     1      20.362   3.622  49.291  1.00  0.00     0.074 A 
HETATM   26 CL1  UNL     1      19.605   5.086  48.701  1.00  0.00    -0.081 Cl
HETATM   27  C16 UNL     1      20.901   3.457  50.547  1.00  0.00     0.056 A 
ENDBRANCH  18  20
ENDBRANCH  16  18
ENDBRANCH   6   8
ENDBRANCH   3   4
TORSDOF 4
ENDMDL
MODEL 9
REMARK VINA RESULT:      -7.8      2.515      3.660
REMARK  4 active torsions:
REMARK  status: ('A' for Active; 'I' for Inactive)
REMARK    1  A    between atoms: C3_3  and  C4_4 
REMARK       I    between atoms: C4_4  and  N1_6 
REMARK    2  A    between atoms: N1_6  and  C5_7 
REMARK    3  A    between atoms: C10_14  and  N4_15 
REMARK    4  A    between atoms: N4_15  and  C11_16 
ROOT
HETATM    1  C1  UNL     1      31.551   6.065  47.609  1.00  0.00     0.112 C 
HETATM    2  C2  UNL     1      30.147   5.741  47.960  1.00  0.00    -0.101 C 
HETATM    3  C3  UNL     1      29.011   5.474  48.260  1.00  0.00    -0.006 C 
ENDROOT
BRANCH   3   4
HETATM    4  C4  UNL     1      27.656   5.179  48.615  1.00  0.00     0.300 C 
HETATM    5  O1  UNL     1      27.398   3.972  48.837  1.00  0.00    -0.258 OA
HETATM    6  N1  UNL     1      26.614   6.116  48.734  1.00  0.00    -0.316 N 
HETATM    7  H4  UNL     1      26.974   7.074  48.521  1.00  0.00     0.170 HD
BRANCH   6   8
HETATM    8  C5  UNL     1      25.255   5.910  49.080  1.00  0.00     0.036 A 
HETATM    9  C6  UNL     1      24.161   6.327  48.399  1.00  0.00     0.032 A 
HETATM   10  C7  UNL     1      22.858   6.110  48.763  1.00  0.00     0.035 A 
HETATM   11  C8  UNL     1      22.645   5.393  49.946  1.00  0.00     0.072 A 
HETATM   12  N2  UNL     1      21.346   5.205  50.264  1.00  0.00    -0.241 NA
HETATM   13  C17 UNL     1      23.737   4.943  50.685  1.00  0.00     0.041 A 
HETATM   14  C9  UNL     1      21.102   4.522  51.391  1.00  0.00     0.236 A 
HETATM   15  N3  UNL     1      22.132   4.085  52.107  1.00  0.00    -0.224 NA
HETATM   16  C10 UNL     1      23.427   4.250  51.829  1.00  0.00     0.142 A 
HETATM   17  C18 UNL     1      24.998   5.209  50.238  1.00  0.00     0.047 A 
BRANCH  16  18
HETATM   18  N4  UNL     1      24.475   3.756  52.640  1.00  0.00    -0.340 N 
HETATM   19  H8  UNL     1      25.058   4.382  53.228  1.00  0.00     0.167 HD
BRANCH  18  20
HETATM   20  C11 UNL     1      24.934   2.424  52.825  1.00  0.00     0.035 A 
HETATM   21  C12 UNL     1      24.132   1.297  52.876  1.00  0.00     0.032 A 
HETATM   22  C13 UNL     1      24.600   0.026  53.060  1.00  0.00     0.046 A 
HETATM   23  C14 UNL     1      25.948  -0.206  53.207  1.00  0.00     0.138 A 
HETATM   24  F1  UNL     1      26.340  -1.489  53.385  1.00  0.00    -0.204 F 
HETATM   25  C15 UNL     1      26.796   0.880  53.164  1.00  0.00     0.074 A 
HETATM   26 CL1  UNL     1      28.497   0.517  53.359  1.00  0.00    -0.081 Cl
HETATM   27  C16 UNL     1      26.268   2.138  52.977  1.00  0.00     0.056 A 
ENDBRANCH  18  20
ENDBRANCH  16  18
ENDBRANCH   6   8
ENDBRANCH   3   4
TORSDOF 4
ENDMDL
