MODEL 1
REMARK VINA RESULT:      -7.0      0.000      0.000
REMARK  6 active torsions:
REMARK  status: ('A' for Active; 'I' for Inactive)
REMARK    1  A    between atoms: C2_2  and  C3_3 
REMARK    2  A    between atoms: C3_3  and  C4_4 
REMARK    3  A    between atoms: C4_4  and  C5_5 
REMARK    4  A    between atoms: C6_6  and  N1_7 
REMARK    5  A    between atoms: C9_13  and  N5_14 
REMARK    6  A    between atoms: N5_14  and  C10_15 
ROOT
HETATM    1  C5  UNL     1      23.567   1.519  52.188  1.00  0.00     0.002 A 
HETATM    2  C6  UNL     1      22.448   1.848  51.420  1.00  0.00     0.052 A 
HETATM    3  C7  UNL     1      22.891   2.576  50.316  1.00  0.00     0.148 A 
HETATM    4  N2  UNL     1      24.246   2.690  50.405  1.00  0.00    -0.237 N 
HETATM    5  N3  UNL     1      25.210   3.251  49.693  1.00  0.00    -0.161 NA
HETATM    6  C8  UNL     1      26.514   3.189  50.072  1.00  0.00     0.258 A 
HETATM    7  N4  UNL     1      26.904   2.544  51.211  1.00  0.00    -0.220 NA
HETATM    8  C9  UNL     1      25.943   1.962  51.957  1.00  0.00     0.159 A 
HETATM    9  C15 UNL     1      24.643   2.061  51.519  1.00  0.00     0.112 A 
ENDROOT
BRANCH   8  10
HETATM   10  N5  UNL     1      26.404   1.309  53.131  1.00  0.00    -0.339 N 
HETATM   11  H14 UNL     1      26.445   1.528  54.156  1.00  0.00     0.167 HD
BRANCH  10  12
HETATM   12  C10 UNL     1      26.996  -0.003  53.046  1.00  0.00     0.033 A 
HETATM   13  C11 UNL     1      26.635  -1.174  52.613  1.00  0.00     0.029 A 
HETATM   14  C12 UNL     1      27.459  -2.418  52.638  1.00  0.00     0.204 A 
HETATM   15  O1  UNL     1      28.707  -2.198  53.217  1.00  0.00    -0.359 OA
HETATM   16  C13 UNL     1      29.138  -0.976  53.690  1.00  0.00     0.137 A 
HETATM   17  C14 UNL     1      28.355   0.112  53.633  1.00  0.00     0.053 A 
ENDBRANCH  10  12
ENDBRANCH   8  10
BRANCH   1  18
HETATM   18  C4  UNL     1      23.350   0.745  53.418  1.00  0.00     0.043 C 
BRANCH  18  19
HETATM   19  C3  UNL     1      23.140  -0.735  53.060  1.00  0.00     0.004 C 
BRANCH  19  20
HETATM   20  C2  UNL     1      21.913  -1.304  53.716  1.00  0.00    -0.004 C 
HETATM   21  C1  UNL     1      21.444  -0.300  54.750  1.00  0.00     0.005 C 
ENDBRANCH  19  20
ENDBRANCH  18  19
ENDBRANCH   1  18
BRANCH   2  22
HETATM   22  N1  UNL     1      21.055   1.570  51.589  1.00  0.00    -0.397 N 
HETATM   23  H10 UNL     1      20.517   1.374  52.466  1.00  0.00     0.156 HD
HETATM   24  H11 UNL     1      20.455   1.553  50.716  1.00  0.00     0.156 HD
ENDBRANCH   2  22
TORSDOF 6
ENDMDL
MODEL 2
REMARK VINA RESULT:      -6.9      2.630      5.245
REMARK  6 active torsions:
REMARK  status: ('A' for Active; 'I' for Inactive)
REMARK    1  A    between atoms: C2_2  and  C3_3 
REMARK    2  A    between atoms: C3_3  and  C4_4 
REMARK    3  A    between atoms: C4_4  and  C5_5 
REMARK    4  A    between atoms: C6_6  and  N1_7 
REMARK    5  A    between atoms: C9_13  and  N5_14 
REMARK    6  A    between atoms: N5_14  and  C10_15 
ROOT
HETATM    1  C5  UNL     1      27.014  -0.556  53.104  1.00  0.00     0.002 A 
HETATM    2  C6  UNL     1      27.828  -1.690  53.114  1.00  0.00     0.052 A 
HETATM    3  C7  UNL     1      29.105  -1.293  53.512  1.00  0.00     0.148 A 
HETATM    4  N2  UNL     1      29.074   0.050  53.740  1.00  0.00    -0.237 N 
HETATM    5  N3  UNL     1      29.937   0.978  54.118  1.00  0.00    -0.161 NA
HETATM    6  C8  UNL     1      29.580   2.283  54.250  1.00  0.00     0.258 A 
HETATM    7  N4  UNL     1      28.308   2.711  53.997  1.00  0.00    -0.220 NA
HETATM    8  C9  UNL     1      27.405   1.787  53.610  1.00  0.00     0.159 A 
HETATM    9  C15 UNL     1      27.830   0.483  53.496  1.00  0.00     0.112 A 
ENDROOT
BRANCH   8  10
HETATM   10  N5  UNL     1      26.101   2.287  53.359  1.00  0.00    -0.339 N 
HETATM   11  H14 UNL     1      25.231   2.458  53.920  1.00  0.00     0.167 HD
BRANCH  10  12
HETATM   12  C10 UNL     1      25.728   2.707  52.031  1.00  0.00     0.033 A 
HETATM   13  C11 UNL     1      26.336   2.901  50.899  1.00  0.00     0.029 A 
HETATM   14  C12 UNL     1      25.706   3.352  49.623  1.00  0.00     0.204 A 
HETATM   15  O1  UNL     1      24.339   3.576  49.775  1.00  0.00    -0.359 OA
HETATM   16  C13 UNL     1      23.648   3.384  50.953  1.00  0.00     0.137 A 
HETATM   17  C14 UNL     1      24.267   2.967  52.068  1.00  0.00     0.053 A 
ENDBRANCH  10  12
ENDBRANCH   8  10
BRANCH   1  18
HETATM   18  C4  UNL     1      25.609  -0.724  52.711  1.00  0.00     0.043 C 
BRANCH  18  19
HETATM   19  C3  UNL     1      24.725  -0.737  53.968  1.00  0.00     0.004 C 
BRANCH  19  20
HETATM   20  C2  UNL     1      23.309  -0.332  53.665  1.00  0.00    -0.004 C 
HETATM   21  C1  UNL     1      22.411  -1.051  54.653  1.00  0.00     0.005 C 
ENDBRANCH  19  20
ENDBRANCH  18  19
ENDBRANCH   1  18
BRANCH   2  22
HETATM   22  N1  UNL     1      27.562  -3.062  52.807  1.00  0.00    -0.397 N 
HETATM   23  H10 UNL     1      27.695  -3.580  51.906  1.00  0.00     0.156 HD
HETATM   24  H11 UNL     1      27.174  -3.667  53.586  1.00  0.00     0.156 HD
ENDBRANCH   2  22
TORSDOF 6
ENDMDL
MODEL 3
REMARK VINA RESULT:      -6.8      2.926      5.102
REMARK  6 active torsions:
REMARK  status: ('A' for Active; 'I' for Inactive)
REMARK    1  A    between atoms: C2_2  and  C3_3 
REMARK    2  A    between atoms: C3_3  and  C4_4 
REMARK    3  A    between atoms: C4_4  and  C5_5 
REMARK    4  A    between atoms: C6_6  and  N1_7 
REMARK    5  A    between atoms: C9_13  and  N5_14 
REMARK    6  A    between atoms: N5_14  and  C10_15 
ROOT
HETATM    1  C5  UNL     1      25.253   0.113  53.689  1.00  0.00     0.002 A 
HETATM    2  C6  UNL     1      25.469  -0.508  54.921  1.00  0.00     0.052 A 
HETATM    3  C7  UNL     1      26.690  -0.054  55.418  1.00  0.00     0.148 A 
HETATM    4  N2  UNL     1      27.210   0.823  54.514  1.00  0.00    -0.237 N 
HETATM    5  N3  UNL     1      28.305   1.558  54.412  1.00  0.00    -0.161 NA
HETATM    6  C8  UNL     1      28.539   2.356  53.335  1.00  0.00     0.258 A 
HETATM    7  N4  UNL     1      27.657   2.443  52.297  1.00  0.00    -0.220 NA
HETATM    8  C9  UNL     1      26.531   1.705  52.374  1.00  0.00     0.159 A 
HETATM    9  C15 UNL     1      26.353   0.919  53.488  1.00  0.00     0.112 A 
ENDROOT
BRANCH   8  10
HETATM   10  N5  UNL     1      25.651   1.832  51.266  1.00  0.00    -0.339 N 
HETATM   11  H14 UNL     1      25.396   1.254  50.429  1.00  0.00     0.167 HD
BRANCH  10  12
HETATM   12  C10 UNL     1      24.834   3.010  51.120  1.00  0.00     0.033 A 
HETATM   13  C11 UNL     1      24.144   3.782  51.905  1.00  0.00     0.029 A 
HETATM   14  C12 UNL     1      23.357   4.983  51.497  1.00  0.00     0.204 A 
HETATM   15  O1  UNL     1      23.419   5.195  50.121  1.00  0.00    -0.359 OA
HETATM   16  C13 UNL     1      24.137   4.407  49.246  1.00  0.00     0.137 A 
HETATM   17  C14 UNL     1      24.835   3.344  49.673  1.00  0.00     0.053 A 
ENDBRANCH  10  12
ENDBRANCH   8  10
BRANCH   1  18
HETATM   18  C4  UNL     1      24.019  -0.213  52.963  1.00  0.00     0.043 C 
BRANCH  18  19
HETATM   19  C3  UNL     1      22.893   0.726  53.424  1.00  0.00     0.004 C 
BRANCH  19  20
HETATM   20  C2  UNL     1      21.546   0.058  53.373  1.00  0.00    -0.004 C 
HETATM   21  C1  UNL     1      21.334  -0.635  54.704  1.00  0.00     0.005 C 
ENDBRANCH  19  20
ENDBRANCH  18  19
ENDBRANCH   1  18
BRANCH   2  22
HETATM   22  N1  UNL     1      24.691  -1.448  55.668  1.00  0.00    -0.397 N 
HETATM   23  H10 UNL     1      25.003  -2.286  56.214  1.00  0.00     0.156 HD
HETATM   24  H11 UNL     1      23.641  -1.299  55.691  1.00  0.00     0.156 HD
ENDBRANCH   2  22
TORSDOF 6
ENDMDL
MODEL 4
REMARK VINA RESULT:      -6.7      2.940      5.281
REMARK  6 active torsions:
REMARK  status: ('A' for Active; 'I' for Inactive)
REMARK    1  A    between atoms: C2_2  and  C3_3 
REMARK    2  A    between atoms: C3_3  and  C4_4 
REMARK    3  A    between atoms: C4_4  and  C5_5 
REMARK    4  A    between atoms: C6_6  and  N1_7 
REMARK    5  A    between atoms: C9_13  and  N5_14 
REMARK    6  A    between atoms: N5_14  and  C10_15 
ROOT
HETATM    1  C5  UNL     1      22.658  -0.390  53.396  1.00  0.00     0.002 A 
HETATM    2  C6  UNL     1      22.074  -1.168  54.398  1.00  0.00     0.052 A 
HETATM    3  C7  UNL     1      23.065  -1.470  55.333  1.00  0.00     0.148 A 
HETATM    4  N2  UNL     1      24.226  -0.893  54.914  1.00  0.00    -0.237 N 
HETATM    5  N3  UNL     1      25.473  -0.823  55.348  1.00  0.00    -0.161 NA
HETATM    6  C8  UNL     1      26.436  -0.146  54.668  1.00  0.00     0.258 A 
HETATM    7  N4  UNL     1      26.170   0.501  53.496  1.00  0.00    -0.220 NA
HETATM    8  C9  UNL     1      24.906   0.449  53.028  1.00  0.00     0.159 A 
HETATM    9  C15 UNL     1      23.979  -0.252  53.763  1.00  0.00     0.112 A 
ENDROOT
BRANCH   8  10
HETATM   10  N5  UNL     1      24.687   1.137  51.805  1.00  0.00    -0.339 N 
HETATM   11  H14 UNL     1      24.740   0.905  50.784  1.00  0.00     0.167 HD
BRANCH  10  12
HETATM   12  C10 UNL     1      24.286   2.522  51.813  1.00  0.00     0.033 A 
HETATM   13  C11 UNL     1      24.118   3.449  52.708  1.00  0.00     0.029 A 
HETATM   14  C12 UNL     1      23.682   4.854  52.455  1.00  0.00     0.204 A 
HETATM   15  O1  UNL     1      23.440   5.081  51.101  1.00  0.00    -0.359 OA
HETATM   16  C13 UNL     1      23.604   4.132  50.113  1.00  0.00     0.137 A 
HETATM   17  C14 UNL     1      24.009   2.886  50.401  1.00  0.00     0.053 A 
ENDBRANCH  10  12
ENDBRANCH   8  10
BRANCH   1  18
HETATM   18  C4  UNL     1      21.802   0.054  52.288  1.00  0.00     0.043 C 
BRANCH  18  19
HETATM   19  C3  UNL     1      21.032   1.315  52.710  1.00  0.00     0.004 C 
BRANCH  19  20
HETATM   20  C2  UNL     1      20.503   2.075  51.525  1.00  0.00    -0.004 C 
HETATM   21  C1  UNL     1      20.318   3.516  51.958  1.00  0.00     0.005 C 
ENDBRANCH  19  20
ENDBRANCH  18  19
ENDBRANCH   1  18
BRANCH   2  22
HETATM   22  N1  UNL     1      20.739  -1.647  54.583  1.00  0.00    -0.397 N 
HETATM   23  H10 UNL     1      20.010  -1.339  55.268  1.00  0.00     0.156 HD
HETATM   24  H11 UNL     1      20.412  -2.429  53.945  1.00  0.00     0.156 HD
ENDBRANCH   2  22
TORSDOF 6
ENDMDL
MODEL 5
REMARK VINA RESULT:      -6.6      2.856      5.872
REMARK  6 active torsions:
REMARK  status: ('A' for Active; 'I' for Inactive)
REMARK    1  A    between atoms: C2_2  and  C3_3 
REMARK    2  A    between atoms: C3_3  and  C4_4 
REMARK    3  A    between atoms: C4_4  and  C5_5 
REMARK    4  A    between atoms: C6_6  and  N1_7 
REMARK    5  A    between atoms: C9_13  and  N5_14 
REMARK    6  A    between atoms: N5_14  and  C10_15 
ROOT
HETATM    1  C5  UNL     1      24.183  -0.245  53.852  1.00  0.00     0.002 A 
HETATM    2  C6  UNL     1      24.116  -1.011  55.017  1.00  0.00     0.052 A 
HETATM    3  C7  UNL     1      22.778  -1.345  55.229  1.00  0.00     0.148 A 
HETATM    4  N2  UNL     1      22.044  -0.797  54.220  1.00  0.00    -0.237 N 
HETATM    5  N3  UNL     1      20.768  -0.754  53.877  1.00  0.00    -0.161 NA
HETATM    6  C8  UNL     1      20.342  -0.091  52.769  1.00  0.00     0.258 A 
HETATM    7  N4  UNL     1      21.208   0.570  51.947  1.00  0.00    -0.220 NA
HETATM    8  C9  UNL     1      22.518   0.543  52.271  1.00  0.00     0.159 A 
HETATM    9  C15 UNL     1      22.884  -0.145  53.404  1.00  0.00     0.112 A 
ENDROOT
BRANCH   8  10
HETATM   10  N5  UNL     1      23.372   1.249  51.384  1.00  0.00    -0.339 N 
HETATM   11  H14 UNL     1      23.990   1.007  50.571  1.00  0.00     0.167 HD
BRANCH  10  12
HETATM   12  C10 UNL     1      23.536   2.675  51.515  1.00  0.00     0.033 A 
HETATM   13  C11 UNL     1      23.105   3.604  52.315  1.00  0.00     0.029 A 
HETATM   14  C12 UNL     1      23.430   5.059  52.238  1.00  0.00     0.204 A 
HETATM   15  O1  UNL     1      24.265   5.343  51.160  1.00  0.00    -0.359 OA
HETATM   16  C13 UNL     1      24.751   4.395  50.283  1.00  0.00     0.137 A 
HETATM   17  C14 UNL     1      24.431   3.098  50.408  1.00  0.00     0.053 A 
ENDBRANCH  10  12
ENDBRANCH   8  10
BRANCH   1  18
HETATM   18  C4  UNL     1      25.504   0.231  53.420  1.00  0.00     0.043 C 
BRANCH  18  19
HETATM   19  C3  UNL     1      26.142  -0.809  52.486  1.00  0.00     0.004 C 
BRANCH  19  20
HETATM   20  C2  UNL     1      27.472  -1.287  52.999  1.00  0.00    -0.004 C 
HETATM   21  C1  UNL     1      28.045  -0.184  53.868  1.00  0.00     0.005 C 
ENDBRANCH  19  20
ENDBRANCH  18  19
ENDBRANCH   1  18
BRANCH   2  22
HETATM   22  N1  UNL     1      25.124  -1.457  55.929  1.00  0.00    -0.397 N 
HETATM   23  H10 UNL     1      25.358  -1.104  56.887  1.00  0.00     0.156 HD
HETATM   24  H11 UNL     1      25.738  -2.263  55.617  1.00  0.00     0.156 HD
ENDBRANCH   2  22
TORSDOF 6
ENDMDL
MODEL 6
REMARK VINA RESULT:      -6.5      1.877      4.165
REMARK  6 active torsions:
REMARK  status: ('A' for Active; 'I' for Inactive)
REMARK    1  A    between atoms: C2_2  and  C3_3 
REMARK    2  A    between atoms: C3_3  and  C4_4 
REMARK    3  A    between atoms: C4_4  and  C5_5 
REMARK    4  A    between atoms: C6_6  and  N1_7 
REMARK    5  A    between atoms: C9_13  and  N5_14 
REMARK    6  A    between atoms: N5_14  and  C10_15 
ROOT
HETATM    1  C5  UNL     1      22.571   1.427  52.192  1.00  0.00     0.002 A 
HETATM    2  C6  UNL     1      21.234   1.819  52.287  1.00  0.00     0.052 A 
HETATM    3  C7  UNL     1      20.659   1.113  53.345  1.00  0.00     0.148 A 
HETATM    4  N2  UNL     1      21.619   0.310  53.883  1.00  0.00    -0.237 N 
HETATM    5  N3  UNL     1      21.691  -0.570  54.868  1.00  0.00    -0.161 NA
HETATM    6  C8  UNL     1      22.842  -1.234  55.158  1.00  0.00     0.258 A 
HETATM    7  N4  UNL     1      23.990  -1.030  54.447  1.00  0.00    -0.220 NA
HETATM    8  C9  UNL     1      23.947  -0.138  53.437  1.00  0.00     0.159 A 
HETATM    9  C15 UNL     1      22.753   0.500  53.195  1.00  0.00     0.112 A 
ENDROOT
BRANCH   8  10
HETATM   10  N5  UNL     1      25.167   0.031  52.731  1.00  0.00    -0.339 N 
HETATM   11  H14 UNL     1      25.450   0.228  51.740  1.00  0.00     0.167 HD
BRANCH  10  12
HETATM   12  C10 UNL     1      26.427  -0.068  53.424  1.00  0.00     0.033 A 
HETATM   13  C11 UNL     1      27.024   0.565  54.389  1.00  0.00     0.029 A 
HETATM   14  C12 UNL     1      28.375   0.258  54.946  1.00  0.00     0.204 A 
HETATM   15  O1  UNL     1      28.972  -0.814  54.285  1.00  0.00    -0.359 OA
HETATM   16  C13 UNL     1      28.381  -1.518  53.257  1.00  0.00     0.137 A 
HETATM   17  C14 UNL     1      27.158  -1.202  52.804  1.00  0.00     0.053 A 
ENDBRANCH  10  12
ENDBRANCH   8  10
BRANCH   1  18
HETATM   18  C4  UNL     1      23.390   2.039  51.138  1.00  0.00     0.043 C 
BRANCH  18  19
HETATM   19  C3  UNL     1      24.126   3.262  51.708  1.00  0.00     0.004 C 
BRANCH  19  20
HETATM   20  C2  UNL     1      25.024   3.905  50.687  1.00  0.00    -0.004 C 
HETATM   21  C1  UNL     1      26.126   2.915  50.365  1.00  0.00     0.005 C 
ENDBRANCH  19  20
ENDBRANCH  18  19
ENDBRANCH   1  18
BRANCH   2  22
HETATM   22  N1  UNL     1      20.452   2.747  51.530  1.00  0.00    -0.397 N 
HETATM   23  H10 UNL     1      20.569   3.064  50.539  1.00  0.00     0.156 HD
HETATM   24  H11 UNL     1      19.625   3.197  52.019  1.00  0.00     0.156 HD
ENDBRANCH   2  22
TORSDOF 6
ENDMDL
MODEL 7
REMARK VINA RESULT:      -6.2      3.143      6.435
REMARK  6 active torsions:
REMARK  status: ('A' for Active; 'I' for Inactive)
REMARK    1  A    between atoms: C2_2  and  C3_3 
REMARK    2  A    between atoms: C3_3  and  C4_4 
REMARK    3  A    between atoms: C4_4  and  C5_5 
REMARK    4  A    between atoms: C6_6  and  N1_7 
REMARK    5  A    between atoms: C9_13  and  N5_14 
REMARK    6  A    between atoms: N5_14  and  C10_15 
ROOT
HETATM    1  C5  UNL     1      25.821   1.839  52.926  1.00  0.00     0.002 A 
HETATM    2  C6  UNL     1      26.931   1.790  53.772  1.00  0.00     0.052 A 
HETATM    3  C7  UNL     1      26.743   0.731  54.660  1.00  0.00     0.148 A 
HETATM    4  N2  UNL     1      25.548   0.146  54.367  1.00  0.00    -0.237 N 
HETATM    5  N3  UNL     1      24.834  -0.863  54.837  1.00  0.00    -0.161 NA
HETATM    6  C8  UNL     1      23.628  -1.201  54.306  1.00  0.00     0.258 A 
HETATM    7  N4  UNL     1      23.086  -0.518  53.256  1.00  0.00    -0.220 NA
HETATM    8  C9  UNL     1      23.792   0.516  52.754  1.00  0.00     0.159 A 
HETATM    9  C15 UNL     1      25.004   0.808  53.336  1.00  0.00     0.112 A 
ENDROOT
BRANCH   8  10
HETATM   10  N5  UNL     1      23.180   1.193  51.666  1.00  0.00    -0.339 N 
HETATM   11  H14 UNL     1      23.428   1.409  50.670  1.00  0.00     0.167 HD
BRANCH  10  12
HETATM   12  C10 UNL     1      21.878   1.792  51.825  1.00  0.00     0.033 A 
HETATM   13  C11 UNL     1      20.644   1.390  51.774  1.00  0.00     0.029 A 
HETATM   14  C12 UNL     1      19.430   2.234  51.980  1.00  0.00     0.204 A 
HETATM   15  O1  UNL     1      19.764   3.565  52.225  1.00  0.00    -0.359 OA
HETATM   16  C13 UNL     1      21.057   4.041  52.290  1.00  0.00     0.137 A 
HETATM   17  C14 UNL     1      22.111   3.231  52.105  1.00  0.00     0.053 A 
ENDBRANCH  10  12
ENDBRANCH   8  10
BRANCH   1  18
HETATM   18  C4  UNL     1      25.790   2.885  51.896  1.00  0.00     0.043 C 
BRANCH  18  19
HETATM   19  C3  UNL     1      26.503   2.379  50.632  1.00  0.00     0.004 C 
BRANCH  19  20
HETATM   20  C2  UNL     1      26.525   3.417  49.544  1.00  0.00    -0.004 C 
HETATM   21  C1  UNL     1      25.135   4.018  49.464  1.00  0.00     0.005 C 
ENDBRANCH  19  20
ENDBRANCH  18  19
ENDBRANCH   1  18
BRANCH   2  22
HETATM   22  N1  UNL     1      28.114   2.592  53.846  1.00  0.00    -0.397 N 
HETATM   23  H10 UNL     1      28.661   2.895  54.686  1.00  0.00     0.156 HD
HETATM   24  H11 UNL     1      28.519   2.944  52.932  1.00  0.00     0.156 HD
ENDBRANCH   2  22
TORSDOF 6
ENDMDL
MODEL 8
REMARK VINA RESULT:      -6.1      3.150      5.777
REMARK  6 active torsions:
REMARK  status: ('A' for Active; 'I' for Inactive)
REMARK    1  A    between atoms: C2_2  and  C3_3 
REMARK    2  A    between atoms: C3_3  and  C4_4 
REMARK    3  A    between atoms: C4_4  and  C5_5 
REMARK    4  A    between atoms: C6_6  and  N1_7 
REMARK    5  A    between atoms: C9_13  and  N5_14 
REMARK    6  A    between atoms: N5_14  and  C10_15 
ROOT
HETATM    1  C5  UNL     1      23.896  -0.156  53.433  1.00  0.00     0.002 A 
HETATM    2  C6  UNL     1      24.952  -0.358  54.323  1.00  0.00     0.052 A 
HETATM    3  C7  UNL     1      25.954   0.561  54.008  1.00  0.00     0.148 A 
HETATM    4  N2  UNL     1      25.522   1.306  52.953  1.00  0.00    -0.237 N 
HETATM    5  N3  UNL     1      26.002   2.296  52.218  1.00  0.00    -0.161 NA
HETATM    6  C8  UNL     1      25.296   2.837  51.190  1.00  0.00     0.258 A 
HETATM    7  N4  UNL     1      24.051   2.388  50.856  1.00  0.00    -0.220 NA
HETATM    8  C9  UNL     1      23.534   1.380  51.588  1.00  0.00     0.159 A 
HETATM    9  C15 UNL     1      24.299   0.876  52.614  1.00  0.00     0.112 A 
ENDROOT
BRANCH   8  10
HETATM   10  N5  UNL     1      22.239   0.951  51.195  1.00  0.00    -0.339 N 
HETATM   11  H14 UNL     1      21.791   0.045  50.916  1.00  0.00     0.167 HD
BRANCH  10  12
HETATM   12  C10 UNL     1      21.156   1.900  51.109  1.00  0.00     0.033 A 
HETATM   13  C11 UNL     1      20.714   2.891  51.822  1.00  0.00     0.029 A 
HETATM   14  C12 UNL     1      19.532   3.749  51.508  1.00  0.00     0.204 A 
HETATM   15  O1  UNL     1      18.907   3.350  50.328  1.00  0.00    -0.359 OA
HETATM   16  C13 UNL     1      19.337   2.306  49.536  1.00  0.00     0.137 A 
HETATM   17  C14 UNL     1      20.413   1.576  49.865  1.00  0.00     0.053 A 
ENDBRANCH  10  12
ENDBRANCH   8  10
BRANCH   1  18
HETATM   18  C4  UNL     1      22.713  -1.017  53.567  1.00  0.00     0.043 C 
BRANCH  18  19
HETATM   19  C3  UNL     1      21.902  -0.583  54.799  1.00  0.00     0.004 C 
BRANCH  19  20
HETATM   20  C2  UNL     1      20.703   0.243  54.421  1.00  0.00    -0.004 C 
HETATM   21  C1  UNL     1      19.833  -0.609  53.518  1.00  0.00     0.005 C 
ENDBRANCH  19  20
ENDBRANCH  18  19
ENDBRANCH   1  18
BRANCH   2  22
HETATM   22  N1  UNL     1      25.132  -1.279  55.403  1.00  0.00    -0.397 N 
HETATM   23  H10 UNL     1      24.853  -2.286  55.472  1.00  0.00     0.156 HD
HETATM   24  H11 UNL     1      25.615  -0.917  56.274  1.00  0.00     0.156 HD
ENDBRANCH   2  22
TORSDOF 6
ENDMDL
MODEL 9
REMARK VINA RESULT:      -6.0      3.105      6.165
REMARK  6 active torsions:
REMARK  status: ('A' for Active; 'I' for Inactive)
REMARK    1  A    between atoms: C2_2  and  C3_3 
REMARK    2  A    between atoms: C3_3  and  C4_4 
REMARK    3  A    between atoms: C4_4  and  C5_5 
REMARK    4  A    between atoms: C6_6  and  N1_7 
REMARK    5  A    between atoms: C9_13  and  N5_14 
REMARK    6  A    between atoms: N5_14  and  C10_15 
ROOT
HETATM    1  C5  UNL     1      23.831   0.410  53.703  1.00  0.00     0.002 A 
HETATM    2  C6  UNL     1      24.338  -0.584  54.543  1.00  0.00     0.052 A 
HETATM    3  C7  UNL     1      23.275  -1.408  54.916  1.00  0.00     0.148 A 
HETATM    4  N2  UNL     1      22.147  -0.932  54.318  1.00  0.00    -0.237 N 
HETATM    5  N3  UNL     1      20.866  -1.262  54.288  1.00  0.00    -0.161 NA
HETATM    6  C8  UNL     1      19.956  -0.550  53.572  1.00  0.00     0.258 A 
HETATM    7  N4  UNL     1      20.312   0.549  52.844  1.00  0.00    -0.220 NA
HETATM    8  C9  UNL     1      21.611   0.910  52.855  1.00  0.00     0.159 A 
HETATM    9  C15 UNL     1      22.482   0.148  53.599  1.00  0.00     0.112 A 
ENDROOT
BRANCH   8  10
HETATM   10  N5  UNL     1      21.924   2.060  52.085  1.00  0.00    -0.339 N 
HETATM   11  H14 UNL     1      22.112   3.075  52.275  1.00  0.00     0.167 HD
BRANCH  10  12
HETATM   12  C10 UNL     1      22.046   1.962  50.651  1.00  0.00     0.033 A 
HETATM   13  C11 UNL     1      21.552   1.212  49.713  1.00  0.00     0.029 A 
HETATM   14  C12 UNL     1      21.844   1.314  48.253  1.00  0.00     0.204 A 
HETATM   15  O1  UNL     1      22.761   2.329  47.981  1.00  0.00    -0.359 OA
HETATM   16  C13 UNL     1      23.313   3.152  48.940  1.00  0.00     0.137 A 
HETATM   17  C14 UNL     1      23.004   3.019  50.239  1.00  0.00     0.053 A 
ENDBRANCH  10  12
ENDBRANCH   8  10
BRANCH   1  18
HETATM   18  C4  UNL     1      24.771   1.409  53.179  1.00  0.00     0.043 C 
BRANCH  18  19
HETATM   19  C3  UNL     1      25.464   0.850  51.926  1.00  0.00     0.004 C 
BRANCH  19  20
HETATM   20  C2  UNL     1      26.962   0.843  52.067  1.00  0.00    -0.004 C 
HETATM   21  C1  UNL     1      27.337   1.999  52.973  1.00  0.00     0.005 C 
ENDBRANCH  19  20
ENDBRANCH  18  19
ENDBRANCH   1  18
BRANCH   2  22
HETATM   22  N1  UNL     1      25.658  -0.848  55.026  1.00  0.00    -0.397 N 
HETATM   23  H10 UNL     1      26.377  -0.183  55.396  1.00  0.00     0.156 HD
HETATM   24  H11 UNL     1      25.984  -1.857  55.019  1.00  0.00     0.156 HD
ENDBRANCH   2  22
TORSDOF 6
ENDMDL
