MODEL 1
REMARK VINA RESULT:      -8.0      0.000      0.000
REMARK  6 active torsions:
REMARK  status: ('A' for Active; 'I' for Inactive)
REMARK    1  A    between atoms: C1_2  and  O1_4 
REMARK    2  A    between atoms: O1_4  and  C2_5 
REMARK    3  A    between atoms: C2_5  and  C3_6 
REMARK    4  A    between atoms: C4_7  and  N1_8 
REMARK    5  A    between atoms: N1_8  and  C5_9 
REMARK    6  A    between atoms: C8_13  and  C9_14 
ROOT
HETATM    1  C5  UNL     1      25.501   2.094  53.509  1.00  0.00     0.130 A 
HETATM    2  N2  UNL     1      24.618   2.991  53.207  1.00  0.00    -0.229 NA
HETATM    3  C6  UNL     1      23.404   2.356  52.846  1.00  0.00     0.090 A 
HETATM    4  C7  UNL     1      22.142   2.344  52.451  1.00  0.00     0.066 A 
HETATM    5  C8  UNL     1      21.622   0.990  52.328  1.00  0.00     0.070 A 
HETATM    6  N3  UNL     1      22.569   0.171  52.648  1.00  0.00    -0.246 NA
HETATM    7  C15 UNL     1      23.729   0.921  52.988  1.00  0.00     0.090 A 
HETATM    8  C16 UNL     1      24.977   0.735  53.384  1.00  0.00     0.084 A 
ENDROOT
BRANCH   1   9
HETATM    9  N1  UNL     1      26.846   2.393  53.920  1.00  0.00    -0.351 N 
HETATM   10  H6  UNL     1      26.988   2.741  54.897  1.00  0.00     0.166 HD
BRANCH   9  11
HETATM   11  C4  UNL     1      27.930   2.217  53.017  1.00  0.00     0.088 C 
HETATM   12  C3  UNL     1      28.745   1.242  53.390  1.00  0.00     0.016 C 
BRANCH  12  13
HETATM   13  C2  UNL     1      28.571   0.407  54.611  1.00  0.00     0.202 C 
BRANCH  13  14
HETATM   14  O1  UNL     1      28.389  -0.941  54.296  1.00  0.00    -0.329 OA
BRANCH  14  15
HETATM   15  C1  UNL     1      29.374  -1.408  53.431  1.00  0.00     0.500 C 
HETATM   16  F1  UNL     1      29.118  -2.759  53.218  1.00  0.00    -0.184 F 
HETATM   17  F2  UNL     1      30.586  -1.363  54.124  1.00  0.00    -0.184 F 
ENDBRANCH  14  15
ENDBRANCH  13  14
ENDBRANCH  12  13
ENDBRANCH   9  11
ENDBRANCH   1   9
BRANCH   5  18
HETATM   18  C9  UNL     1      20.288   0.560  51.922  1.00  0.00    -0.007 A 
HETATM   19  C10 UNL     1      19.844   0.945  50.668  1.00  0.00     0.015 A 
HETATM   20  C11 UNL     1      18.573   0.553  50.242  1.00  0.00     0.024 A 
HETATM   21  C12 UNL     1      17.797  -0.205  51.075  1.00  0.00     0.034 A 
HETATM   22 CL1  UNL     1      16.224  -0.636  50.434  1.00  0.00    -0.084 Cl
HETATM   23  C13 UNL     1      18.215  -0.608  52.342  1.00  0.00     0.024 A 
HETATM   24  C14 UNL     1      19.491  -0.204  52.749  1.00  0.00     0.015 A 
ENDBRANCH   5  18
TORSDOF 6
ENDMDL
MODEL 2
REMARK VINA RESULT:      -7.7      1.926      2.605
REMARK  6 active torsions:
REMARK  status: ('A' for Active; 'I' for Inactive)
REMARK    1  A    between atoms: C1_2  and  O1_4 
REMARK    2  A    between atoms: O1_4  and  C2_5 
REMARK    3  A    between atoms: C2_5  and  C3_6 
REMARK    4  A    between atoms: C4_7  and  N1_8 
REMARK    5  A    between atoms: N1_8  and  C5_9 
REMARK    6  A    between atoms: C8_13  and  C9_14 
ROOT
HETATM    1  C5  UNL     1      24.423  -0.785  54.483  1.00  0.00     0.130 A 
HETATM    2  N2  UNL     1      23.455  -1.265  55.196  1.00  0.00    -0.229 NA
HETATM    3  C6  UNL     1      22.227  -1.072  54.516  1.00  0.00     0.090 A 
HETATM    4  C7  UNL     1      20.914  -1.168  54.385  1.00  0.00     0.066 A 
HETATM    5  C8  UNL     1      20.448  -0.593  53.132  1.00  0.00     0.070 A 
HETATM    6  N3  UNL     1      21.478  -0.143  52.494  1.00  0.00    -0.246 NA
HETATM    7  C15 UNL     1      22.644  -0.392  53.272  1.00  0.00     0.090 A 
HETATM    8  C16 UNL     1      23.952  -0.207  53.225  1.00  0.00     0.084 A 
ENDROOT
BRANCH   1   9
HETATM    9  N1  UNL     1      25.806  -0.813  54.877  1.00  0.00    -0.351 N 
HETATM   10  H6  UNL     1      26.248  -1.749  55.025  1.00  0.00     0.166 HD
BRANCH   9  11
HETATM   11  C4  UNL     1      26.527   0.400  55.055  1.00  0.00     0.088 C 
HETATM   12  C3  UNL     1      27.428   0.595  54.106  1.00  0.00     0.016 C 
BRANCH  12  13
HETATM   13  C2  UNL     1      27.681  -0.333  52.968  1.00  0.00     0.202 C 
BRANCH  13  14
HETATM   14  O1  UNL     1      28.234  -1.542  53.397  1.00  0.00    -0.329 OA
BRANCH  14  15
HETATM   15  C1  UNL     1      29.553  -1.389  53.814  1.00  0.00     0.500 C 
HETATM   16  F1  UNL     1      30.233  -0.756  52.778  1.00  0.00    -0.184 F 
HETATM   17  F2  UNL     1      30.109  -2.667  53.902  1.00  0.00    -0.184 F 
ENDBRANCH  14  15
ENDBRANCH  13  14
ENDBRANCH  12  13
ENDBRANCH   9  11
ENDBRANCH   1   9
BRANCH   5  18
HETATM   18  C9  UNL     1      19.084  -0.502  52.623  1.00  0.00    -0.007 A 
HETATM   19  C10 UNL     1      18.107  -1.237  53.275  1.00  0.00     0.015 A 
HETATM   20  C11 UNL     1      16.788  -1.177  52.818  1.00  0.00     0.024 A 
HETATM   21  C12 UNL     1      16.493  -0.392  51.738  1.00  0.00     0.034 A 
HETATM   22 CL1  UNL     1      14.808  -0.396  51.257  1.00  0.00    -0.084 Cl
HETATM   23  C13 UNL     1      17.453   0.358  51.062  1.00  0.00     0.024 A 
HETATM   24  C14 UNL     1      18.767   0.284  51.534  1.00  0.00     0.015 A 
ENDBRANCH   5  18
TORSDOF 6
ENDMDL
MODEL 3
REMARK VINA RESULT:      -7.6      5.013      6.712
REMARK  6 active torsions:
REMARK  status: ('A' for Active; 'I' for Inactive)
REMARK    1  A    between atoms: C1_2  and  O1_4 
REMARK    2  A    between atoms: O1_4  and  C2_5 
REMARK    3  A    between atoms: C2_5  and  C3_6 
REMARK    4  A    between atoms: C4_7  and  N1_8 
REMARK    5  A    between atoms: N1_8  and  C5_9 
REMARK    6  A    between atoms: C8_13  and  C9_14 
ROOT
HETATM    1  C5  UNL     1      25.718   0.853  52.123  1.00  0.00     0.130 A 
HETATM    2  N2  UNL     1      24.682   1.611  51.957  1.00  0.00    -0.229 NA
HETATM    3  C6  UNL     1      25.028   2.709  51.131  1.00  0.00     0.090 A 
HETATM    4  C7  UNL     1      24.774   3.832  50.481  1.00  0.00     0.066 A 
HETATM    5  C8  UNL     1      25.947   4.334  49.780  1.00  0.00     0.070 A 
HETATM    6  N3  UNL     1      26.922   3.516  50.004  1.00  0.00    -0.246 NA
HETATM    7  C15 UNL     1      26.456   2.463  50.839  1.00  0.00     0.090 A 
HETATM    8  C16 UNL     1      26.895   1.359  51.419  1.00  0.00     0.084 A 
ENDROOT
BRANCH   1   9
HETATM    9  N1  UNL     1      25.718  -0.352  52.909  1.00  0.00    -0.351 N 
HETATM   10  H6  UNL     1      26.099  -1.219  52.465  1.00  0.00     0.166 HD
BRANCH   9  11
HETATM   11  C4  UNL     1      25.213  -0.343  54.238  1.00  0.00     0.088 C 
HETATM   12  C3  UNL     1      26.147  -0.051  55.131  1.00  0.00     0.016 C 
BRANCH  12  13
HETATM   13  C2  UNL     1      27.572   0.239  54.809  1.00  0.00     0.202 C 
BRANCH  13  14
HETATM   14  O1  UNL     1      28.217  -0.873  54.262  1.00  0.00    -0.329 OA
BRANCH  14  15
HETATM   15  C1  UNL     1      29.528  -0.583  53.896  1.00  0.00     0.500 C 
HETATM   16  F1  UNL     1      29.518   0.689  53.332  1.00  0.00    -0.184 F 
HETATM   17  F2  UNL     1      29.867  -1.451  52.855  1.00  0.00    -0.184 F 
ENDBRANCH  14  15
ENDBRANCH  13  14
ENDBRANCH  12  13
ENDBRANCH   9  11
ENDBRANCH   1   9
BRANCH   5  18
HETATM   18  C9  UNL     1      26.074   5.534  48.959  1.00  0.00    -0.007 A 
HETATM   19  C10 UNL     1      24.909   6.193  48.603  1.00  0.00     0.015 A 
HETATM   20  C11 UNL     1      24.988   7.345  47.818  1.00  0.00     0.024 A 
HETATM   21  C12 UNL     1      26.216   7.796  47.421  1.00  0.00     0.034 A 
HETATM   22 CL1  UNL     1      26.190   9.250  46.441  1.00  0.00    -0.084 Cl
HETATM   23  C13 UNL     1      27.405   7.156  47.763  1.00  0.00     0.024 A 
HETATM   24  C14 UNL     1      27.304   6.004  48.549  1.00  0.00     0.015 A 
ENDBRANCH   5  18
TORSDOF 6
ENDMDL
MODEL 4
REMARK VINA RESULT:      -7.4      3.931      4.477
REMARK  6 active torsions:
REMARK  status: ('A' for Active; 'I' for Inactive)
REMARK    1  A    between atoms: C1_2  and  O1_4 
REMARK    2  A    between atoms: O1_4  and  C2_5 
REMARK    3  A    between atoms: C2_5  and  C3_6 
REMARK    4  A    between atoms: C4_7  and  N1_8 
REMARK    5  A    between atoms: N1_8  and  C5_9 
REMARK    6  A    between atoms: C8_13  and  C9_14 
ROOT
HETATM    1  C5  UNL     1      26.946   2.162  53.126  1.00  0.00     0.130 A 
HETATM    2  N2  UNL     1      27.436   2.456  51.965  1.00  0.00    -0.229 NA
HETATM    3  C6  UNL     1      26.381   2.775  51.075  1.00  0.00     0.090 A 
HETATM    4  C7  UNL     1      25.884   3.136  49.903  1.00  0.00     0.066 A 
HETATM    5  C8  UNL     1      24.431   3.224  49.931  1.00  0.00     0.070 A 
HETATM    6  N3  UNL     1      24.038   2.915  51.122  1.00  0.00    -0.246 NA
HETATM    7  C15 UNL     1      25.178   2.616  51.919  1.00  0.00     0.090 A 
HETATM    8  C16 UNL     1      25.486   2.250  53.152  1.00  0.00     0.084 A 
ENDROOT
BRANCH   1   9
HETATM    9  N1  UNL     1      27.739   1.789  54.266  1.00  0.00    -0.351 N 
HETATM   10  H6  UNL     1      27.234   1.534  55.146  1.00  0.00     0.166 HD
BRANCH   9  11
HETATM   11  C4  UNL     1      29.159   1.776  54.180  1.00  0.00     0.088 C 
HETATM   12  C3  UNL     1      29.648   0.548  54.096  1.00  0.00     0.016 C 
BRANCH  12  13
HETATM   13  C2  UNL     1      28.829  -0.696  54.091  1.00  0.00     0.202 C 
BRANCH  13  14
HETATM   14  O1  UNL     1      28.432  -1.049  52.799  1.00  0.00    -0.329 OA
BRANCH  14  15
HETATM   15  C1  UNL     1      27.100  -1.452  52.759  1.00  0.00     0.500 C 
HETATM   16  F1  UNL     1      27.092  -2.780  52.343  1.00  0.00    -0.184 F 
HETATM   17  F2  UNL     1      26.483  -0.735  51.731  1.00  0.00    -0.184 F 
ENDBRANCH  14  15
ENDBRANCH  13  14
ENDBRANCH  12  13
ENDBRANCH   9  11
ENDBRANCH   1   9
BRANCH   5  18
HETATM   18  C9  UNL     1      23.520   3.586  48.851  1.00  0.00    -0.007 A 
HETATM   19  C10 UNL     1      23.462   4.919  48.481  1.00  0.00     0.015 A 
HETATM   20  C11 UNL     1      22.603   5.307  47.450  1.00  0.00     0.024 A 
HETATM   21  C12 UNL     1      21.838   4.357  46.830  1.00  0.00     0.034 A 
HETATM   22 CL1  UNL     1      20.799   4.960  45.553  1.00  0.00    -0.084 Cl
HETATM   23  C13 UNL     1      21.874   3.009  47.179  1.00  0.00     0.024 A 
HETATM   24  C14 UNL     1      22.741   2.642  48.213  1.00  0.00     0.015 A 
ENDBRANCH   5  18
TORSDOF 6
ENDMDL
MODEL 5
REMARK VINA RESULT:      -7.3      1.825      2.171
REMARK  6 active torsions:
REMARK  status: ('A' for Active; 'I' for Inactive)
REMARK    1  A    between atoms: C1_2  and  O1_4 
REMARK    2  A    between atoms: O1_4  and  C2_5 
REMARK    3  A    between atoms: C2_5  and  C3_6 
REMARK    4  A    between atoms: C4_7  and  N1_8 
REMARK    5  A    between atoms: N1_8  and  C5_9 
REMARK    6  A    between atoms: C8_13  and  C9_14 
ROOT
HETATM    1  C5  UNL     1      24.198   2.440  52.299  1.00  0.00     0.130 A 
HETATM    2  N2  UNL     1      23.110   3.142  52.311  1.00  0.00    -0.229 NA
HETATM    3  C6  UNL     1      21.989   2.275  52.327  1.00  0.00     0.090 A 
HETATM    4  C7  UNL     1      20.694   2.010  52.344  1.00  0.00     0.066 A 
HETATM    5  C8  UNL     1      20.430   0.578  52.351  1.00  0.00     0.070 A 
HETATM    6  N3  UNL     1      21.568  -0.034  52.338  1.00  0.00    -0.246 NA
HETATM    7  C15 UNL     1      22.611   0.934  52.322  1.00  0.00     0.090 A 
HETATM    8  C16 UNL     1      23.931   1.002  52.306  1.00  0.00     0.084 A 
ENDROOT
BRANCH   1   9
HETATM    9  N1  UNL     1      25.521   3.003  52.280  1.00  0.00    -0.351 N 
HETATM   10  H6  UNL     1      25.669   3.909  52.781  1.00  0.00     0.166 HD
BRANCH   9  11
HETATM   11  C4  UNL     1      26.576   2.337  51.598  1.00  0.00     0.088 C 
HETATM   12  C3  UNL     1      27.571   2.006  52.406  1.00  0.00     0.016 C 
BRANCH  12  13
HETATM   13  C2  UNL     1      27.609   2.287  53.869  1.00  0.00     0.202 C 
BRANCH  13  14
HETATM   14  O1  UNL     1      26.629   1.569  54.560  1.00  0.00    -0.329 OA
BRANCH  14  15
HETATM   15  C1  UNL     1      26.958   0.222  54.675  1.00  0.00     0.500 C 
HETATM   16  F1  UNL     1      26.114  -0.319  55.640  1.00  0.00    -0.184 F 
HETATM   17  F2  UNL     1      28.242   0.157  55.222  1.00  0.00    -0.184 F 
ENDBRANCH  14  15
ENDBRANCH  13  14
ENDBRANCH  12  13
ENDBRANCH   9  11
ENDBRANCH   1   9
BRANCH   5  18
HETATM   18  C9  UNL     1      19.145  -0.112  52.368  1.00  0.00    -0.007 A 
HETATM   19  C10 UNL     1      18.247   0.182  51.356  1.00  0.00     0.015 A 
HETATM   20  C11 UNL     1      17.005  -0.458  51.336  1.00  0.00     0.024 A 
HETATM   21  C12 UNL     1      16.707  -1.361  52.318  1.00  0.00     0.034 A 
HETATM   22 CL1  UNL     1      15.123  -2.100  52.190  1.00  0.00    -0.084 Cl
HETATM   23  C13 UNL     1      17.589  -1.678  53.349  1.00  0.00     0.024 A 
HETATM   24  C14 UNL     1      18.827  -1.026  53.351  1.00  0.00     0.015 A 
ENDBRANCH   5  18
TORSDOF 6
ENDMDL
MODEL 6
REMARK VINA RESULT:      -7.2      6.098      7.262
REMARK  6 active torsions:
REMARK  status: ('A' for Active; 'I' for Inactive)
REMARK    1  A    between atoms: C1_2  and  O1_4 
REMARK    2  A    between atoms: O1_4  and  C2_5 
REMARK    3  A    between atoms: C2_5  and  C3_6 
REMARK    4  A    between atoms: C4_7  and  N1_8 
REMARK    5  A    between atoms: N1_8  and  C5_9 
REMARK    6  A    between atoms: C8_13  and  C9_14 
ROOT
HETATM    1  C5  UNL     1      26.849   5.286  48.950  1.00  0.00     0.130 A 
HETATM    2  N2  UNL     1      27.440   4.166  49.215  1.00  0.00    -0.229 NA
HETATM    3  C6  UNL     1      26.599   3.370  50.031  1.00  0.00     0.090 A 
HETATM    4  C7  UNL     1      26.299   2.283  50.723  1.00  0.00     0.066 A 
HETATM    5  C8  UNL     1      24.980   2.373  51.334  1.00  0.00     0.070 A 
HETATM    6  N3  UNL     1      24.472   3.517  51.015  1.00  0.00    -0.246 NA
HETATM    7  C15 UNL     1      25.403   4.222  50.201  1.00  0.00     0.090 A 
HETATM    8  C16 UNL     1      25.525   5.374  49.564  1.00  0.00     0.084 A 
ENDROOT
BRANCH   1   9
HETATM    9  N1  UNL     1      27.422   6.330  48.144  1.00  0.00    -0.351 N 
HETATM   10  H6  UNL     1      26.782   7.081  47.798  1.00  0.00     0.166 HD
BRANCH   9  11
HETATM   11  C4  UNL     1      28.811   6.322  47.840  1.00  0.00     0.088 C 
HETATM   12  C3  UNL     1      29.343   7.534  47.875  1.00  0.00     0.016 C 
BRANCH  12  13
HETATM   13  C2  UNL     1      28.596   8.783  48.194  1.00  0.00     0.202 C 
BRANCH  13  14
HETATM   14  O1  UNL     1      28.516   9.002  49.572  1.00  0.00    -0.329 OA
BRANCH  14  15
HETATM   15  C1  UNL     1      27.224   9.331  49.969  1.00  0.00     0.500 C 
HETATM   16  F1  UNL     1      26.741   8.253  50.705  1.00  0.00    -0.184 F 
HETATM   17  F2  UNL     1      26.437   9.379  48.817  1.00  0.00    -0.184 F 
ENDBRANCH  14  15
ENDBRANCH  13  14
ENDBRANCH  12  13
ENDBRANCH   9  11
ENDBRANCH   1   9
BRANCH   5  18
HETATM   18  C9  UNL     1      24.293   1.391  52.167  1.00  0.00    -0.007 A 
HETATM   19  C10 UNL     1      22.909   1.435  52.198  1.00  0.00     0.015 A 
HETATM   20  C11 UNL     1      22.214   0.512  52.983  1.00  0.00     0.024 A 
HETATM   21  C12 UNL     1      22.918  -0.415  53.701  1.00  0.00     0.034 A 
HETATM   22 CL1  UNL     1      21.940  -1.519  54.647  1.00  0.00    -0.084 Cl
HETATM   23  C13 UNL     1      24.310  -0.484  53.689  1.00  0.00     0.024 A 
HETATM   24  C14 UNL     1      24.987   0.449  52.898  1.00  0.00     0.015 A 
ENDBRANCH   5  18
TORSDOF 6
ENDMDL
MODEL 7
REMARK VINA RESULT:      -7.1      5.701      6.810
REMARK  6 active torsions:
REMARK  status: ('A' for Active; 'I' for Inactive)
REMARK    1  A    between atoms: C1_2  and  O1_4 
REMARK    2  A    between atoms: O1_4  and  C2_5 
REMARK    3  A    between atoms: C2_5  and  C3_6 
REMARK    4  A    between atoms: C4_7  and  N1_8 
REMARK    5  A    between atoms: N1_8  and  C5_9 
REMARK    6  A    between atoms: C8_13  and  C9_14 
ROOT
HETATM    1  C5  UNL     1      27.160   5.705  48.699  1.00  0.00     0.130 A 
HETATM    2  N2  UNL     1      27.656   4.525  48.893  1.00  0.00    -0.229 NA
HETATM    3  C6  UNL     1      26.732   3.739  49.625  1.00  0.00     0.090 A 
HETATM    4  C7  UNL     1      26.328   2.632  50.225  1.00  0.00     0.066 A 
HETATM    5  C8  UNL     1      25.002   2.778  50.806  1.00  0.00     0.070 A 
HETATM    6  N3  UNL     1      24.593   3.980  50.562  1.00  0.00    -0.246 NA
HETATM    7  C15 UNL     1      25.599   4.667  49.828  1.00  0.00     0.090 A 
HETATM    8  C16 UNL     1      25.828   5.850  49.284  1.00  0.00     0.084 A 
ENDROOT
BRANCH   1   9
HETATM    9  N1  UNL     1      27.836   6.757  47.989  1.00  0.00    -0.351 N 
HETATM   10  H6  UNL     1      28.127   6.566  47.002  1.00  0.00     0.166 HD
BRANCH   9  11
HETATM   11  C4  UNL     1      28.091   8.003  48.624  1.00  0.00     0.088 C 
HETATM   12  C3  UNL     1      29.380   8.308  48.639  1.00  0.00     0.016 C 
BRANCH  12  13
HETATM   13  C2  UNL     1      30.462   7.461  48.064  1.00  0.00     0.202 C 
BRANCH  13  14
HETATM   14  O1  UNL     1      30.784   6.390  48.902  1.00  0.00    -0.329 OA
BRANCH  14  15
HETATM   15  C1  UNL     1      31.442   5.375  48.216  1.00  0.00     0.500 C 
HETATM   16  F1  UNL     1      32.226   5.987  47.243  1.00  0.00    -0.184 F 
HETATM   17  F2  UNL     1      30.471   4.654  47.515  1.00  0.00    -0.184 F 
ENDBRANCH  14  15
ENDBRANCH  13  14
ENDBRANCH  12  13
ENDBRANCH   9  11
ENDBRANCH   1   9
BRANCH   5  18
HETATM   18  C9  UNL     1      24.217   1.795  51.545  1.00  0.00    -0.007 A 
HETATM   19  C10 UNL     1      24.850   1.105  52.565  1.00  0.00     0.015 A 
HETATM   20  C11 UNL     1      24.132   0.156  53.296  1.00  0.00     0.024 A 
HETATM   21  C12 UNL     1      22.820  -0.068  52.987  1.00  0.00     0.034 A 
HETATM   22 CL1  UNL     1      22.023  -1.281  53.971  1.00  0.00    -0.084 Cl
HETATM   23  C13 UNL     1      22.155   0.609  51.967  1.00  0.00     0.024 A 
HETATM   24  C14 UNL     1      22.891   1.555  51.246  1.00  0.00     0.015 A 
ENDBRANCH   5  18
TORSDOF 6
ENDMDL
MODEL 8
REMARK VINA RESULT:      -6.9      6.515      9.124
REMARK  6 active torsions:
REMARK  status: ('A' for Active; 'I' for Inactive)
REMARK    1  A    between atoms: C1_2  and  O1_4 
REMARK    2  A    between atoms: O1_4  and  C2_5 
REMARK    3  A    between atoms: C2_5  and  C3_6 
REMARK    4  A    between atoms: C4_7  and  N1_8 
REMARK    5  A    between atoms: N1_8  and  C5_9 
REMARK    6  A    between atoms: C8_13  and  C9_14 
ROOT
HETATM    1  C5  UNL     1      24.941   3.205  50.283  1.00  0.00     0.130 A 
HETATM    2  N2  UNL     1      24.642   4.428  49.981  1.00  0.00    -0.229 NA
HETATM    3  C6  UNL     1      25.758   5.048  49.365  1.00  0.00     0.090 A 
HETATM    4  C7  UNL     1      26.388   6.062  48.795  1.00  0.00     0.066 A 
HETATM    5  C8  UNL     1      27.749   5.713  48.414  1.00  0.00     0.070 A 
HETATM    6  N3  UNL     1      27.952   4.483  48.753  1.00  0.00    -0.246 NA
HETATM    7  C15 UNL     1      26.770   3.971  49.358  1.00  0.00     0.090 A 
HETATM    8  C16 UNL     1      26.309   2.857  49.900  1.00  0.00     0.084 A 
ENDROOT
BRANCH   1   9
HETATM    9  N1  UNL     1      24.037   2.288  50.922  1.00  0.00    -0.351 N 
HETATM   10  H6  UNL     1      23.835   1.386  50.431  1.00  0.00     0.166 HD
BRANCH   9  11
HETATM   11  C4  UNL     1      23.448   2.614  52.174  1.00  0.00     0.088 C 
HETATM   12  C3  UNL     1      23.689   1.699  53.100  1.00  0.00     0.016 C 
BRANCH  12  13
HETATM   13  C2  UNL     1      24.484   0.457  52.883  1.00  0.00     0.202 C 
BRANCH  13  14
HETATM   14  O1  UNL     1      25.857   0.698  52.975  1.00  0.00    -0.329 OA
BRANCH  14  15
HETATM   15  C1  UNL     1      26.588  -0.157  52.157  1.00  0.00     0.500 C 
HETATM   16  F1  UNL     1      26.181  -1.453  52.460  1.00  0.00    -0.184 F 
HETATM   17  F2  UNL     1      27.922  -0.079  52.566  1.00  0.00    -0.184 F 
ENDBRANCH  14  15
ENDBRANCH  13  14
ENDBRANCH  12  13
ENDBRANCH   9  11
ENDBRANCH   1   9
BRANCH   5  18
HETATM   18  C9  UNL     1      28.756   6.547  47.767  1.00  0.00    -0.007 A 
HETATM   19  C10 UNL     1      30.084   6.192  47.933  1.00  0.00     0.015 A 
HETATM   20  C11 UNL     1      31.079   6.965  47.329  1.00  0.00     0.024 A 
HETATM   21  C12 UNL     1      30.716   8.054  46.586  1.00  0.00     0.034 A 
HETATM   22 CL1  UNL     1      32.048   8.946  45.878  1.00  0.00    -0.084 Cl
HETATM   23  C13 UNL     1      29.389   8.436  46.401  1.00  0.00     0.024 A 
HETATM   24  C14 UNL     1      28.408   7.650  47.014  1.00  0.00     0.015 A 
ENDBRANCH   5  18
TORSDOF 6
ENDMDL
MODEL 9
REMARK VINA RESULT:      -6.9      5.192      8.583
REMARK  6 active torsions:
REMARK  status: ('A' for Active; 'I' for Inactive)
REMARK    1  A    between atoms: C1_2  and  O1_4 
REMARK    2  A    between atoms: O1_4  and  C2_5 
REMARK    3  A    between atoms: C2_5  and  C3_6 
REMARK    4  A    between atoms: C4_7  and  N1_8 
REMARK    5  A    between atoms: N1_8  and  C5_9 
REMARK    6  A    between atoms: C8_13  and  C9_14 
ROOT
HETATM    1  C5  UNL     1      20.679   1.761  51.763  1.00  0.00     0.130 A 
HETATM    2  N2  UNL     1      21.665   2.374  51.192  1.00  0.00    -0.229 NA
HETATM    3  C6  UNL     1      22.888   1.791  51.608  1.00  0.00     0.090 A 
HETATM    4  C7  UNL     1      24.206   1.680  51.624  1.00  0.00     0.066 A 
HETATM    5  C8  UNL     1      24.652   0.604  52.497  1.00  0.00     0.070 A 
HETATM    6  N3  UNL     1      23.604   0.055  53.017  1.00  0.00    -0.246 NA
HETATM    7  C15 UNL     1      22.446   0.722  52.528  1.00  0.00     0.090 A 
HETATM    8  C16 UNL     1      21.129   0.680  52.640  1.00  0.00     0.084 A 
ENDROOT
BRANCH   1   9
HETATM    9  N1  UNL     1      19.295   2.098  51.563  1.00  0.00    -0.351 N 
HETATM   10  H6  UNL     1      18.784   2.540  52.362  1.00  0.00     0.166 HD
BRANCH   9  11
HETATM   11  C4  UNL     1      18.663   1.830  50.318  1.00  0.00     0.088 C 
HETATM   12  C3  UNL     1      17.696   0.932  50.425  1.00  0.00     0.016 C 
BRANCH  12  13
HETATM   13  C2  UNL     1      17.292   0.262  51.694  1.00  0.00     0.202 C 
BRANCH  13  14
HETATM   14  O1  UNL     1      18.046  -0.889  51.934  1.00  0.00    -0.329 OA
BRANCH  14  15
HETATM   15  C1  UNL     1      17.812  -1.405  53.205  1.00  0.00     0.500 C 
HETATM   16  F1  UNL     1      19.049  -1.765  53.729  1.00  0.00    -0.184 F 
HETATM   17  F2  UNL     1      17.113  -2.603  53.041  1.00  0.00    -0.184 F 
ENDBRANCH  14  15
ENDBRANCH  13  14
ENDBRANCH  12  13
ENDBRANCH   9  11
ENDBRANCH   1   9
BRANCH   5  18
HETATM   18  C9  UNL     1      26.015   0.168  52.783  1.00  0.00    -0.007 A 
HETATM   19  C10 UNL     1      26.932   1.137  53.157  1.00  0.00     0.015 A 
HETATM   20  C11 UNL     1      28.247   0.760  53.439  1.00  0.00     0.024 A 
HETATM   21  C12 UNL     1      28.596  -0.558  53.341  1.00  0.00     0.034 A 
HETATM   22 CL1  UNL     1      30.272  -0.911  53.719  1.00  0.00    -0.084 Cl
HETATM   23  C13 UNL     1      27.697  -1.555  52.968  1.00  0.00     0.024 A 
HETATM   24  C14 UNL     1      26.386  -1.157  52.689  1.00  0.00     0.015 A 
ENDBRANCH   5  18
TORSDOF 6
ENDMDL
