MODEL 1
REMARK VINA RESULT:      -7.2      0.000      0.000
REMARK  2 active torsions:
REMARK  status: ('A' for Active; 'I' for Inactive)
REMARK    1  A    between atoms: C2_2  and  C3_4 
REMARK    2  A    between atoms: C3_4  and  C4_6 
ROOT
HETATM    1  C4  UNL     1      22.549   1.817  51.605  1.00  0.00     0.076 C 
HETATM    2  C5  UNL     1      22.267   2.336  50.387  1.00  0.00     0.066 C 
HETATM    3  N1  UNL     1      21.497   1.314  49.659  1.00  0.00    -0.389 N 
HETATM    4  C6  UNL     1      21.850   1.267  48.226  1.00  0.00     0.123 C 
HETATM    5  C7  UNL     1      22.721   2.520  48.113  1.00  0.00     0.064 C 
HETATM    6  C8  UNL     1      22.261   3.298  49.315  1.00  0.00     0.122 C 
HETATM    7  N2  UNL     1      20.830   3.679  48.992  1.00  0.00    -0.279 NA
HETATM    8  C9  UNL     1      20.430   4.221  50.127  1.00  0.00     0.120 C 
HETATM    9  C10 UNL     1      21.752   4.780  50.329  1.00  0.00    -0.032 C 
HETATM   10  C11 UNL     1      22.796   4.632  49.475  1.00  0.00    -0.033 C 
HETATM   11  C12 UNL     1      23.904   5.546  48.993  1.00  0.00     0.067 C 
HETATM   12  C13 UNL     1      24.975   5.686  50.070  1.00  0.00     0.010 C 
HETATM   13  C14 UNL     1      25.007   4.527  50.775  1.00  0.00     0.068 A 
HETATM   14  N3  UNL     1      26.025   3.903  50.156  1.00  0.00    -0.241 NA
HETATM   15  C15 UNL     1      26.256   2.585  50.457  1.00  0.00     0.235 A 
HETATM   16  N4  UNL     1      25.410   2.017  51.373  1.00  0.00    -0.224 NA
HETATM   17  C16 UNL     1      24.439   2.755  51.909  1.00  0.00     0.141 A 
HETATM   18  C17 UNL     1      24.081   4.066  51.732  1.00  0.00     0.035 A 
HETATM   19  C18 UNL     1      23.153   4.815  52.317  1.00  0.00    -0.005 C 
HETATM   20  C19 UNL     1      21.965   5.507  51.656  1.00  0.00     0.068 C 
HETATM   21  N5  UNL     1      23.325   2.349  52.696  1.00  0.00    -0.339 N 
HETATM   22  H4  UNL     1      20.741   0.544  49.788  1.00  0.00     0.159 HD
HETATM   23  H17 UNL     1      23.326   2.515  53.708  1.00  0.00     0.167 HD
ENDROOT
BRANCH   1  24
HETATM   24  C3  UNL     1      22.305   0.576  52.362  1.00  0.00     0.265 C 
HETATM   25  F1  UNL     1      21.867  -0.408  51.502  1.00  0.00    -0.237 F 
BRANCH  24  26
HETATM   26  C2  UNL     1      21.166   0.798  53.308  1.00  0.00     0.042 C 
HETATM   27  C1  UNL     1      20.158   1.577  52.938  1.00  0.00     0.035 C 
HETATM   28 CL1  UNL     1      21.544  -0.129  54.764  1.00  0.00    -0.086 Cl
ENDBRANCH  24  26
ENDBRANCH   1  24
TORSDOF 2
ENDMDL
MODEL 2
REMARK VINA RESULT:      -7.1      2.085      4.511
REMARK  2 active torsions:
REMARK  status: ('A' for Active; 'I' for Inactive)
REMARK    1  A    between atoms: C2_2  and  C3_4 
REMARK    2  A    between atoms: C3_4  and  C4_6 
ROOT
HETATM    1  C4  UNL     1      23.792   2.361  51.590  1.00  0.00     0.076 C 
HETATM    2  C5  UNL     1      23.342   3.572  51.186  1.00  0.00     0.066 C 
HETATM    3  N1  UNL     1      24.197   4.580  51.835  1.00  0.00    -0.389 N 
HETATM    4  C6  UNL     1      23.434   5.774  52.251  1.00  0.00     0.123 C 
HETATM    5  C7  UNL     1      22.092   5.496  51.570  1.00  0.00     0.064 C 
HETATM    6  C8  UNL     1      22.509   4.526  50.499  1.00  0.00     0.122 C 
HETATM    7  N2  UNL     1      23.362   5.350  49.557  1.00  0.00    -0.279 NA
HETATM    8  C9  UNL     1      23.822   4.429  48.730  1.00  0.00     0.120 C 
HETATM    9  C10 UNL     1      22.561   3.719  48.817  1.00  0.00    -0.032 C 
HETATM   10  C11 UNL     1      21.494   4.120  49.553  1.00  0.00    -0.033 C 
HETATM   11  C12 UNL     1      19.995   4.108  49.334  1.00  0.00     0.067 C 
HETATM   12  C13 UNL     1      19.444   2.701  49.543  1.00  0.00     0.010 C 
HETATM   13  C14 UNL     1      20.223   2.085  50.469  1.00  0.00     0.068 A 
HETATM   14  N3  UNL     1      19.488   2.299  51.574  1.00  0.00    -0.241 NA
HETATM   15  C15 UNL     1      20.042   1.990  52.790  1.00  0.00     0.235 A 
HETATM   16  N4  UNL     1      21.316   1.486  52.764  1.00  0.00    -0.224 NA
HETATM   17  C16 UNL     1      21.929   1.327  51.592  1.00  0.00     0.141 A 
HETATM   18  C17 UNL     1      21.525   1.570  50.305  1.00  0.00     0.035 A 
HETATM   19  C18 UNL     1      22.115   1.349  49.137  1.00  0.00    -0.005 C 
HETATM   20  C19 UNL     1      22.505   2.380  48.082  1.00  0.00     0.068 C 
HETATM   21  N5  UNL     1      23.295   1.037  51.319  1.00  0.00    -0.339 N 
HETATM   22  H4  UNL     1      25.221   4.779  52.143  1.00  0.00     0.159 HD
HETATM   23  H17 UNL     1      23.570   0.094  51.025  1.00  0.00     0.167 HD
ENDROOT
BRANCH   1  24
HETATM   24  C3  UNL     1      24.851   1.807  52.453  1.00  0.00     0.265 C 
HETATM   25  F1  UNL     1      25.246   2.760  53.367  1.00  0.00    -0.237 F 
BRANCH  24  26
HETATM   26  C2  UNL     1      26.067   1.539  51.622  1.00  0.00     0.042 C 
HETATM   27  C1  UNL     1      26.538   2.498  50.834  1.00  0.00     0.035 C 
HETATM   28 CL1  UNL     1      26.552  -0.123  51.972  1.00  0.00    -0.086 Cl
ENDBRANCH  24  26
ENDBRANCH   1  24
TORSDOF 2
ENDMDL
MODEL 3
REMARK VINA RESULT:      -7.1      2.874      5.276
REMARK  2 active torsions:
REMARK  status: ('A' for Active; 'I' for Inactive)
REMARK    1  A    between atoms: C2_2  and  C3_4 
REMARK    2  A    between atoms: C3_4  and  C4_6 
ROOT
HETATM    1  C4  UNL     1      23.755   5.070  49.732  1.00  0.00     0.076 C 
HETATM    2  C5  UNL     1      24.212   4.081  50.536  1.00  0.00     0.066 C 
HETATM    3  N1  UNL     1      25.656   4.307  50.709  1.00  0.00    -0.389 N 
HETATM    4  C6  UNL     1      26.418   3.043  50.738  1.00  0.00     0.123 C 
HETATM    5  C7  UNL     1      25.273   2.030  50.817  1.00  0.00     0.064 C 
HETATM    6  C8  UNL     1      24.164   2.894  51.350  1.00  0.00     0.122 C 
HETATM    7  N2  UNL     1      24.598   3.235  52.761  1.00  0.00    -0.279 NA
HETATM    8  C9  UNL     1      23.676   4.107  53.126  1.00  0.00     0.120 C 
HETATM    9  C10 UNL     1      22.679   3.369  52.376  1.00  0.00    -0.032 C 
HETATM   10  C11 UNL     1      22.919   2.233  51.674  1.00  0.00    -0.033 C 
HETATM   11  C12 UNL     1      22.153   0.944  51.456  1.00  0.00     0.067 C 
HETATM   12  C13 UNL     1      21.024   1.167  50.454  1.00  0.00     0.010 C 
HETATM   13  C14 UNL     1      21.423   2.135  49.590  1.00  0.00     0.068 A 
HETATM   14  N3  UNL     1      21.874   1.375  48.577  1.00  0.00    -0.241 NA
HETATM   15  C15 UNL     1      22.557   1.989  47.559  1.00  0.00     0.235 A 
HETATM   16  N4  UNL     1      22.722   3.345  47.675  1.00  0.00    -0.224 NA
HETATM   17  C16 UNL     1      22.222   3.974  48.737  1.00  0.00     0.141 A 
HETATM   18  C17 UNL     1      21.516   3.522  49.821  1.00  0.00     0.035 A 
HETATM   19  C18 UNL     1      20.964   4.163  50.845  1.00  0.00    -0.005 C 
HETATM   20  C19 UNL     1      21.288   4.001  52.326  1.00  0.00     0.068 C 
HETATM   21  N5  UNL     1      22.444   5.306  49.186  1.00  0.00    -0.339 N 
HETATM   22  H4  UNL     1      26.403   5.089  50.819  1.00  0.00     0.159 HD
HETATM   23  H17 UNL     1      21.721   6.020  49.047  1.00  0.00     0.167 HD
ENDROOT
BRANCH   1  24
HETATM   24  C3  UNL     1      24.282   6.250  49.024  1.00  0.00     0.265 C 
HETATM   25  F1  UNL     1      25.441   5.909  48.360  1.00  0.00    -0.237 F 
BRANCH  24  26
HETATM   26  C2  UNL     1      24.700   7.277  50.030  1.00  0.00     0.042 C 
HETATM   27  C1  UNL     1      23.801   7.749  50.885  1.00  0.00     0.035 C 
HETATM   28 CL1  UNL     1      26.418   7.578  49.749  1.00  0.00    -0.086 Cl
ENDBRANCH  24  26
ENDBRANCH   1  24
TORSDOF 2
ENDMDL
MODEL 4
REMARK VINA RESULT:      -7.0      8.969     11.684
REMARK  2 active torsions:
REMARK  status: ('A' for Active; 'I' for Inactive)
REMARK    1  A    between atoms: C2_2  and  C3_4 
REMARK    2  A    between atoms: C3_4  and  C4_6 
ROOT
HETATM    1  C4  UNL     1      33.075   5.361  46.477  1.00  0.00     0.076 C 
HETATM    2  C5  UNL     1      32.169   5.962  47.283  1.00  0.00     0.066 C 
HETATM    3  N1  UNL     1      31.240   4.912  47.734  1.00  0.00    -0.389 N 
HETATM    4  C6  UNL     1      29.849   5.398  47.820  1.00  0.00     0.123 C 
HETATM    5  C7  UNL     1      30.067   6.899  47.618  1.00  0.00     0.064 C 
HETATM    6  C8  UNL     1      31.516   7.031  47.994  1.00  0.00     0.122 C 
HETATM    7  N2  UNL     1      31.548   6.739  49.480  1.00  0.00    -0.279 NA
HETATM    8  C9  UNL     1      32.845   6.719  49.726  1.00  0.00     0.120 C 
HETATM    9  C10 UNL     1      33.047   7.778  48.757  1.00  0.00    -0.032 C 
HETATM   10  C11 UNL     1      32.061   8.370  48.038  1.00  0.00    -0.033 C 
HETATM   11  C12 UNL     1      31.784   9.793  47.596  1.00  0.00     0.067 C 
HETATM   12  C13 UNL     1      32.683  10.163  46.421  1.00  0.00     0.010 C 
HETATM   13  C14 UNL     1      32.923   9.031  45.711  1.00  0.00     0.068 A 
HETATM   14  N3  UNL     1      31.990   9.152  44.751  1.00  0.00    -0.241 NA
HETATM   15  C15 UNL     1      31.772   8.083  43.920  1.00  0.00     0.235 A 
HETATM   16  N4  UNL     1      32.536   6.971  44.154  1.00  0.00    -0.224 NA
HETATM   17  C16 UNL     1      33.426   6.987  45.145  1.00  0.00     0.141 A 
HETATM   18  C17 UNL     1      33.774   7.958  46.047  1.00  0.00     0.035 A 
HETATM   19  C18 UNL     1      34.707   7.993  46.992  1.00  0.00    -0.005 C 
HETATM   20  C19 UNL     1      34.503   8.163  48.494  1.00  0.00     0.068 C 
HETATM   21  N5  UNL     1      34.165   5.913  45.714  1.00  0.00    -0.339 N 
HETATM   22  H4  UNL     1      31.193   3.868  48.032  1.00  0.00     0.159 HD
HETATM   23  H17 UNL     1      35.160   5.802  45.493  1.00  0.00     0.167 HD
ENDROOT
BRANCH   1  24
HETATM   24  C3  UNL     1      33.371   4.014  45.958  1.00  0.00     0.265 C 
HETATM   25  F1  UNL     1      32.214   3.444  45.471  1.00  0.00    -0.237 F 
BRANCH  24  26
HETATM   26  C2  UNL     1      33.787   3.134  47.095  1.00  0.00     0.042 C 
HETATM   27  C1  UNL     1      34.805   3.504  47.862  1.00  0.00     0.035 C 
HETATM   28 CL1  UNL     1      32.700   1.742  47.070  1.00  0.00    -0.086 Cl
ENDBRANCH  24  26
ENDBRANCH   1  24
TORSDOF 2
ENDMDL
MODEL 5
REMARK VINA RESULT:      -6.9      1.770      2.101
REMARK  2 active torsions:
REMARK  status: ('A' for Active; 'I' for Inactive)
REMARK    1  A    between atoms: C2_2  and  C3_4 
REMARK    2  A    between atoms: C3_4  and  C4_6 
ROOT
HETATM    1  C4  UNL     1      23.339   3.316  51.730  1.00  0.00     0.076 C 
HETATM    2  C5  UNL     1      22.699   3.325  50.537  1.00  0.00     0.066 C 
HETATM    3  N1  UNL     1      21.982   2.044  50.430  1.00  0.00    -0.389 N 
HETATM    4  C6  UNL     1      22.003   1.506  49.056  1.00  0.00     0.123 C 
HETATM    5  C7  UNL     1      22.585   2.702  48.299  1.00  0.00     0.064 C 
HETATM    6  C8  UNL     1      22.276   3.822  49.253  1.00  0.00     0.122 C 
HETATM    7  N2  UNL     1      20.765   3.931  49.230  1.00  0.00    -0.279 NA
HETATM    8  C9  UNL     1      20.541   4.814  50.186  1.00  0.00     0.120 C 
HETATM    9  C10 UNL     1      21.751   5.522  49.818  1.00  0.00    -0.032 C 
HETATM   10  C11 UNL     1      22.583   5.164  48.808  1.00  0.00    -0.033 C 
HETATM   11  C12 UNL     1      23.370   5.931  47.764  1.00  0.00     0.067 C 
HETATM   12  C13 UNL     1      24.613   6.551  48.394  1.00  0.00     0.010 C 
HETATM   13  C14 UNL     1      25.014   5.738  49.405  1.00  0.00     0.068 A 
HETATM   14  N3  UNL     1      25.960   5.023  48.772  1.00  0.00    -0.241 NA
HETATM   15  C15 UNL     1      26.487   3.933  49.416  1.00  0.00     0.235 A 
HETATM   16  N4  UNL     1      25.988   3.668  50.664  1.00  0.00    -0.224 NA
HETATM   17  C16 UNL     1      25.047   4.462  51.172  1.00  0.00     0.141 A 
HETATM   18  C17 UNL     1      24.427   5.580  50.677  1.00  0.00     0.035 A 
HETATM   19  C18 UNL     1      23.536   6.406  51.214  1.00  0.00    -0.005 C 
HETATM   20  C19 UNL     1      22.125   6.701  50.716  1.00  0.00     0.068 C 
HETATM   21  N5  UNL     1      24.233   4.277  52.323  1.00  0.00    -0.339 N 
HETATM   22  H4  UNL     1      21.427   1.311  51.011  1.00  0.00     0.159 HD
HETATM   23  H17 UNL     1      24.433   4.801  53.182  1.00  0.00     0.167 HD
ENDROOT
BRANCH   1  24
HETATM   24  C3  UNL     1      23.501   2.422  52.891  1.00  0.00     0.265 C 
HETATM   25  F1  UNL     1      24.521   2.888  53.691  1.00  0.00    -0.237 F 
BRANCH  24  26
HETATM   26  C2  UNL     1      23.965   1.081  52.412  1.00  0.00     0.042 C 
HETATM   27  C1  UNL     1      25.207   0.948  51.965  1.00  0.00     0.035 C 
HETATM   28 CL1  UNL     1      22.595  -0.016  52.606  1.00  0.00    -0.086 Cl
ENDBRANCH  24  26
ENDBRANCH   1  24
TORSDOF 2
ENDMDL
MODEL 6
REMARK VINA RESULT:      -6.8      8.440     10.876
REMARK  2 active torsions:
REMARK  status: ('A' for Active; 'I' for Inactive)
REMARK    1  A    between atoms: C2_2  and  C3_4 
REMARK    2  A    between atoms: C3_4  and  C4_6 
ROOT
HETATM    1  C4  UNL     1      31.968   7.342  48.291  1.00  0.00     0.076 C 
HETATM    2  C5  UNL     1      30.642   7.593  48.189  1.00  0.00     0.066 C 
HETATM    3  N1  UNL     1      29.949   6.515  48.914  1.00  0.00    -0.389 N 
HETATM    4  C6  UNL     1      28.701   6.104  48.242  1.00  0.00     0.123 C 
HETATM    5  C7  UNL     1      28.581   7.203  47.183  1.00  0.00     0.064 C 
HETATM    6  C8  UNL     1      29.440   8.278  47.788  1.00  0.00     0.122 C 
HETATM    7  N2  UNL     1      28.678   8.718  49.021  1.00  0.00    -0.279 NA
HETATM    8  C9  UNL     1      29.537   9.545  49.591  1.00  0.00     0.120 C 
HETATM    9  C10 UNL     1      29.970   9.998  48.284  1.00  0.00    -0.032 C 
HETATM   10  C11 UNL     1      29.472   9.551  47.103  1.00  0.00    -0.033 C 
HETATM   11  C12 UNL     1      29.134  10.212  45.782  1.00  0.00     0.067 C 
HETATM   12  C13 UNL     1      30.409  10.487  44.990  1.00  0.00     0.010 C 
HETATM   13  C14 UNL     1      31.310   9.524  45.310  1.00  0.00     0.068 A 
HETATM   14  N3  UNL     1      31.120   8.674  44.286  1.00  0.00    -0.241 NA
HETATM   15  C15 UNL     1      31.723   7.443  44.344  1.00  0.00     0.235 A 
HETATM   16  N4  UNL     1      32.473   7.190  45.462  1.00  0.00    -0.224 NA
HETATM   17  C16 UNL     1      32.575   8.127  46.405  1.00  0.00     0.141 A 
HETATM   18  C17 UNL     1      32.056   9.392  46.499  1.00  0.00     0.035 A 
HETATM   19  C18 UNL     1      32.213  10.345  47.410  1.00  0.00    -0.005 C 
HETATM   20  C19 UNL     1      31.137  10.985  48.281  1.00  0.00     0.068 C 
HETATM   21  N5  UNL     1      33.100   8.029  47.723  1.00  0.00    -0.339 N 
HETATM   22  H4  UNL     1      30.020   5.877  49.791  1.00  0.00     0.159 HD
HETATM   23  H17 UNL     1      34.023   8.421  47.937  1.00  0.00     0.167 HD
ENDROOT
BRANCH   1  24
HETATM   24  C3  UNL     1      32.860   6.340  48.901  1.00  0.00     0.265 C 
HETATM   25  F1  UNL     1      34.119   6.878  49.057  1.00  0.00    -0.237 F 
BRANCH  24  26
HETATM   26  C2  UNL     1      33.041   5.202  47.944  1.00  0.00     0.042 C 
HETATM   27  C1  UNL     1      32.004   4.425  47.657  1.00  0.00     0.035 C 
HETATM   28 CL1  UNL     1      34.734   5.241  47.442  1.00  0.00    -0.086 Cl
ENDBRANCH  24  26
ENDBRANCH   1  24
TORSDOF 2
ENDMDL
MODEL 7
REMARK VINA RESULT:      -6.6     10.191     12.143
REMARK  2 active torsions:
REMARK  status: ('A' for Active; 'I' for Inactive)
REMARK    1  A    between atoms: C2_2  and  C3_4 
REMARK    2  A    between atoms: C3_4  and  C4_6 
ROOT
HETATM    1  C4  UNL     1      32.461   6.533  47.250  1.00  0.00     0.076 C 
HETATM    2  C5  UNL     1      33.290   7.556  46.937  1.00  0.00     0.066 C 
HETATM    3  N1  UNL     1      34.650   7.129  47.309  1.00  0.00    -0.389 N 
HETATM    4  C6  UNL     1      35.448   8.237  47.869  1.00  0.00     0.123 C 
HETATM    5  C7  UNL     1      34.527   9.422  47.569  1.00  0.00     0.064 C 
HETATM    6  C8  UNL     1      33.685   8.857  46.460  1.00  0.00     0.122 C 
HETATM    7  N2  UNL     1      34.648   8.695  45.301  1.00  0.00    -0.279 NA
HETATM    8  C9  UNL     1      33.902   8.062  44.414  1.00  0.00     0.120 C 
HETATM    9  C10 UNL     1      32.742   8.814  44.849  1.00  0.00    -0.032 C 
HETATM   10  C11 UNL     1      32.750   9.758  45.824  1.00  0.00    -0.033 C 
HETATM   11  C12 UNL     1      32.066  11.099  46.001  1.00  0.00     0.067 C 
HETATM   12  C13 UNL     1      30.606  10.895  46.393  1.00  0.00     0.010 C 
HETATM   13  C14 UNL     1      30.524   9.742  47.104  1.00  0.00     0.068 A 
HETATM   14  N3  UNL     1      30.562  10.234  48.355  1.00  0.00    -0.241 NA
HETATM   15  C15 UNL     1      30.699   9.350  49.395  1.00  0.00     0.235 A 
HETATM   16  N4  UNL     1      30.792   8.026  49.055  1.00  0.00    -0.224 NA
HETATM   17  C16 UNL     1      30.741   7.678  47.769  1.00  0.00     0.141 A 
HETATM   18  C17 UNL     1      30.598   8.419  46.625  1.00  0.00     0.035 A 
HETATM   19  C18 UNL     1      30.484   8.062  45.351  1.00  0.00    -0.005 C 
HETATM   20  C19 UNL     1      31.417   8.419  44.198  1.00  0.00     0.068 C 
HETATM   21  N5  UNL     1      31.028   6.425  47.161  1.00  0.00    -0.339 N 
HETATM   22  H4  UNL     1      35.310   6.266  47.333  1.00  0.00     0.159 HD
HETATM   23  H17 UNL     1      30.261   5.826  46.836  1.00  0.00     0.167 HD
ENDROOT
BRANCH   1  24
HETATM   24  C3  UNL     1      32.545   5.178  47.826  1.00  0.00     0.265 C 
HETATM   25  F1  UNL     1      33.285   5.218  48.988  1.00  0.00    -0.237 F 
BRANCH  24  26
HETATM   26  C2  UNL     1      33.327   4.301  46.898  1.00  0.00     0.042 C 
HETATM   27  C1  UNL     1      32.913   4.150  45.646  1.00  0.00     0.035 C 
HETATM   28 CL1  UNL     1      34.688   3.676  47.835  1.00  0.00    -0.086 Cl
ENDBRANCH  24  26
ENDBRANCH   1  24
TORSDOF 2
ENDMDL
MODEL 8
REMARK VINA RESULT:      -6.6      2.607      4.730
REMARK  2 active torsions:
REMARK  status: ('A' for Active; 'I' for Inactive)
REMARK    1  A    between atoms: C2_2  and  C3_4 
REMARK    2  A    between atoms: C3_4  and  C4_6 
ROOT
HETATM    1  C4  UNL     1      22.811   3.691  50.610  1.00  0.00     0.076 C 
HETATM    2  C5  UNL     1      22.141   2.871  49.767  1.00  0.00     0.066 C 
HETATM    3  N1  UNL     1      23.096   2.460  48.725  1.00  0.00    -0.389 N 
HETATM    4  C6  UNL     1      22.465   2.368  47.394  1.00  0.00     0.123 C 
HETATM    5  C7  UNL     1      20.990   2.519  47.776  1.00  0.00     0.064 C 
HETATM    6  C8  UNL     1      21.029   2.130  49.228  1.00  0.00     0.122 C 
HETATM    7  N2  UNL     1      21.370   0.654  49.213  1.00  0.00    -0.279 NA
HETATM    8  C9  UNL     1      21.539   0.401  50.498  1.00  0.00     0.120 C 
HETATM    9  C10 UNL     1      20.478   1.333  50.823  1.00  0.00    -0.032 C 
HETATM   10  C11 UNL     1      19.760   2.039  49.914  1.00  0.00    -0.033 C 
HETATM   11  C12 UNL     1      18.302   2.436  49.798  1.00  0.00     0.067 C 
HETATM   12  C13 UNL     1      17.996   3.593  50.744  1.00  0.00     0.010 C 
HETATM   13  C14 UNL     1      19.124   4.338  50.866  1.00  0.00     0.068 A 
HETATM   14  N3  UNL     1      18.871   5.300  49.962  1.00  0.00    -0.241 NA
HETATM   15  C15 UNL     1      19.883   6.166  49.636  1.00  0.00     0.235 A 
HETATM   16  N4  UNL     1      21.080   5.964  50.272  1.00  0.00    -0.224 NA
HETATM   17  C16 UNL     1      21.191   4.967  51.149  1.00  0.00     0.141 A 
HETATM   18  C17 UNL     1      20.293   4.031  51.592  1.00  0.00     0.035 A 
HETATM   19  C18 UNL     1      20.391   3.080  52.513  1.00  0.00    -0.005 C 
HETATM   20  C19 UNL     1      20.246   1.575  52.314  1.00  0.00     0.068 C 
HETATM   21  N5  UNL     1      22.357   4.428  51.761  1.00  0.00    -0.339 N 
HETATM   22  H4  UNL     1      24.138   2.196  48.561  1.00  0.00     0.159 HD
HETATM   23  H17 UNL     1      22.569   4.647  52.740  1.00  0.00     0.167 HD
ENDROOT
BRANCH   1  24
HETATM   24  C3  UNL     1      24.165   4.251  50.763  1.00  0.00     0.265 C 
HETATM   25  F1  UNL     1      24.554   4.844  49.580  1.00  0.00    -0.237 F 
BRANCH  24  26
HETATM   26  C2  UNL     1      25.136   3.131  50.971  1.00  0.00     0.042 C 
HETATM   27  C1  UNL     1      24.924   2.265  51.955  1.00  0.00     0.035 C 
HETATM   28 CL1  UNL     1      26.383   3.317  49.735  1.00  0.00    -0.086 Cl
ENDBRANCH  24  26
ENDBRANCH   1  24
TORSDOF 2
ENDMDL
MODEL 9
REMARK VINA RESULT:      -6.5      8.374      9.847
REMARK  2 active torsions:
REMARK  status: ('A' for Active; 'I' for Inactive)
REMARK    1  A    between atoms: C2_2  and  C3_4 
REMARK    2  A    between atoms: C3_4  and  C4_6 
ROOT
HETATM    1  C4  UNL     1      29.679   8.244  48.178  1.00  0.00     0.076 C 
HETATM    2  C5  UNL     1      29.313   8.815  47.006  1.00  0.00     0.066 C 
HETATM    3  N1  UNL     1      30.023   8.089  45.940  1.00  0.00    -0.389 N 
HETATM    4  C6  UNL     1      30.466   8.986  44.855  1.00  0.00     0.123 C 
HETATM    5  C7  UNL     1      29.740  10.275  45.247  1.00  0.00     0.064 C 
HETATM    6  C8  UNL     1      28.643   9.732  46.120  1.00  0.00     0.122 C 
HETATM    7  N2  UNL     1      27.756   8.954  45.170  1.00  0.00    -0.279 NA
HETATM    8  C9  UNL     1      26.905   8.380  46.000  1.00  0.00     0.120 C 
HETATM    9  C10 UNL     1      26.932   9.557  46.846  1.00  0.00    -0.032 C 
HETATM   10  C11 UNL     1      27.656  10.677  46.593  1.00  0.00    -0.033 C 
HETATM   11  C12 UNL     1      27.398  12.161  46.757  1.00  0.00     0.067 C 
HETATM   12  C13 UNL     1      27.537  12.559  48.223  1.00  0.00     0.010 C 
HETATM   13  C14 UNL     1      28.457  11.738  48.790  1.00  0.00     0.068 A 
HETATM   14  N3  UNL     1      29.551  12.514  48.704  1.00  0.00    -0.241 NA
HETATM   15  C15 UNL     1      30.768  11.956  49.003  1.00  0.00     0.235 A 
HETATM   16  N4  UNL     1      30.754  10.635  49.364  1.00  0.00    -0.224 NA
HETATM   17  C16 UNL     1      29.592   9.983  49.407  1.00  0.00     0.141 A 
HETATM   18  C17 UNL     1      28.307  10.385  49.154  1.00  0.00     0.035 A 
HETATM   19  C18 UNL     1      27.146   9.748  49.261  1.00  0.00    -0.005 C 
HETATM   20  C19 UNL     1      26.144   9.451  48.150  1.00  0.00     0.068 C 
HETATM   21  N5  UNL     1      29.344   8.588  49.535  1.00  0.00    -0.339 N 
HETATM   22  H4  UNL     1      30.364   7.100  45.645  1.00  0.00     0.159 HD
HETATM   23  H17 UNL     1      29.019   8.206  50.430  1.00  0.00     0.167 HD
ENDROOT
BRANCH   1  24
HETATM   24  C3  UNL     1      30.546   7.150  48.651  1.00  0.00     0.265 C 
HETATM   25  F1  UNL     1      31.816   7.316  48.142  1.00  0.00    -0.237 F 
BRANCH  24  26
HETATM   26  C2  UNL     1      30.062   5.858  48.070  1.00  0.00     0.042 C 
HETATM   27  C1  UNL     1      30.944   5.004  47.565  1.00  0.00     0.035 C 
HETATM   28 CL1  UNL     1      28.305   5.862  48.247  1.00  0.00    -0.086 Cl
ENDBRANCH  24  26
ENDBRANCH   1  24
TORSDOF 2
ENDMDL
