MODEL 1
REMARK VINA RESULT:      -9.3      0.000      0.000
REMARK  4 active torsions:
REMARK  status: ('A' for Active; 'I' for Inactive)
REMARK    1  A    between atoms: C2_2  and  N1_3 
REMARK    2  A    between atoms: C2_2  and  C14_19 
REMARK    3  A    between atoms: N1_3  and  C3_4 
REMARK    4  A    between atoms: C10_14  and  O1_15 
ROOT
HETATM    1  C3  UNL     1      24.690   2.533  52.266  1.00  0.00     0.139 A 
HETATM    2  N2  UNL     1      23.512   1.907  52.103  1.00  0.00    -0.224 NA
HETATM    3  C4  UNL     1      23.451   0.599  52.406  1.00  0.00     0.237 A 
HETATM    4  N3  UNL     1      24.489  -0.152  52.868  1.00  0.00    -0.223 NA
HETATM    5  C5  UNL     1      25.699   0.427  53.052  1.00  0.00     0.145 A 
HETATM    6  C6  UNL     1      25.762   1.768  52.742  1.00  0.00     0.058 A 
HETATM    7  C7  UNL     1      27.070   2.158  52.998  1.00  0.00     0.044 A 
HETATM    8  C8  UNL     1      27.778   1.050  53.459  1.00  0.00     0.018 A 
HETATM    9  N4  UNL     1      26.916   0.033  53.476  1.00  0.00    -0.332 N 
HETATM   10  C9  UNL     1      27.184  -1.332  53.882  1.00  0.00     0.166 C 
HETATM   11  C10 UNL     1      28.265  -1.899  53.045  1.00  0.00     0.159 C 
HETATM   12  C11 UNL     1      29.593  -1.328  53.229  1.00  0.00     0.002 C 
HETATM   13  C12 UNL     1      29.972  -0.096  53.541  1.00  0.00    -0.022 C 
HETATM   14  C13 UNL     1      29.221   1.158  53.821  1.00  0.00     0.084 C 
ENDROOT
BRANCH   1  15
HETATM   15  N1  UNL     1      24.887   3.931  51.977  1.00  0.00    -0.366 N 
HETATM   16  H5  UNL     1      25.241   4.533  52.730  1.00  0.00     0.161 HD
BRANCH  15  17
HETATM   17  C2  UNL     1      24.559   4.339  50.631  1.00  0.00     0.115 C 
HETATM   18  C1  UNL     1      23.386   5.284  50.694  1.00  0.00     0.037 C 
BRANCH  17  19
HETATM   19  C14 UNL     1      25.674   4.883  49.859  1.00  0.00     0.003 A 
HETATM   20  C15 UNL     1      25.761   6.253  49.585  1.00  0.00     0.012 A 
HETATM   21  C16 UNL     1      26.767   6.863  48.868  1.00  0.00     0.001 A 
HETATM   22  C17 UNL     1      27.780   6.067  48.373  1.00  0.00     0.003 A 
HETATM   23  C18 UNL     1      27.764   4.722  48.598  1.00  0.00     0.043 A 
HETATM   24  C19 UNL     1      26.728   4.172  49.325  1.00  0.00     0.124 A 
HETATM   25  F1  UNL     1      26.752   2.834  49.530  1.00  0.00    -0.205 F 
ENDBRANCH  17  19
ENDBRANCH  15  17
ENDBRANCH   1  15
BRANCH  11  26
HETATM   26  O1  UNL     1      28.343  -3.286  53.304  1.00  0.00    -0.390 OA
HETATM   27  H11 UNL     1      28.048  -3.705  52.451  1.00  0.00     0.210 HD
ENDBRANCH  11  26
TORSDOF 4
ENDMDL
MODEL 2
REMARK VINA RESULT:      -8.9      3.918      7.132
REMARK  4 active torsions:
REMARK  status: ('A' for Active; 'I' for Inactive)
REMARK    1  A    between atoms: C2_2  and  N1_3 
REMARK    2  A    between atoms: C2_2  and  C14_19 
REMARK    3  A    between atoms: N1_3  and  C3_4 
REMARK    4  A    between atoms: C10_14  and  O1_15 
ROOT
HETATM    1  C3  UNL     1      24.544  -0.025  54.134  1.00  0.00     0.139 A 
HETATM    2  N2  UNL     1      24.774  -0.707  55.269  1.00  0.00    -0.224 NA
HETATM    3  C4  UNL     1      23.783  -1.481  55.746  1.00  0.00     0.237 A 
HETATM    4  N3  UNL     1      22.557  -1.634  55.173  1.00  0.00    -0.223 NA
HETATM    5  C5  UNL     1      22.271  -0.971  54.028  1.00  0.00     0.145 A 
HETATM    6  C6  UNL     1      23.286  -0.178  53.539  1.00  0.00     0.058 A 
HETATM    7  C7  UNL     1      22.791   0.403  52.377  1.00  0.00     0.044 A 
HETATM    8  C8  UNL     1      21.486  -0.047  52.182  1.00  0.00     0.018 A 
HETATM    9  N4  UNL     1      21.216  -0.869  53.196  1.00  0.00    -0.332 N 
HETATM   10  C9  UNL     1      19.979  -1.587  53.432  1.00  0.00     0.166 C 
HETATM   11  C10 UNL     1      18.858  -0.627  53.546  1.00  0.00     0.159 C 
HETATM   12  C11 UNL     1      18.493   0.090  52.331  1.00  0.00     0.002 C 
HETATM   13  C12 UNL     1      19.234   0.503  51.312  1.00  0.00    -0.022 C 
HETATM   14  C13 UNL     1      20.687   0.407  51.007  1.00  0.00     0.084 C 
ENDROOT
BRANCH   1  15
HETATM   15  N1  UNL     1      25.522   0.838  53.521  1.00  0.00    -0.366 N 
HETATM   16  H5  UNL     1      25.636   1.784  53.903  1.00  0.00     0.161 HD
BRANCH  15  17
HETATM   17  C2  UNL     1      26.249   0.264  52.412  1.00  0.00     0.115 C 
HETATM   18  C1  UNL     1      26.607   1.371  51.454  1.00  0.00     0.037 C 
BRANCH  17  19
HETATM   19  C14 UNL     1      27.406  -0.548  52.785  1.00  0.00     0.003 A 
HETATM   20  C15 UNL     1      28.525   0.030  53.393  1.00  0.00     0.012 A 
HETATM   21  C16 UNL     1      29.663  -0.645  53.779  1.00  0.00     0.001 A 
HETATM   22  C17 UNL     1      29.714  -2.005  53.554  1.00  0.00     0.003 A 
HETATM   23  C18 UNL     1      28.660  -2.640  52.964  1.00  0.00     0.043 A 
HETATM   24  C19 UNL     1      27.549  -1.908  52.600  1.00  0.00     0.124 A 
HETATM   25  F1  UNL     1      26.524  -2.575  52.021  1.00  0.00    -0.205 F 
ENDBRANCH  17  19
ENDBRANCH  15  17
ENDBRANCH   1  15
BRANCH  11  26
HETATM   26  O1  UNL     1      17.720  -1.329  54.001  1.00  0.00    -0.390 OA
HETATM   27  H11 UNL     1      17.043  -0.615  54.152  1.00  0.00     0.210 HD
ENDBRANCH  11  26
TORSDOF 4
ENDMDL
MODEL 3
REMARK VINA RESULT:      -8.8      2.324      4.260
REMARK  4 active torsions:
REMARK  status: ('A' for Active; 'I' for Inactive)
REMARK    1  A    between atoms: C2_2  and  N1_3 
REMARK    2  A    between atoms: C2_2  and  C14_19 
REMARK    3  A    between atoms: N1_3  and  C3_4 
REMARK    4  A    between atoms: C10_14  and  O1_15 
ROOT
HETATM    1  C3  UNL     1      25.645   2.838  51.597  1.00  0.00     0.139 A 
HETATM    2  N2  UNL     1      26.901   2.370  51.699  1.00  0.00    -0.224 NA
HETATM    3  C4  UNL     1      27.075   1.164  52.266  1.00  0.00     0.237 A 
HETATM    4  N3  UNL     1      26.081   0.368  52.749  1.00  0.00    -0.223 NA
HETATM    5  C5  UNL     1      24.797   0.789  52.671  1.00  0.00     0.145 A 
HETATM    6  C6  UNL     1      24.617   2.026  52.090  1.00  0.00     0.058 A 
HETATM    7  C7  UNL     1      23.248   2.262  52.111  1.00  0.00     0.044 A 
HETATM    8  C8  UNL     1      22.621   1.167  52.702  1.00  0.00     0.018 A 
HETATM    9  N4  UNL     1      23.588   0.307  53.023  1.00  0.00    -0.332 N 
HETATM   10  C9  UNL     1      23.432  -0.984  53.662  1.00  0.00     0.166 C 
HETATM   11  C10 UNL     1      22.765  -0.815  54.973  1.00  0.00     0.159 C 
HETATM   12  C11 UNL     1      21.371  -0.392  54.940  1.00  0.00     0.002 C 
HETATM   13  C12 UNL     1      20.722   0.391  54.089  1.00  0.00    -0.022 C 
HETATM   14  C13 UNL     1      21.139   1.129  52.866  1.00  0.00     0.084 C 
ENDROOT
BRANCH   1  15
HETATM   15  N1  UNL     1      25.324   4.115  51.012  1.00  0.00    -0.366 N 
HETATM   16  H5  UNL     1      25.013   4.867  51.638  1.00  0.00     0.161 HD
BRANCH  15  17
HETATM   17  C2  UNL     1      25.481   4.199  49.578  1.00  0.00     0.115 C 
HETATM   18  C1  UNL     1      24.123   4.421  48.964  1.00  0.00     0.037 C 
BRANCH  17  19
HETATM   19  C14 UNL     1      26.469   5.174  49.118  1.00  0.00     0.003 A 
HETATM   20  C15 UNL     1      27.716   4.762  48.637  1.00  0.00     0.012 A 
HETATM   21  C16 UNL     1      28.714   5.599  48.184  1.00  0.00     0.001 A 
HETATM   22  C17 UNL     1      28.473   6.957  48.201  1.00  0.00     0.003 A 
HETATM   23  C18 UNL     1      27.280   7.434  48.657  1.00  0.00     0.043 A 
HETATM   24  C19 UNL     1      26.321   6.545  49.097  1.00  0.00     0.124 A 
HETATM   25  F1  UNL     1      25.149   7.058  49.538  1.00  0.00    -0.205 F 
ENDBRANCH  17  19
ENDBRANCH  15  17
ENDBRANCH   1  15
BRANCH  11  26
HETATM   26  O1  UNL     1      22.835  -2.044  55.666  1.00  0.00    -0.390 OA
HETATM   27  H11 UNL     1      21.967  -2.485  55.458  1.00  0.00     0.210 HD
ENDBRANCH  11  26
TORSDOF 4
ENDMDL
MODEL 4
REMARK VINA RESULT:      -8.6      2.942      6.771
REMARK  4 active torsions:
REMARK  status: ('A' for Active; 'I' for Inactive)
REMARK    1  A    between atoms: C2_2  and  N1_3 
REMARK    2  A    between atoms: C2_2  and  C14_19 
REMARK    3  A    between atoms: N1_3  and  C3_4 
REMARK    4  A    between atoms: C10_14  and  O1_15 
ROOT
HETATM    1  C3  UNL     1      24.593   2.201  51.651  1.00  0.00     0.139 A 
HETATM    2  N2  UNL     1      23.399   2.443  52.216  1.00  0.00    -0.224 NA
HETATM    3  C4  UNL     1      22.801   3.615  51.940  1.00  0.00     0.237 A 
HETATM    4  N3  UNL     1      23.306   4.586  51.128  1.00  0.00    -0.223 NA
HETATM    5  C5  UNL     1      24.506   4.395  50.532  1.00  0.00     0.145 A 
HETATM    6  C6  UNL     1      25.119   3.193  50.815  1.00  0.00     0.058 A 
HETATM    7  C7  UNL     1      26.318   3.202  50.112  1.00  0.00     0.044 A 
HETATM    8  C8  UNL     1      26.412   4.405  49.416  1.00  0.00     0.018 A 
HETATM    9  N4  UNL     1      25.302   5.090  49.696  1.00  0.00    -0.332 N 
HETATM   10  C9  UNL     1      24.941   6.405  49.205  1.00  0.00     0.166 C 
HETATM   11  C10 UNL     1      25.978   7.386  49.594  1.00  0.00     0.159 C 
HETATM   12  C11 UNL     1      27.280   7.240  48.954  1.00  0.00     0.002 C 
HETATM   13  C12 UNL     1      27.926   6.158  48.542  1.00  0.00    -0.022 C 
HETATM   14  C13 UNL     1      27.598   4.707  48.564  1.00  0.00     0.084 C 
ENDROOT
BRANCH   1  15
HETATM   15  N1  UNL     1      25.336   0.985  51.867  1.00  0.00    -0.366 N 
HETATM   16  H5  UNL     1      25.490   0.366  51.062  1.00  0.00     0.161 HD
BRANCH  15  17
HETATM   17  C2  UNL     1      25.793   0.769  53.220  1.00  0.00     0.115 C 
HETATM   18  C1  UNL     1      24.896  -0.257  53.865  1.00  0.00     0.037 C 
BRANCH  17  19
HETATM   19  C14 UNL     1      27.210   0.433  53.349  1.00  0.00     0.003 A 
HETATM   20  C15 UNL     1      27.653  -0.887  53.206  1.00  0.00     0.012 A 
HETATM   21  C16 UNL     1      28.961  -1.306  53.311  1.00  0.00     0.001 A 
HETATM   22  C17 UNL     1      29.924  -0.355  53.579  1.00  0.00     0.003 A 
HETATM   23  C18 UNL     1      29.568   0.953  53.733  1.00  0.00     0.043 A 
HETATM   24  C19 UNL     1      28.241   1.309  53.615  1.00  0.00     0.124 A 
HETATM   25  F1  UNL     1      27.930   2.618  53.771  1.00  0.00    -0.205 F 
ENDBRANCH  17  19
ENDBRANCH  15  17
ENDBRANCH   1  15
BRANCH  11  26
HETATM   26  O1  UNL     1      25.491   8.681  49.308  1.00  0.00    -0.390 OA
HETATM   27  H11 UNL     1      24.536   8.530  49.072  1.00  0.00     0.210 HD
ENDBRANCH  11  26
TORSDOF 4
ENDMDL
MODEL 5
REMARK VINA RESULT:      -8.1      3.569      6.894
REMARK  4 active torsions:
REMARK  status: ('A' for Active; 'I' for Inactive)
REMARK    1  A    between atoms: C2_2  and  N1_3 
REMARK    2  A    between atoms: C2_2  and  C14_19 
REMARK    3  A    between atoms: N1_3  and  C3_4 
REMARK    4  A    between atoms: C10_14  and  O1_15 
ROOT
HETATM    1  C3  UNL     1      24.030   3.760  52.110  1.00  0.00     0.139 A 
HETATM    2  N2  UNL     1      23.943   4.980  51.553  1.00  0.00    -0.224 NA
HETATM    3  C4  UNL     1      22.725   5.420  51.197  1.00  0.00     0.237 A 
HETATM    4  N3  UNL     1      21.560   4.731  51.352  1.00  0.00    -0.223 NA
HETATM    5  C5  UNL     1      21.588   3.497  51.907  1.00  0.00     0.145 A 
HETATM    6  C6  UNL     1      22.837   3.045  52.273  1.00  0.00     0.058 A 
HETATM    7  C7  UNL     1      22.642   1.779  52.813  1.00  0.00     0.044 A 
HETATM    8  C8  UNL     1      21.281   1.486  52.766  1.00  0.00     0.018 A 
HETATM    9  N4  UNL     1      20.686   2.544  52.215  1.00  0.00    -0.332 N 
HETATM   10  C9  UNL     1      19.270   2.713  51.955  1.00  0.00     0.166 C 
HETATM   11  C10 UNL     1      18.794   1.632  51.064  1.00  0.00     0.159 C 
HETATM   12  C11 UNL     1      18.777   0.288  51.627  1.00  0.00     0.002 C 
HETATM   13  C12 UNL     1      19.570  -0.288  52.519  1.00  0.00    -0.022 C 
HETATM   14  C13 UNL     1      20.758   0.186  53.279  1.00  0.00     0.084 C 
ENDROOT
BRANCH   1  15
HETATM   15  N1  UNL     1      25.276   3.172  52.534  1.00  0.00    -0.366 N 
HETATM   16  H5  UNL     1      25.661   3.464  53.440  1.00  0.00     0.161 HD
BRANCH  15  17
HETATM   17  C2  UNL     1      25.856   2.217  51.619  1.00  0.00     0.115 C 
HETATM   18  C1  UNL     1      26.539   2.977  50.510  1.00  0.00     0.037 C 
BRANCH  17  19
HETATM   19  C14 UNL     1      26.730   1.221  52.235  1.00  0.00     0.003 A 
HETATM   20  C15 UNL     1      26.452  -0.146  52.128  1.00  0.00     0.012 A 
HETATM   21  C16 UNL     1      27.208  -1.161  52.672  1.00  0.00     0.001 A 
HETATM   22  C17 UNL     1      28.338  -0.813  53.383  1.00  0.00     0.003 A 
HETATM   23  C18 UNL     1      28.675   0.500  53.532  1.00  0.00     0.043 A 
HETATM   24  C19 UNL     1      27.876   1.470  52.962  1.00  0.00     0.124 A 
HETATM   25  F1  UNL     1      28.246   2.762  53.129  1.00  0.00    -0.205 F 
ENDBRANCH  17  19
ENDBRANCH  15  17
ENDBRANCH   1  15
BRANCH  11  26
HETATM   26  O1  UNL     1      17.482   1.950  50.645  1.00  0.00    -0.390 OA
HETATM   27  H11 UNL     1      17.382   1.464  49.783  1.00  0.00     0.210 HD
ENDBRANCH  11  26
TORSDOF 4
ENDMDL
MODEL 6
REMARK VINA RESULT:      -8.0      3.774      7.481
REMARK  4 active torsions:
REMARK  status: ('A' for Active; 'I' for Inactive)
REMARK    1  A    between atoms: C2_2  and  N1_3 
REMARK    2  A    between atoms: C2_2  and  C14_19 
REMARK    3  A    between atoms: N1_3  and  C3_4 
REMARK    4  A    between atoms: C10_14  and  O1_15 
ROOT
HETATM    1  C3  UNL     1      24.262   1.253  52.302  1.00  0.00     0.139 A 
HETATM    2  N2  UNL     1      24.806   2.436  51.972  1.00  0.00    -0.224 NA
HETATM    3  C4  UNL     1      23.973   3.463  51.731  1.00  0.00     0.237 A 
HETATM    4  N3  UNL     1      22.614   3.407  51.792  1.00  0.00    -0.223 NA
HETATM    5  C5  UNL     1      22.011   2.240  52.120  1.00  0.00     0.145 A 
HETATM    6  C6  UNL     1      22.865   1.187  52.368  1.00  0.00     0.058 A 
HETATM    7  C7  UNL     1      22.053   0.104  52.681  1.00  0.00     0.044 A 
HETATM    8  C8  UNL     1      20.723   0.517  52.618  1.00  0.00     0.018 A 
HETATM    9  N4  UNL     1      20.745   1.806  52.278  1.00  0.00    -0.332 N 
HETATM   10  C9  UNL     1      19.604   2.678  52.089  1.00  0.00     0.166 C 
HETATM   11  C10 UNL     1      18.724   2.128  51.033  1.00  0.00     0.159 C 
HETATM   12  C11 UNL     1      18.030   0.887  51.351  1.00  0.00     0.002 C 
HETATM   13  C12 UNL     1      18.391  -0.140  52.106  1.00  0.00    -0.022 C 
HETATM   14  C13 UNL     1      19.611  -0.434  52.906  1.00  0.00     0.084 C 
ENDROOT
BRANCH   1  15
HETATM   15  N1  UNL     1      25.043   0.075  52.584  1.00  0.00    -0.366 N 
HETATM   16  H5  UNL     1      25.036  -0.684  51.893  1.00  0.00     0.161 HD
BRANCH  15  17
HETATM   17  C2  UNL     1      25.767   0.095  53.835  1.00  0.00     0.115 C 
HETATM   18  C1  UNL     1      25.071  -0.831  54.800  1.00  0.00     0.037 C 
BRANCH  17  19
HETATM   19  C14 UNL     1      27.198  -0.183  53.727  1.00  0.00     0.003 A 
HETATM   20  C15 UNL     1      28.146   0.752  54.155  1.00  0.00     0.012 A 
HETATM   21  C16 UNL     1      29.513   0.588  54.095  1.00  0.00     0.001 A 
HETATM   22  C17 UNL     1      29.999  -0.593  53.572  1.00  0.00     0.003 A 
HETATM   23  C18 UNL     1      29.135  -1.553  53.133  1.00  0.00     0.043 A 
HETATM   24  C19 UNL     1      27.777  -1.328  53.221  1.00  0.00     0.124 A 
HETATM   25  F1  UNL     1      26.952  -2.307  52.778  1.00  0.00    -0.205 F 
ENDBRANCH  17  19
ENDBRANCH  15  17
ENDBRANCH   1  15
BRANCH  11  26
HETATM   26  O1  UNL     1      17.755   3.105  50.711  1.00  0.00    -0.390 OA
HETATM   27  H11 UNL     1      18.118   3.942  51.110  1.00  0.00     0.210 HD
ENDBRANCH  11  26
TORSDOF 4
ENDMDL
MODEL 7
REMARK VINA RESULT:      -8.0      3.199      6.786
REMARK  4 active torsions:
REMARK  status: ('A' for Active; 'I' for Inactive)
REMARK    1  A    between atoms: C2_2  and  N1_3 
REMARK    2  A    between atoms: C2_2  and  C14_19 
REMARK    3  A    between atoms: N1_3  and  C3_4 
REMARK    4  A    between atoms: C10_14  and  O1_15 
ROOT
HETATM    1  C3  UNL     1      22.237   1.934  51.983  1.00  0.00     0.139 A 
HETATM    2  N2  UNL     1      21.039   2.270  52.490  1.00  0.00    -0.224 NA
HETATM    3  C4  UNL     1      20.600   3.524  52.282  1.00  0.00     0.237 A 
HETATM    4  N3  UNL     1      21.270   4.490  51.596  1.00  0.00    -0.223 NA
HETATM    5  C5  UNL     1      22.482   4.207  51.062  1.00  0.00     0.145 A 
HETATM    6  C6  UNL     1      22.932   2.922  51.275  1.00  0.00     0.058 A 
HETATM    7  C7  UNL     1      24.173   2.846  50.654  1.00  0.00     0.044 A 
HETATM    8  C8  UNL     1      24.454   4.082  50.076  1.00  0.00     0.018 A 
HETATM    9  N4  UNL     1      23.412   4.869  50.345  1.00  0.00    -0.332 N 
HETATM   10  C9  UNL     1      23.238   6.253  49.953  1.00  0.00     0.166 C 
HETATM   11  C10 UNL     1      24.348   7.069  50.493  1.00  0.00     0.159 C 
HETATM   12  C11 UNL     1      25.668   6.821  49.928  1.00  0.00     0.002 C 
HETATM   13  C12 UNL     1      26.218   5.708  49.462  1.00  0.00    -0.022 C 
HETATM   14  C13 UNL     1      25.727   4.310  49.332  1.00  0.00     0.084 C 
ENDROOT
BRANCH   1  15
HETATM   15  N1  UNL     1      22.821   0.626  52.136  1.00  0.00    -0.366 N 
HETATM   16  H5  UNL     1      22.737  -0.033  51.353  1.00  0.00     0.161 HD
BRANCH  15  17
HETATM   17  C2  UNL     1      23.474   0.381  53.401  1.00  0.00     0.115 C 
HETATM   18  C1  UNL     1      22.918  -0.894  53.983  1.00  0.00     0.037 C 
BRANCH  17  19
HETATM   19  C14 UNL     1      24.935   0.383  53.355  1.00  0.00     0.003 A 
HETATM   20  C15 UNL     1      25.648  -0.788  53.080  1.00  0.00     0.012 A 
HETATM   21  C16 UNL     1      27.021  -0.891  53.016  1.00  0.00     0.001 A 
HETATM   22  C17 UNL     1      27.765   0.249  53.238  1.00  0.00     0.003 A 
HETATM   23  C18 UNL     1      27.139   1.430  53.513  1.00  0.00     0.043 A 
HETATM   24  C19 UNL     1      25.761   1.468  53.563  1.00  0.00     0.124 A 
HETATM   25  F1  UNL     1      25.179   2.659  53.834  1.00  0.00    -0.205 F 
ENDBRANCH  17  19
ENDBRANCH  15  17
ENDBRANCH   1  15
BRANCH  11  26
HETATM   26  O1  UNL     1      24.033   8.432  50.294  1.00  0.00    -0.390 OA
HETATM   27  H11 UNL     1      23.371   8.631  51.010  1.00  0.00     0.210 HD
ENDBRANCH  11  26
TORSDOF 4
ENDMDL
MODEL 8
REMARK VINA RESULT:      -7.9      2.424      4.530
REMARK  4 active torsions:
REMARK  status: ('A' for Active; 'I' for Inactive)
REMARK    1  A    between atoms: C2_2  and  N1_3 
REMARK    2  A    between atoms: C2_2  and  C14_19 
REMARK    3  A    between atoms: N1_3  and  C3_4 
REMARK    4  A    between atoms: C10_14  and  O1_15 
ROOT
HETATM    1  C3  UNL     1      25.592   2.628  51.041  1.00  0.00     0.139 A 
HETATM    2  N2  UNL     1      26.867   2.550  51.458  1.00  0.00    -0.224 NA
HETATM    3  C4  UNL     1      27.170   1.614  52.375  1.00  0.00     0.237 A 
HETATM    4  N3  UNL     1      26.288   0.732  52.921  1.00  0.00    -0.223 NA
HETATM    5  C5  UNL     1      24.991   0.765  52.537  1.00  0.00     0.145 A 
HETATM    6  C6  UNL     1      24.680   1.724  51.597  1.00  0.00     0.058 A 
HETATM    7  C7  UNL     1      23.320   1.587  51.348  1.00  0.00     0.044 A 
HETATM    8  C8  UNL     1      22.829   0.549  52.139  1.00  0.00     0.018 A 
HETATM    9  N4  UNL     1      23.866   0.084  52.836  1.00  0.00    -0.332 N 
HETATM   10  C9  UNL     1      23.856  -0.999  53.798  1.00  0.00     0.166 C 
HETATM   11  C10 UNL     1      22.905  -0.690  54.889  1.00  0.00     0.159 C 
HETATM   12  C11 UNL     1      21.493  -0.673  54.530  1.00  0.00     0.002 C 
HETATM   13  C12 UNL     1      20.888  -0.328  53.401  1.00  0.00    -0.022 C 
HETATM   14  C13 UNL     1      21.389   0.163  52.089  1.00  0.00     0.084 C 
ENDROOT
BRANCH   1  15
HETATM   15  N1  UNL     1      25.139   3.586  50.065  1.00  0.00    -0.366 N 
HETATM   16  H5  UNL     1      24.333   3.333  49.481  1.00  0.00     0.161 HD
BRANCH  15  17
HETATM   17  C2  UNL     1      25.883   4.824  50.016  1.00  0.00     0.115 C 
HETATM   18  C1  UNL     1      26.916   4.713  48.923  1.00  0.00     0.037 C 
BRANCH  17  19
HETATM   19  C14 UNL     1      25.069   6.032  49.896  1.00  0.00     0.003 A 
HETATM   20  C15 UNL     1      25.101   6.809  48.733  1.00  0.00     0.012 A 
HETATM   21  C16 UNL     1      24.376   7.962  48.522  1.00  0.00     0.001 A 
HETATM   22  C17 UNL     1      23.546   8.396  49.535  1.00  0.00     0.003 A 
HETATM   23  C18 UNL     1      23.463   7.692  50.700  1.00  0.00     0.043 A 
HETATM   24  C19 UNL     1      24.214   6.544  50.849  1.00  0.00     0.124 A 
HETATM   25  F1  UNL     1      24.100   5.871  52.019  1.00  0.00    -0.205 F 
ENDBRANCH  17  19
ENDBRANCH  15  17
ENDBRANCH   1  15
BRANCH  11  26
HETATM   26  O1  UNL     1      23.086  -1.643  55.916  1.00  0.00    -0.390 OA
HETATM   27  H11 UNL     1      22.326  -1.473  56.536  1.00  0.00     0.210 HD
ENDBRANCH  11  26
TORSDOF 4
ENDMDL
MODEL 9
REMARK VINA RESULT:      -7.9      3.422      7.393
REMARK  4 active torsions:
REMARK  status: ('A' for Active; 'I' for Inactive)
REMARK    1  A    between atoms: C2_2  and  N1_3 
REMARK    2  A    between atoms: C2_2  and  C14_19 
REMARK    3  A    between atoms: N1_3  and  C3_4 
REMARK    4  A    between atoms: C10_14  and  O1_15 
ROOT
HETATM    1  C3  UNL     1      25.173   1.837  51.553  1.00  0.00     0.139 A 
HETATM    2  N2  UNL     1      26.141   2.575  50.984  1.00  0.00    -0.224 NA
HETATM    3  C4  UNL     1      25.822   3.811  50.564  1.00  0.00     0.237 A 
HETATM    4  N3  UNL     1      24.591   4.385  50.667  1.00  0.00    -0.223 NA
HETATM    5  C5  UNL     1      23.578   3.688  51.232  1.00  0.00     0.145 A 
HETATM    6  C6  UNL     1      23.905   2.420  51.663  1.00  0.00     0.058 A 
HETATM    7  C7  UNL     1      22.740   1.888  52.202  1.00  0.00     0.044 A 
HETATM    8  C8  UNL     1      21.728   2.839  52.090  1.00  0.00     0.018 A 
HETATM    9  N4  UNL     1      22.275   3.904  51.502  1.00  0.00    -0.332 N 
HETATM   10  C9  UNL     1      21.618   5.152  51.171  1.00  0.00     0.166 C 
HETATM   11  C10 UNL     1      20.477   4.891  50.265  1.00  0.00     0.159 C 
HETATM   12  C11 UNL     1      19.348   4.169  50.838  1.00  0.00     0.002 C 
HETATM   13  C12 UNL     1      19.304   3.229  51.772  1.00  0.00    -0.022 C 
HETATM   14  C13 UNL     1      20.351   2.555  52.586  1.00  0.00     0.084 C 
ENDROOT
BRANCH   1  15
HETATM   15  N1  UNL     1      25.386   0.499  52.043  1.00  0.00    -0.366 N 
HETATM   16  H5  UNL     1      25.138  -0.284  51.427  1.00  0.00     0.161 HD
BRANCH  15  17
HETATM   17  C2  UNL     1      25.938   0.405  53.375  1.00  0.00     0.115 C 
HETATM   18  C1  UNL     1      25.108  -0.574  54.165  1.00  0.00     0.037 C 
BRANCH  17  19
HETATM   19  C14 UNL     1      27.367   0.102  53.433  1.00  0.00     0.003 A 
HETATM   20  C15 UNL     1      27.834  -1.203  53.245  1.00  0.00     0.012 A 
HETATM   21  C16 UNL     1      29.155  -1.592  53.283  1.00  0.00     0.001 A 
HETATM   22  C17 UNL     1      30.107  -0.623  53.525  1.00  0.00     0.003 A 
HETATM   23  C18 UNL     1      29.728   0.673  53.719  1.00  0.00     0.043 A 
HETATM   24  C19 UNL     1      28.388   0.999  53.669  1.00  0.00     0.124 A 
HETATM   25  F1  UNL     1      28.053   2.296  53.863  1.00  0.00    -0.205 F 
ENDBRANCH  17  19
ENDBRANCH  15  17
ENDBRANCH   1  15
BRANCH  11  26
HETATM   26  O1  UNL     1      20.005   6.131  49.780  1.00  0.00    -0.390 OA
HETATM   27  H11 UNL     1      20.152   6.075  48.798  1.00  0.00     0.210 HD
ENDBRANCH  11  26
TORSDOF 4
ENDMDL
