MODEL 1
REMARK VINA RESULT:      -9.4      0.000      0.000
REMARK  4 active torsions:
REMARK  status: ('A' for Active; 'I' for Inactive)
REMARK    1  A    between atoms: C5_5  and  C6_6 
REMARK    2  A    between atoms: C8_8  and  C9_9 
REMARK    3  A    between atoms: N2_16  and  C14_17 
REMARK    4  A    between atoms: C15_19  and  O1_20 
ROOT
HETATM    1  C6  UNL     1      25.337   1.745  52.440  1.00  0.00     0.151 C 
HETATM    2  C7  UNL     1      24.984   2.190  51.019  1.00  0.00     0.094 C 
HETATM    3  C8  UNL     1      26.232   3.028  50.807  1.00  0.00     0.064 C 
HETATM    4  N1  UNL     1      27.163   2.503  51.556  1.00  0.00    -0.174 NA
HETATM    5  N2  UNL     1      26.696   1.386  52.266  1.00  0.00    -0.236 N 
ENDROOT
BRANCH   1   6
HETATM    6  C5  UNL     1      24.419   0.790  53.016  1.00  0.00    -0.033 A 
HETATM    7  C4  UNL     1      23.163   0.665  52.408  1.00  0.00     0.010 A 
HETATM    8  C3  UNL     1      22.186  -0.196  52.865  1.00  0.00     0.007 A 
HETATM    9  C2  UNL     1      22.430  -0.982  53.968  1.00  0.00    -0.062 A 
HETATM   10  C1  UNL     1      21.432  -1.934  54.523  1.00  0.00     0.048 C 
HETATM   11  C18 UNL     1      23.652  -0.891  54.597  1.00  0.00     0.007 A 
HETATM   12  C17 UNL     1      24.601  -0.018  54.110  1.00  0.00     0.010 A 
ENDBRANCH   1   6
BRANCH   5  13
HETATM   13  C14 UNL     1      27.490   0.241  52.644  1.00  0.00     0.192 A 
HETATM   14  N3  UNL     1      27.350  -1.104  52.468  1.00  0.00    -0.198 NA
HETATM   15  C15 UNL     1      28.352  -1.788  53.002  1.00  0.00     0.171 A 
HETATM   16  C16 UNL     1      29.536  -1.324  53.724  1.00  0.00     0.111 A 
HETATM   17  S1  UNL     1      29.077   0.503  53.585  1.00  0.00    -0.058 SA
BRANCH  15  18
HETATM   18  O1  UNL     1      28.071  -3.148  52.743  1.00  0.00    -0.344 OA
HETATM   19  H13 UNL     1      27.586  -3.724  53.415  1.00  0.00     0.219 HD
ENDBRANCH  15  18
ENDBRANCH   5  13
BRANCH   3  20
HETATM   20  C9  UNL     1      26.344   4.188  49.932  1.00  0.00    -0.025 A 
HETATM   21  C10 UNL     1      25.421   5.120  49.742  1.00  0.00     0.012 A 
HETATM   22  C11 UNL     1      25.974   6.074  48.789  1.00  0.00     0.038 A 
HETATM   23  C12 UNL     1      27.185   5.753  48.402  1.00  0.00     0.098 A 
HETATM   24  F1  UNL     1      28.133   6.243  47.577  1.00  0.00    -0.210 F 
HETATM   25  C13 UNL     1      27.532   4.501  49.110  1.00  0.00     0.110 A 
ENDBRANCH   3  20
TORSDOF 4
ENDMDL
MODEL 2
REMARK VINA RESULT:      -9.1      3.235      6.680
REMARK  4 active torsions:
REMARK  status: ('A' for Active; 'I' for Inactive)
REMARK    1  A    between atoms: C5_5  and  C6_6 
REMARK    2  A    between atoms: C8_8  and  C9_9 
REMARK    3  A    between atoms: N2_16  and  C14_17 
REMARK    4  A    between atoms: C15_19  and  O1_20 
ROOT
HETATM    1  C6  UNL     1      24.702   1.593  51.450  1.00  0.00     0.151 C 
HETATM    2  C7  UNL     1      23.435   1.901  52.251  1.00  0.00     0.094 C 
HETATM    3  C8  UNL     1      23.303   0.519  52.866  1.00  0.00     0.064 C 
HETATM    4  N1  UNL     1      24.509   0.027  52.933  1.00  0.00    -0.174 NA
HETATM    5  N2  UNL     1      25.469   0.921  52.433  1.00  0.00    -0.236 N 
ENDROOT
BRANCH   1   6
HETATM    6  C5  UNL     1      25.270   2.729  50.761  1.00  0.00    -0.033 A 
HETATM    7  C4  UNL     1      24.621   3.961  50.921  1.00  0.00     0.010 A 
HETATM    8  C3  UNL     1      25.046   5.122  50.309  1.00  0.00     0.007 A 
HETATM    9  C2  UNL     1      26.157   5.099  49.496  1.00  0.00    -0.062 A 
HETATM   10  C1  UNL     1      26.680   6.304  48.800  1.00  0.00     0.048 C 
HETATM   11  C18 UNL     1      26.825   3.908  49.311  1.00  0.00     0.007 A 
HETATM   12  C17 UNL     1      26.368   2.770  49.941  1.00  0.00     0.010 A 
ENDBRANCH   1   6
BRANCH   5  13
HETATM   13  C14 UNL     1      26.833   1.030  52.891  1.00  0.00     0.192 A 
HETATM   14  N3  UNL     1      27.641   2.082  53.206  1.00  0.00    -0.198 NA
HETATM   15  C15 UNL     1      28.850   1.693  53.589  1.00  0.00     0.171 A 
HETATM   16  C16 UNL     1      29.413   0.350  53.715  1.00  0.00     0.111 A 
HETATM   17  S1  UNL     1      27.834  -0.520  53.154  1.00  0.00    -0.058 SA
BRANCH  15  18
HETATM   18  O1  UNL     1      29.563   2.877  53.877  1.00  0.00    -0.344 OA
HETATM   19  H13 UNL     1      29.416   3.384  54.738  1.00  0.00     0.219 HD
ENDBRANCH  15  18
ENDBRANCH   5  13
BRANCH   3  20
HETATM   20  C9  UNL     1      22.060  -0.112  53.290  1.00  0.00    -0.025 A 
HETATM   21  C10 UNL     1      21.937  -1.075  54.192  1.00  0.00     0.012 A 
HETATM   22  C11 UNL     1      20.516  -1.387  54.285  1.00  0.00     0.038 A 
HETATM   23  C12 UNL     1      19.787  -0.655  53.479  1.00  0.00     0.098 A 
HETATM   24  F1  UNL     1      18.484  -0.517  53.158  1.00  0.00    -0.210 F 
HETATM   25  C13 UNL     1      20.725   0.237  52.762  1.00  0.00     0.110 A 
ENDBRANCH   3  20
TORSDOF 4
ENDMDL
MODEL 3
REMARK VINA RESULT:      -9.1      3.972      7.114
REMARK  4 active torsions:
REMARK  status: ('A' for Active; 'I' for Inactive)
REMARK    1  A    between atoms: C5_5  and  C6_6 
REMARK    2  A    between atoms: C8_8  and  C9_9 
REMARK    3  A    between atoms: N2_16  and  C14_17 
REMARK    4  A    between atoms: C15_19  and  O1_20 
ROOT
HETATM    1  C6  UNL     1      24.147   0.456  53.419  1.00  0.00     0.151 C 
HETATM    2  C7  UNL     1      23.282  -0.751  53.051  1.00  0.00     0.094 C 
HETATM    3  C8  UNL     1      21.993   0.032  52.878  1.00  0.00     0.064 C 
HETATM    4  N1  UNL     1      22.338   1.240  52.525  1.00  0.00    -0.174 NA
HETATM    5  N2  UNL     1      23.731   1.381  52.431  1.00  0.00    -0.236 N 
ENDROOT
BRANCH   1   6
HETATM    6  C5  UNL     1      25.554   0.164  53.570  1.00  0.00    -0.033 A 
HETATM    7  C4  UNL     1      26.110  -0.769  52.685  1.00  0.00     0.010 A 
HETATM    8  C3  UNL     1      27.435  -1.152  52.727  1.00  0.00     0.007 A 
HETATM    9  C2  UNL     1      28.274  -0.608  53.673  1.00  0.00    -0.062 A 
HETATM   10  C1  UNL     1      29.712  -0.967  53.786  1.00  0.00     0.048 C 
HETATM   11  C18 UNL     1      27.769   0.313  54.564  1.00  0.00     0.007 A 
HETATM   12  C17 UNL     1      26.439   0.669  54.488  1.00  0.00     0.010 A 
ENDBRANCH   1   6
BRANCH   5  13
HETATM   13  C14 UNL     1      24.426   2.260  51.521  1.00  0.00     0.192 A 
HETATM   14  N3  UNL     1      25.712   2.701  51.432  1.00  0.00    -0.198 NA
HETATM   15  C15 UNL     1      25.895   3.521  50.406  1.00  0.00     0.171 A 
HETATM   16  C16 UNL     1      24.949   3.999  49.399  1.00  0.00     0.111 A 
HETATM   17  S1  UNL     1      23.487   3.040  50.112  1.00  0.00    -0.058 SA
BRANCH  15  18
HETATM   18  O1  UNL     1      27.258   3.888  50.444  1.00  0.00    -0.344 OA
HETATM   19  H13 UNL     1      27.755   4.159  49.608  1.00  0.00     0.219 HD
ENDBRANCH  15  18
ENDBRANCH   5  13
BRANCH   3  20
HETATM   20  C9  UNL     1      20.645  -0.486  53.074  1.00  0.00    -0.025 A 
HETATM   21  C10 UNL     1      20.288  -1.446  53.915  1.00  0.00     0.012 A 
HETATM   22  C11 UNL     1      18.849  -1.625  53.765  1.00  0.00     0.038 A 
HETATM   23  C12 UNL     1      18.332  -0.816  52.872  1.00  0.00     0.098 A 
HETATM   24  F1  UNL     1      17.118  -0.552  52.347  1.00  0.00    -0.210 F 
HETATM   25  C13 UNL     1      19.453  -0.006  52.344  1.00  0.00     0.110 A 
ENDBRANCH   3  20
TORSDOF 4
ENDMDL
MODEL 4
REMARK VINA RESULT:      -8.8      3.929      6.739
REMARK  4 active torsions:
REMARK  status: ('A' for Active; 'I' for Inactive)
REMARK    1  A    between atoms: C5_5  and  C6_6 
REMARK    2  A    between atoms: C8_8  and  C9_9 
REMARK    3  A    between atoms: N2_16  and  C14_17 
REMARK    4  A    between atoms: C15_19  and  O1_20 
ROOT
HETATM    1  C6  UNL     1      24.725   1.643  52.741  1.00  0.00     0.151 C 
HETATM    2  C7  UNL     1      25.829   0.989  51.908  1.00  0.00     0.094 C 
HETATM    3  C8  UNL     1      26.002  -0.222  52.808  1.00  0.00     0.064 C 
HETATM    4  N1  UNL     1      24.851  -0.419  53.389  1.00  0.00    -0.174 NA
HETATM    5  N2  UNL     1      23.892   0.524  52.987  1.00  0.00    -0.236 N 
ENDROOT
BRANCH   1   6
HETATM    6  C5  UNL     1      24.156   2.835  52.156  1.00  0.00    -0.033 A 
HETATM    7  C4  UNL     1      24.098   2.894  50.757  1.00  0.00     0.010 A 
HETATM    8  C3  UNL     1      23.595   3.978  50.067  1.00  0.00     0.007 A 
HETATM    9  C2  UNL     1      23.121   5.069  50.761  1.00  0.00    -0.062 A 
HETATM   10  C1  UNL     1      22.564   6.275  50.095  1.00  0.00     0.048 C 
HETATM   11  C18 UNL     1      23.160   5.054  52.138  1.00  0.00     0.007 A 
HETATM   12  C17 UNL     1      23.670   3.951  52.789  1.00  0.00     0.010 A 
ENDBRANCH   1   6
BRANCH   5  13
HETATM   13  C14 UNL     1      22.472   0.286  52.885  1.00  0.00     0.192 A 
HETATM   14  N3  UNL     1      21.565   0.410  51.875  1.00  0.00    -0.198 NA
HETATM   15  C15 UNL     1      20.340   0.070  52.254  1.00  0.00     0.171 A 
HETATM   16  C16 UNL     1      19.847  -0.397  53.549  1.00  0.00     0.111 A 
HETATM   17  S1  UNL     1      21.541  -0.322  54.380  1.00  0.00    -0.058 SA
BRANCH  15  18
HETATM   18  O1  UNL     1      19.523   0.247  51.116  1.00  0.00    -0.344 OA
HETATM   19  H13 UNL     1      19.907   0.545  50.232  1.00  0.00     0.219 HD
ENDBRANCH  15  18
ENDBRANCH   5  13
BRANCH   3  20
HETATM   20  C9  UNL     1      27.226  -0.996  52.973  1.00  0.00    -0.025 A 
HETATM   21  C10 UNL     1      27.392  -2.275  52.673  1.00  0.00     0.012 A 
HETATM   22  C11 UNL     1      28.770  -2.612  53.007  1.00  0.00     0.038 A 
HETATM   23  C12 UNL     1      29.433  -1.591  53.493  1.00  0.00     0.098 A 
HETATM   24  F1  UNL     1      30.676  -1.332  53.949  1.00  0.00    -0.210 F 
HETATM   25  C13 UNL     1      28.489  -0.451  53.514  1.00  0.00     0.110 A 
ENDBRANCH   3  20
TORSDOF 4
ENDMDL
MODEL 5
REMARK VINA RESULT:      -8.7      3.357      5.024
REMARK  4 active torsions:
REMARK  status: ('A' for Active; 'I' for Inactive)
REMARK    1  A    between atoms: C5_5  and  C6_6 
REMARK    2  A    between atoms: C8_8  and  C9_9 
REMARK    3  A    between atoms: N2_16  and  C14_17 
REMARK    4  A    between atoms: C15_19  and  O1_20 
ROOT
HETATM    1  C6  UNL     1      24.665   1.796  52.100  1.00  0.00     0.151 C 
HETATM    2  C7  UNL     1      24.738   3.273  52.498  1.00  0.00     0.094 C 
HETATM    3  C8  UNL     1      23.339   3.627  52.026  1.00  0.00     0.064 C 
HETATM    4  N1  UNL     1      22.630   2.535  52.117  1.00  0.00    -0.174 NA
HETATM    5  N2  UNL     1      23.386   1.458  52.605  1.00  0.00    -0.236 N 
ENDROOT
BRANCH   1   6
HETATM    6  C5  UNL     1      25.812   1.011  52.492  1.00  0.00    -0.033 A 
HETATM    7  C4  UNL     1      26.770   1.639  53.299  1.00  0.00     0.010 A 
HETATM    8  C3  UNL     1      27.921   1.012  53.732  1.00  0.00     0.007 A 
HETATM    9  C2  UNL     1      28.165  -0.293  53.369  1.00  0.00    -0.062 A 
HETATM   10  C1  UNL     1      29.378  -1.041  53.792  1.00  0.00     0.048 C 
HETATM   11  C18 UNL     1      27.249  -0.949  52.576  1.00  0.00     0.007 A 
HETATM   12  C17 UNL     1      26.112  -0.287  52.164  1.00  0.00     0.010 A 
ENDBRANCH   1   6
BRANCH   5  13
HETATM   13  C14 UNL     1      22.876   0.369  53.403  1.00  0.00     0.192 A 
HETATM   14  N3  UNL     1      23.375  -0.349  54.449  1.00  0.00    -0.198 NA
HETATM   15  C15 UNL     1      22.529  -1.278  54.871  1.00  0.00     0.171 A 
HETATM   16  C16 UNL     1      21.192  -1.628  54.393  1.00  0.00     0.111 A 
HETATM   17  S1  UNL     1      21.179  -0.311  53.039  1.00  0.00    -0.058 SA
BRANCH  15  18
HETATM   18  O1  UNL     1      23.178  -1.930  55.943  1.00  0.00    -0.344 OA
HETATM   19  H13 UNL     1      23.972  -2.534  55.790  1.00  0.00     0.219 HD
ENDBRANCH  15  18
ENDBRANCH   5  13
BRANCH   3  20
HETATM   20  C9  UNL     1      22.899   4.937  51.566  1.00  0.00    -0.025 A 
HETATM   21  C10 UNL     1      21.651   5.300  51.306  1.00  0.00     0.012 A 
HETATM   22  C11 UNL     1      21.696   6.692  50.877  1.00  0.00     0.038 A 
HETATM   23  C12 UNL     1      22.914   7.176  50.869  1.00  0.00     0.098 A 
HETATM   24  F1  UNL     1      23.523   8.344  50.576  1.00  0.00    -0.210 F 
HETATM   25  C13 UNL     1      23.802   6.080  51.315  1.00  0.00     0.110 A 
ENDBRANCH   3  20
TORSDOF 4
ENDMDL
MODEL 6
REMARK VINA RESULT:      -8.7      4.145      6.137
REMARK  4 active torsions:
REMARK  status: ('A' for Active; 'I' for Inactive)
REMARK    1  A    between atoms: C5_5  and  C6_6 
REMARK    2  A    between atoms: C8_8  and  C9_9 
REMARK    3  A    between atoms: N2_16  and  C14_17 
REMARK    4  A    between atoms: C15_19  and  O1_20 
ROOT
HETATM    1  C6  UNL     1      23.933   0.887  51.988  1.00  0.00     0.151 C 
HETATM    2  C7  UNL     1      24.730   0.725  53.284  1.00  0.00     0.094 C 
HETATM    3  C8  UNL     1      26.040   1.250  52.725  1.00  0.00     0.064 C 
HETATM    4  N1  UNL     1      25.728   2.077  51.765  1.00  0.00    -0.174 NA
HETATM    5  N2  UNL     1      24.339   2.187  51.599  1.00  0.00    -0.236 N 
ENDROOT
BRANCH   1   6
HETATM    6  C5  UNL     1      22.525   0.589  52.107  1.00  0.00    -0.033 A 
HETATM    7  C4  UNL     1      22.047   0.263  53.383  1.00  0.00     0.010 A 
HETATM    8  C3  UNL     1      20.729  -0.058  53.636  1.00  0.00     0.007 A 
HETATM    9  C2  UNL     1      19.818  -0.066  52.604  1.00  0.00    -0.062 A 
HETATM   10  C1  UNL     1      18.381  -0.400  52.792  1.00  0.00     0.048 C 
HETATM   11  C18 UNL     1      20.244   0.249  51.333  1.00  0.00     0.007 A 
HETATM   12  C17 UNL     1      21.570   0.564  51.122  1.00  0.00     0.010 A 
ENDBRANCH   1   6
BRANCH   5  13
HETATM   13  C14 UNL     1      23.638   3.367  51.153  1.00  0.00     0.192 A 
HETATM   14  N3  UNL     1      23.062   4.421  51.797  1.00  0.00    -0.198 NA
HETATM   15  C15 UNL     1      22.519   5.290  50.955  1.00  0.00     0.171 A 
HETATM   16  C16 UNL     1      22.454   5.277  49.495  1.00  0.00     0.111 A 
HETATM   17  S1  UNL     1      23.388   3.644  49.327  1.00  0.00    -0.058 SA
BRANCH  15  18
HETATM   18  O1  UNL     1      21.969   6.313  51.759  1.00  0.00    -0.344 OA
HETATM   19  H13 UNL     1      21.190   6.137  52.377  1.00  0.00     0.219 HD
ENDBRANCH  15  18
ENDBRANCH   5  13
BRANCH   3  20
HETATM   20  C9  UNL     1      27.374   0.885  53.186  1.00  0.00    -0.025 A 
HETATM   21  C10 UNL     1      28.282   1.708  53.691  1.00  0.00     0.012 A 
HETATM   22  C11 UNL     1      29.453   0.900  54.009  1.00  0.00     0.038 A 
HETATM   23  C12 UNL     1      29.285  -0.366  53.715  1.00  0.00     0.098 A 
HETATM   24  F1  UNL     1      29.993  -1.512  53.790  1.00  0.00    -0.210 F 
HETATM   25  C13 UNL     1      27.920  -0.488  53.155  1.00  0.00     0.110 A 
ENDBRANCH   3  20
TORSDOF 4
ENDMDL
MODEL 7
REMARK VINA RESULT:      -8.4      4.659      8.358
REMARK  4 active torsions:
REMARK  status: ('A' for Active; 'I' for Inactive)
REMARK    1  A    between atoms: C5_5  and  C6_6 
REMARK    2  A    between atoms: C8_8  and  C9_9 
REMARK    3  A    between atoms: N2_16  and  C14_17 
REMARK    4  A    between atoms: C15_19  and  O1_20 
ROOT
HETATM    1  C6  UNL     1      24.765   3.908  50.453  1.00  0.00     0.151 C 
HETATM    2  C7  UNL     1      25.308   2.538  50.865  1.00  0.00     0.094 C 
HETATM    3  C8  UNL     1      23.988   2.002  51.389  1.00  0.00     0.064 C 
HETATM    4  N1  UNL     1      23.048   2.616  50.725  1.00  0.00    -0.174 NA
HETATM    5  N2  UNL     1      23.574   3.523  49.791  1.00  0.00    -0.236 N 
ENDROOT
BRANCH   1   6
HETATM    6  C5  UNL     1      25.717   4.751  49.767  1.00  0.00    -0.033 A 
HETATM    7  C4  UNL     1      26.843   4.125  49.218  1.00  0.00     0.010 A 
HETATM    8  C3  UNL     1      27.838   4.812  48.552  1.00  0.00     0.007 A 
HETATM    9  C2  UNL     1      27.745   6.177  48.405  1.00  0.00    -0.062 A 
HETATM   10  C1  UNL     1      28.772   6.990  47.702  1.00  0.00     0.048 C 
HETATM   11  C18 UNL     1      26.654   6.833  48.930  1.00  0.00     0.007 A 
HETATM   12  C17 UNL     1      25.681   6.111  49.589  1.00  0.00     0.010 A 
ENDBRANCH   1   6
BRANCH   5  13
HETATM   13  C14 UNL     1      22.968   3.872  48.528  1.00  0.00     0.192 A 
HETATM   14  N3  UNL     1      22.751   5.051  47.879  1.00  0.00    -0.198 NA
HETATM   15  C15 UNL     1      22.143   4.880  46.713  1.00  0.00     0.171 A 
HETATM   16  C16 UNL     1      21.690   3.656  46.054  1.00  0.00     0.111 A 
HETATM   17  S1  UNL     1      22.286   2.521  47.440  1.00  0.00    -0.058 SA
BRANCH  15  18
HETATM   18  O1  UNL     1      21.988   6.173  46.166  1.00  0.00    -0.344 OA
HETATM   19  H13 UNL     1      21.113   6.473  45.762  1.00  0.00     0.219 HD
ENDBRANCH  15  18
ENDBRANCH   5  13
BRANCH   3  20
HETATM   20  C9  UNL     1      23.827   0.997  52.432  1.00  0.00    -0.025 A 
HETATM   21  C10 UNL     1      22.687   0.450  52.826  1.00  0.00     0.012 A 
HETATM   22  C11 UNL     1      23.015  -0.495  53.886  1.00  0.00     0.038 A 
HETATM   23  C12 UNL     1      24.300  -0.536  54.142  1.00  0.00     0.098 A 
HETATM   24  F1  UNL     1      25.132  -1.192  54.977  1.00  0.00    -0.210 F 
HETATM   25  C13 UNL     1      24.941   0.429  53.221  1.00  0.00     0.110 A 
ENDBRANCH   3  20
TORSDOF 4
ENDMDL
MODEL 8
REMARK VINA RESULT:      -8.1      4.039      7.379
REMARK  4 active torsions:
REMARK  status: ('A' for Active; 'I' for Inactive)
REMARK    1  A    between atoms: C5_5  and  C6_6 
REMARK    2  A    between atoms: C8_8  and  C9_9 
REMARK    3  A    between atoms: N2_16  and  C14_17 
REMARK    4  A    between atoms: C15_19  and  O1_20 
ROOT
HETATM    1  C6  UNL     1      25.564   2.821  51.431  1.00  0.00     0.151 C 
HETATM    2  C7  UNL     1      26.449   1.697  50.886  1.00  0.00     0.094 C 
HETATM    3  C8  UNL     1      26.154   0.715  52.006  1.00  0.00     0.064 C 
HETATM    4  N1  UNL     1      24.965   1.009  52.454  1.00  0.00    -0.174 NA
HETATM    5  N2  UNL     1      24.397   2.091  51.762  1.00  0.00    -0.236 N 
ENDROOT
BRANCH   1   6
HETATM    6  C5  UNL     1      25.458   3.975  50.568  1.00  0.00    -0.033 A 
HETATM    7  C4  UNL     1      26.483   4.167  49.632  1.00  0.00     0.010 A 
HETATM    8  C3  UNL     1      26.515   5.235  48.758  1.00  0.00     0.007 A 
HETATM    9  C2  UNL     1      25.506   6.171  48.785  1.00  0.00    -0.062 A 
HETATM   10  C1  UNL     1      25.466   7.348  47.879  1.00  0.00     0.048 C 
HETATM   11  C18 UNL     1      24.479   6.020  49.690  1.00  0.00     0.007 A 
HETATM   12  C17 UNL     1      24.483   4.939  50.546  1.00  0.00     0.010 A 
ENDBRANCH   1   6
BRANCH   5  13
HETATM   13  C14 UNL     1      22.987   2.282  51.516  1.00  0.00     0.192 A 
HETATM   14  N3  UNL     1      21.962   2.796  52.252  1.00  0.00    -0.198 NA
HETATM   15  C15 UNL     1      20.809   2.766  51.600  1.00  0.00     0.171 A 
HETATM   16  C16 UNL     1      20.494   2.277  50.258  1.00  0.00     0.111 A 
HETATM   17  S1  UNL     1      22.269   1.756  49.879  1.00  0.00    -0.058 SA
BRANCH  15  18
HETATM   18  O1  UNL     1      19.854   3.324  52.478  1.00  0.00    -0.344 OA
HETATM   19  H13 UNL     1      19.554   4.284  52.390  1.00  0.00     0.219 HD
ENDBRANCH  15  18
ENDBRANCH   5  13
BRANCH   3  20
HETATM   20  C9  UNL     1      27.044  -0.341  52.472  1.00  0.00    -0.025 A 
HETATM   21  C10 UNL     1      26.813  -1.645  52.413  1.00  0.00     0.012 A 
HETATM   22  C11 UNL     1      27.975  -2.306  52.994  1.00  0.00     0.038 A 
HETATM   23  C12 UNL     1      28.887  -1.456  53.398  1.00  0.00     0.098 A 
HETATM   24  F1  UNL     1      30.103  -1.497  53.981  1.00  0.00    -0.210 F 
HETATM   25  C13 UNL     1      28.363  -0.105  53.095  1.00  0.00     0.110 A 
ENDBRANCH   3  20
TORSDOF 4
ENDMDL
MODEL 9
REMARK VINA RESULT:      -7.8      4.788      7.709
REMARK  4 active torsions:
REMARK  status: ('A' for Active; 'I' for Inactive)
REMARK    1  A    between atoms: C5_5  and  C6_6 
REMARK    2  A    between atoms: C8_8  and  C9_9 
REMARK    3  A    between atoms: N2_16  and  C14_17 
REMARK    4  A    between atoms: C15_19  and  O1_20 
ROOT
HETATM    1  C6  UNL     1      22.606   0.838  52.809  1.00  0.00     0.151 C 
HETATM    2  C7  UNL     1      21.770  -0.254  52.137  1.00  0.00     0.094 C 
HETATM    3  C8  UNL     1      20.449   0.488  52.227  1.00  0.00     0.064 C 
HETATM    4  N1  UNL     1      20.737   1.760  52.222  1.00  0.00    -0.174 NA
HETATM    5  N2  UNL     1      22.120   1.984  52.134  1.00  0.00    -0.236 N 
ENDROOT
BRANCH   1   6
HETATM    6  C5  UNL     1      24.027   0.579  52.832  1.00  0.00    -0.033 A 
HETATM    7  C4  UNL     1      24.504  -0.267  53.842  1.00  0.00     0.010 A 
HETATM    8  C3  UNL     1      25.838  -0.586  53.992  1.00  0.00     0.007 A 
HETATM    9  C2  UNL     1      26.767  -0.063  53.121  1.00  0.00    -0.062 A 
HETATM   10  C1  UNL     1      28.222  -0.357  53.212  1.00  0.00     0.048 C 
HETATM   11  C18 UNL     1      26.342   0.774  52.113  1.00  0.00     0.007 A 
HETATM   12  C17 UNL     1      24.999   1.068  51.998  1.00  0.00     0.010 A 
ENDBRANCH   1   6
BRANCH   5  13
HETATM   13  C14 UNL     1      22.747   3.115  51.491  1.00  0.00     0.192 A 
HETATM   14  N3  UNL     1      23.033   3.424  50.195  1.00  0.00    -0.198 NA
HETATM   15  C15 UNL     1      23.633   4.601  50.078  1.00  0.00     0.171 A 
HETATM   16  C16 UNL     1      24.015   5.572  51.102  1.00  0.00     0.111 A 
HETATM   17  S1  UNL     1      23.351   4.536  52.534  1.00  0.00    -0.058 SA
BRANCH  15  18
HETATM   18  O1  UNL     1      23.862   4.781  48.697  1.00  0.00    -0.344 OA
HETATM   19  H13 UNL     1      24.778   5.014  48.340  1.00  0.00     0.219 HD
ENDBRANCH  15  18
ENDBRANCH   5  13
BRANCH   3  20
HETATM   20  C9  UNL     1      19.128  -0.124  52.305  1.00  0.00    -0.025 A 
HETATM   21  C10 UNL     1      18.697  -0.942  53.254  1.00  0.00     0.012 A 
HETATM   22  C11 UNL     1      17.325  -1.298  52.914  1.00  0.00     0.038 A 
HETATM   23  C12 UNL     1      16.919  -0.730  51.805  1.00  0.00     0.098 A 
HETATM   24  F1  UNL     1      15.802  -0.698  51.049  1.00  0.00    -0.210 F 
HETATM   25  C13 UNL     1      18.054   0.082  51.312  1.00  0.00     0.110 A 
ENDBRANCH   3  20
TORSDOF 4
ENDMDL
