MODEL 1
REMARK VINA RESULT:      -9.1      0.000      0.000
REMARK  2 active torsions:
REMARK  status: ('A' for Active; 'I' for Inactive)
REMARK    1  A    between atoms: N4_10  and  C7_11 
REMARK    2  A    between atoms: C7_11  and  C8_12 
ROOT
HETATM    1  C1  UNL     1      23.113  -0.749  54.085  1.00  0.00     0.037 C 
HETATM    2  C2  UNL     1      23.698   0.147  52.981  1.00  0.00     0.110 C 
HETATM    3  N1  UNL     1      22.929   1.363  53.107  1.00  0.00    -0.391 N 
HETATM    4  C3  UNL     1      21.513   1.198  53.059  1.00  0.00     0.159 C 
HETATM    5  C4  UNL     1      20.511   1.824  52.412  1.00  0.00     0.102 C 
HETATM    6  N2  UNL     1      21.054   2.842  51.788  1.00  0.00    -0.269 NA
HETATM    7  C5  UNL     1      22.132   2.440  50.898  1.00  0.00     0.223 C 
HETATM    8  N3  UNL     1      22.756   3.376  50.208  1.00  0.00    -0.253 NA
HETATM    9  C6  UNL     1      23.835   3.014  49.309  1.00  0.00     0.422 C 
HETATM   10  N4  UNL     1      25.054   3.566  49.842  1.00  0.00     0.112 N 
HETATM   11  C14 UNL     1      25.388   3.047  51.137  1.00  0.00     0.279 C 
HETATM   12  C15 UNL     1      25.715   1.587  51.062  1.00  0.00     0.069 C 
HETATM   13  C16 UNL     1      26.047   0.989  52.370  1.00  0.00    -0.048 A 
HETATM   14  C17 UNL     1      27.369   1.092  52.749  1.00  0.00     0.008 A 
HETATM   15  C18 UNL     1      27.886   0.600  53.936  1.00  0.00     0.001 A 
HETATM   16  C19 UNL     1      27.013  -0.038  54.799  1.00  0.00     0.001 A 
HETATM   17  C20 UNL     1      25.690  -0.132  54.404  1.00  0.00     0.010 A 
HETATM   18  C21 UNL     1      25.149   0.361  53.202  1.00  0.00    -0.030 A 
HETATM   19  H5  UNL     1      22.788   2.325  53.222  1.00  0.00     0.159 HD
ENDROOT
BRANCH  10  20
HETATM   20  C7  UNL     1      25.079   4.999  49.765  1.00  0.00     0.313 C 
BRANCH  20  21
HETATM   21  C8  UNL     1      26.318   5.439  49.101  1.00  0.00    -0.030 A 
HETATM   22  C9  UNL     1      26.337   6.770  48.662  1.00  0.00     0.009 A 
HETATM   23  C10 UNL     1      27.384   7.413  48.034  1.00  0.00     0.001 A 
HETATM   24  C11 UNL     1      28.523   6.669  47.819  1.00  0.00     0.000 A 
HETATM   25  C12 UNL     1      28.565   5.355  48.229  1.00  0.00     0.001 A 
HETATM   26  C13 UNL     1      27.506   4.737  48.853  1.00  0.00     0.009 A 
ENDBRANCH  20  21
ENDBRANCH  10  20
TORSDOF 2
ENDMDL
MODEL 2
REMARK VINA RESULT:      -9.1      2.567      5.512
REMARK  2 active torsions:
REMARK  status: ('A' for Active; 'I' for Inactive)
REMARK    1  A    between atoms: N4_10  and  C7_11 
REMARK    2  A    between atoms: C7_11  and  C8_12 
ROOT
HETATM    1  C1  UNL     1      19.968   3.122  51.980  1.00  0.00     0.037 C 
HETATM    2  C2  UNL     1      21.407   2.588  51.893  1.00  0.00     0.110 C 
HETATM    3  N1  UNL     1      22.199   3.715  52.328  1.00  0.00    -0.391 N 
HETATM    4  C3  UNL     1      21.966   4.934  51.623  1.00  0.00     0.159 C 
HETATM    5  C4  UNL     1      22.761   5.874  51.076  1.00  0.00     0.102 C 
HETATM    6  N2  UNL     1      23.992   5.546  51.391  1.00  0.00    -0.269 NA
HETATM    7  C5  UNL     1      24.337   4.200  50.962  1.00  0.00     0.223 C 
HETATM    8  N3  UNL     1      25.553   3.754  51.216  1.00  0.00    -0.253 NA
HETATM    9  C6  UNL     1      25.936   2.418  50.803  1.00  0.00     0.422 C 
HETATM   10  N4  UNL     1      26.147   1.633  51.992  1.00  0.00     0.112 N 
HETATM   11  C14 UNL     1      24.968   1.507  52.800  1.00  0.00     0.279 C 
HETATM   12  C15 UNL     1      23.913   0.715  52.088  1.00  0.00     0.069 C 
HETATM   13  C16 UNL     1      22.664   0.568  52.861  1.00  0.00    -0.048 A 
HETATM   14  C17 UNL     1      22.633  -0.496  53.737  1.00  0.00     0.008 A 
HETATM   15  C18 UNL     1      21.560  -0.809  54.555  1.00  0.00     0.001 A 
HETATM   16  C19 UNL     1      20.444   0.005  54.486  1.00  0.00     0.001 A 
HETATM   17  C20 UNL     1      20.492   1.069  53.602  1.00  0.00     0.010 A 
HETATM   18  C21 UNL     1      21.573   1.400  52.765  1.00  0.00    -0.030 A 
HETATM   19  H5  UNL     1      22.859   4.186  52.875  1.00  0.00     0.159 HD
ENDROOT
BRANCH  10  20
HETATM   20  C7  UNL     1      27.308   2.056  52.720  1.00  0.00     0.313 C 
BRANCH  20  21
HETATM   21  C8  UNL     1      28.149   0.888  53.035  1.00  0.00    -0.030 A 
HETATM   22  C9  UNL     1      27.571  -0.365  52.793  1.00  0.00     0.009 A 
HETATM   23  C10 UNL     1      28.164  -1.595  52.991  1.00  0.00     0.001 A 
HETATM   24  C11 UNL     1      29.454  -1.586  53.475  1.00  0.00     0.000 A 
HETATM   25  C12 UNL     1      30.076  -0.384  53.732  1.00  0.00     0.001 A 
HETATM   26  C13 UNL     1      29.461   0.829  53.526  1.00  0.00     0.009 A 
ENDBRANCH  20  21
ENDBRANCH  10  20
TORSDOF 2
ENDMDL
MODEL 3
REMARK VINA RESULT:      -9.0      2.037      2.922
REMARK  2 active torsions:
REMARK  status: ('A' for Active; 'I' for Inactive)
REMARK    1  A    between atoms: N4_10  and  C7_11 
REMARK    2  A    between atoms: C7_11  and  C8_12 
ROOT
HETATM    1  C1  UNL     1      18.947  -0.340  52.782  1.00  0.00     0.037 C 
HETATM    2  C2  UNL     1      20.167   0.370  52.173  1.00  0.00     0.110 C 
HETATM    3  N1  UNL     1      19.828   1.768  52.305  1.00  0.00    -0.391 N 
HETATM    4  C3  UNL     1      18.572   2.148  51.748  1.00  0.00     0.159 C 
HETATM    5  C4  UNL     1      18.155   3.159  50.962  1.00  0.00     0.102 C 
HETATM    6  N2  UNL     1      19.187   3.955  50.805  1.00  0.00    -0.269 NA
HETATM    7  C5  UNL     1      20.346   3.263  50.264  1.00  0.00     0.223 C 
HETATM    8  N3  UNL     1      21.449   3.958  50.055  1.00  0.00    -0.253 NA
HETATM    9  C6  UNL     1      22.625   3.306  49.515  1.00  0.00     0.422 C 
HETATM   10  N4  UNL     1      23.640   3.311  50.537  1.00  0.00     0.112 N 
HETATM   11  C14 UNL     1      23.256   2.588  51.716  1.00  0.00     0.279 C 
HETATM   12  C15 UNL     1      23.116   1.125  51.425  1.00  0.00     0.069 C 
HETATM   13  C16 UNL     1      22.700   0.329  52.596  1.00  0.00    -0.048 A 
HETATM   14  C17 UNL     1      23.725  -0.104  53.411  1.00  0.00     0.008 A 
HETATM   15  C18 UNL     1      23.551  -0.861  54.558  1.00  0.00     0.001 A 
HETATM   16  C19 UNL     1      22.258  -1.204  54.908  1.00  0.00     0.001 A 
HETATM   17  C20 UNL     1      21.240  -0.762  54.080  1.00  0.00     0.010 A 
HETATM   18  C21 UNL     1      21.401   0.007  52.911  1.00  0.00    -0.030 A 
HETATM   19  H5  UNL     1      19.959   2.698  52.582  1.00  0.00     0.159 HD
ENDROOT
BRANCH  10  20
HETATM   20  C7  UNL     1      24.135   4.631  50.801  1.00  0.00     0.313 C 
BRANCH  20  21
HETATM   21  C8  UNL     1      25.343   4.879  49.995  1.00  0.00    -0.030 A 
HETATM   22  C9  UNL     1      25.531   6.200  49.564  1.00  0.00     0.009 A 
HETATM   23  C10 UNL     1      26.588   6.678  48.818  1.00  0.00     0.001 A 
HETATM   24  C11 UNL     1      27.555   5.762  48.463  1.00  0.00     0.000 A 
HETATM   25  C12 UNL     1      27.425   4.449  48.858  1.00  0.00     0.001 A 
HETATM   26  C13 UNL     1      26.360   3.998  49.602  1.00  0.00     0.009 A 
ENDBRANCH  20  21
ENDBRANCH  10  20
TORSDOF 2
ENDMDL
MODEL 4
REMARK VINA RESULT:      -8.6      1.582      4.448
REMARK  2 active torsions:
REMARK  status: ('A' for Active; 'I' for Inactive)
REMARK    1  A    between atoms: N4_10  and  C7_11 
REMARK    2  A    between atoms: C7_11  and  C8_12 
ROOT
HETATM    1  C1  UNL     1      21.241  -0.835  54.635  1.00  0.00     0.037 C 
HETATM    2  C2  UNL     1      21.852   0.258  53.743  1.00  0.00     0.110 C 
HETATM    3  N1  UNL     1      23.085  -0.344  53.290  1.00  0.00    -0.391 N 
HETATM    4  C3  UNL     1      23.943  -0.828  54.322  1.00  0.00     0.159 C 
HETATM    5  C4  UNL     1      25.262  -0.728  54.576  1.00  0.00     0.102 C 
HETATM    6  N2  UNL     1      25.790  -0.106  53.549  1.00  0.00    -0.269 NA
HETATM    7  C5  UNL     1      25.168   1.184  53.298  1.00  0.00     0.223 C 
HETATM    8  N3  UNL     1      25.616   1.911  52.292  1.00  0.00    -0.253 NA
HETATM    9  C6  UNL     1      25.022   3.203  52.010  1.00  0.00     0.422 C 
HETATM   10  N4  UNL     1      24.348   3.111  50.741  1.00  0.00     0.112 N 
HETATM   11  C14 UNL     1      23.287   2.145  50.735  1.00  0.00     0.279 C 
HETATM   12  C15 UNL     1      22.175   2.566  51.646  1.00  0.00     0.069 C 
HETATM   13  C16 UNL     1      21.060   1.600  51.701  1.00  0.00    -0.048 A 
HETATM   14  C17 UNL     1      20.095   1.756  50.728  1.00  0.00     0.008 A 
HETATM   15  C18 UNL     1      18.971   0.957  50.602  1.00  0.00     0.001 A 
HETATM   16  C19 UNL     1      18.809  -0.069  51.515  1.00  0.00     0.001 A 
HETATM   17  C20 UNL     1      19.787  -0.213  52.485  1.00  0.00     0.010 A 
HETATM   18  C21 UNL     1      20.933   0.592  52.627  1.00  0.00    -0.030 A 
HETATM   19  H5  UNL     1      23.742  -0.651  52.633  1.00  0.00     0.159 HD
ENDROOT
BRANCH  10  20
HETATM   20  C7  UNL     1      25.268   2.970  49.649  1.00  0.00     0.313 C 
BRANCH  20  21
HETATM   21  C8  UNL     1      25.792   4.293  49.266  1.00  0.00    -0.030 A 
HETATM   22  C9  UNL     1      27.152   4.339  48.929  1.00  0.00     0.009 A 
HETATM   23  C10 UNL     1      27.860   5.451  48.524  1.00  0.00     0.001 A 
HETATM   24  C11 UNL     1      27.157   6.633  48.443  1.00  0.00     0.000 A 
HETATM   25  C12 UNL     1      25.817   6.651  48.761  1.00  0.00     0.001 A 
HETATM   26  C13 UNL     1      25.134   5.526  49.163  1.00  0.00     0.009 A 
ENDBRANCH  20  21
ENDBRANCH  10  20
TORSDOF 2
ENDMDL
MODEL 5
REMARK VINA RESULT:      -8.5      2.235      7.113
REMARK  2 active torsions:
REMARK  status: ('A' for Active; 'I' for Inactive)
REMARK    1  A    between atoms: N4_10  and  C7_11 
REMARK    2  A    between atoms: C7_11  and  C8_12 
ROOT
HETATM    1  C1  UNL     1      26.640   3.210  50.701  1.00  0.00     0.037 C 
HETATM    2  C2  UNL     1      25.246   2.850  51.238  1.00  0.00     0.110 C 
HETATM    3  N1  UNL     1      24.426   2.862  50.049  1.00  0.00    -0.391 N 
HETATM    4  C3  UNL     1      24.482   4.062  49.279  1.00  0.00     0.159 C 
HETATM    5  C4  UNL     1      23.562   4.857  48.702  1.00  0.00     0.102 C 
HETATM    6  N2  UNL     1      22.404   4.263  48.870  1.00  0.00    -0.269 NA
HETATM    7  C5  UNL     1      22.114   3.993  50.270  1.00  0.00     0.223 C 
HETATM    8  N3  UNL     1      20.973   3.401  50.570  1.00  0.00    -0.253 NA
HETATM    9  C6  UNL     1      20.648   3.116  51.954  1.00  0.00     0.422 C 
HETATM   10  N4  UNL     1      20.635   1.685  52.117  1.00  0.00     0.112 N 
HETATM   11  C14 UNL     1      21.906   1.076  51.845  1.00  0.00     0.279 C 
HETATM   12  C15 UNL     1      22.928   1.495  52.856  1.00  0.00     0.069 C 
HETATM   13  C16 UNL     1      24.265   0.917  52.617  1.00  0.00    -0.048 A 
HETATM   14  C17 UNL     1      24.478  -0.329  53.168  1.00  0.00     0.008 A 
HETATM   15  C18 UNL     1      25.659  -1.044  53.059  1.00  0.00     0.001 A 
HETATM   16  C19 UNL     1      26.695  -0.466  52.348  1.00  0.00     0.001 A 
HETATM   17  C20 UNL     1      26.465   0.785  51.801  1.00  0.00     0.010 A 
HETATM   18  C21 UNL     1      25.272   1.524  51.903  1.00  0.00    -0.030 A 
HETATM   19  H5  UNL     1      23.799   2.498  49.391  1.00  0.00     0.159 HD
ENDROOT
BRANCH  10  20
HETATM   20  C7  UNL     1      19.537   1.071  51.427  1.00  0.00     0.313 C 
BRANCH  20  21
HETATM   21  C8  UNL     1      19.004  -0.042  52.233  1.00  0.00    -0.030 A 
HETATM   22  C9  UNL     1      17.707  -0.464  51.910  1.00  0.00     0.009 A 
HETATM   23  C10 UNL     1      17.005  -1.491  52.506  1.00  0.00     0.001 A 
HETATM   24  C11 UNL     1      17.647  -2.168  53.520  1.00  0.00     0.000 A 
HETATM   25  C12 UNL     1      18.924  -1.798  53.882  1.00  0.00     0.001 A 
HETATM   26  C13 UNL     1      19.601  -0.769  53.271  1.00  0.00     0.009 A 
ENDBRANCH  20  21
ENDBRANCH  10  20
TORSDOF 2
ENDMDL
MODEL 6
REMARK VINA RESULT:      -8.4      5.102      8.544
REMARK  2 active torsions:
REMARK  status: ('A' for Active; 'I' for Inactive)
REMARK    1  A    between atoms: N4_10  and  C7_11 
REMARK    2  A    between atoms: C7_11  and  C8_12 
ROOT
HETATM    1  C1  UNL     1      25.655   8.919  49.151  1.00  0.00     0.037 C 
HETATM    2  C2  UNL     1      26.898   8.143  48.683  1.00  0.00     0.110 C 
HETATM    3  N1  UNL     1      27.966   8.752  49.440  1.00  0.00    -0.391 N 
HETATM    4  C3  UNL     1      28.065  10.171  49.326  1.00  0.00     0.159 C 
HETATM    5  C4  UNL     1      29.079  11.032  49.118  1.00  0.00     0.102 C 
HETATM    6  N2  UNL     1      30.179  10.316  49.122  1.00  0.00    -0.269 NA
HETATM    7  C5  UNL     1      30.146   9.240  48.144  1.00  0.00     0.223 C 
HETATM    8  N3  UNL     1      31.199   8.450  48.048  1.00  0.00    -0.253 NA
HETATM    9  C6  UNL     1      31.206   7.367  47.084  1.00  0.00     0.422 C 
HETATM   10  N4  UNL     1      31.207   6.127  47.816  1.00  0.00     0.112 N 
HETATM   11  C14 UNL     1      30.042   5.958  48.638  1.00  0.00     0.279 C 
HETATM   12  C15 UNL     1      28.809   5.822  47.798  1.00  0.00     0.069 C 
HETATM   13  C16 UNL     1      27.572   5.666  48.587  1.00  0.00    -0.048 A 
HETATM   14  C17 UNL     1      27.261   4.373  48.951  1.00  0.00     0.008 A 
HETATM   15  C18 UNL     1      26.149   4.011  49.693  1.00  0.00     0.001 A 
HETATM   16  C19 UNL     1      25.292   5.020  50.096  1.00  0.00     0.001 A 
HETATM   17  C20 UNL     1      25.619   6.313  49.722  1.00  0.00     0.010 A 
HETATM   18  C21 UNL     1      26.744   6.696  48.969  1.00  0.00    -0.030 A 
HETATM   19  H5  UNL     1      28.732   8.772  50.049  1.00  0.00     0.159 HD
ENDROOT
BRANCH  10  20
HETATM   20  C7  UNL     1      32.444   5.907  48.509  1.00  0.00     0.313 C 
BRANCH  20  21
HETATM   21  C8  UNL     1      33.258   4.926  47.772  1.00  0.00    -0.030 A 
HETATM   22  C9  UNL     1      32.729   3.630  47.689  1.00  0.00     0.009 A 
HETATM   23  C10 UNL     1      33.296   2.552  47.042  1.00  0.00     0.001 A 
HETATM   24  C11 UNL     1      34.501   2.774  46.414  1.00  0.00     0.000 A 
HETATM   25  C12 UNL     1      35.071   4.028  46.460  1.00  0.00     0.001 A 
HETATM   26  C13 UNL     1      34.485   5.087  47.114  1.00  0.00     0.009 A 
ENDBRANCH  20  21
ENDBRANCH  10  20
TORSDOF 2
ENDMDL
MODEL 7
REMARK VINA RESULT:      -8.4      2.742      6.104
REMARK  2 active torsions:
REMARK  status: ('A' for Active; 'I' for Inactive)
REMARK    1  A    between atoms: N4_10  and  C7_11 
REMARK    2  A    between atoms: C7_11  and  C8_12 
ROOT
HETATM    1  C1  UNL     1      19.580   2.866  51.530  1.00  0.00     0.037 C 
HETATM    2  C2  UNL     1      21.017   2.473  51.911  1.00  0.00     0.110 C 
HETATM    3  N1  UNL     1      20.973   1.029  51.897  1.00  0.00    -0.391 N 
HETATM    4  C3  UNL     1      19.954   0.440  52.704  1.00  0.00     0.159 C 
HETATM    5  C4  UNL     1      19.921  -0.572  53.591  1.00  0.00     0.102 C 
HETATM    6  N2  UNL     1      21.112  -1.122  53.570  1.00  0.00    -0.269 NA
HETATM    7  C5  UNL     1      22.172  -0.166  53.849  1.00  0.00     0.223 C 
HETATM    8  N3  UNL     1      23.418  -0.599  53.861  1.00  0.00    -0.253 NA
HETATM    9  C6  UNL     1      24.503   0.323  54.136  1.00  0.00     0.422 C 
HETATM   10  N4  UNL     1      25.288   0.450  52.936  1.00  0.00     0.112 N 
HETATM   11  C14 UNL     1      24.545   0.985  51.831  1.00  0.00     0.279 C 
HETATM   12  C15 UNL     1      24.146   2.405  52.092  1.00  0.00     0.069 C 
HETATM   13  C16 UNL     1      23.358   3.006  50.998  1.00  0.00    -0.048 A 
HETATM   14  C17 UNL     1      24.096   3.579  49.983  1.00  0.00     0.008 A 
HETATM   15  C18 UNL     1      23.552   4.193  48.867  1.00  0.00     0.001 A 
HETATM   16  C19 UNL     1      22.173   4.233  48.766  1.00  0.00     0.001 A 
HETATM   17  C20 UNL     1      21.447   3.653  49.793  1.00  0.00     0.010 A 
HETATM   18  C21 UNL     1      21.984   3.027  50.933  1.00  0.00    -0.030 A 
HETATM   19  H5  UNL     1      21.250   0.128  51.633  1.00  0.00     0.159 HD
ENDROOT
BRANCH  10  20
HETATM   20  C7  UNL     1      26.003  -0.755  52.626  1.00  0.00     0.313 C 
BRANCH  20  21
HETATM   21  C8  UNL     1      27.414  -0.613  53.026  1.00  0.00    -0.030 A 
HETATM   22  C9  UNL     1      28.169  -1.793  53.034  1.00  0.00     0.009 A 
HETATM   23  C10 UNL     1      29.506  -1.911  53.353  1.00  0.00     0.001 A 
HETATM   24  C11 UNL     1      30.161  -0.748  53.696  1.00  0.00     0.000 A 
HETATM   25  C12 UNL     1      29.472   0.444  53.705  1.00  0.00     0.001 A 
HETATM   26  C13 UNL     1      28.137   0.533  53.384  1.00  0.00     0.009 A 
ENDBRANCH  20  21
ENDBRANCH  10  20
TORSDOF 2
ENDMDL
MODEL 8
REMARK VINA RESULT:      -8.3      2.822      6.016
REMARK  2 active torsions:
REMARK  status: ('A' for Active; 'I' for Inactive)
REMARK    1  A    between atoms: N4_10  and  C7_11 
REMARK    2  A    between atoms: C7_11  and  C8_12 
ROOT
HETATM    1  C1  UNL     1      19.294   4.389  51.191  1.00  0.00     0.037 C 
HETATM    2  C2  UNL     1      20.721   4.021  51.631  1.00  0.00     0.110 C 
HETATM    3  N1  UNL     1      21.010   2.844  50.846  1.00  0.00    -0.391 N 
HETATM    4  C3  UNL     1      20.057   1.788  50.954  1.00  0.00     0.159 C 
HETATM    5  C4  UNL     1      20.141   0.456  51.135  1.00  0.00     0.102 C 
HETATM    6  N2  UNL     1      21.419   0.159  51.106  1.00  0.00    -0.269 NA
HETATM    7  C5  UNL     1      22.188   0.909  52.088  1.00  0.00     0.223 C 
HETATM    8  N3  UNL     1      23.488   0.695  52.160  1.00  0.00    -0.253 NA
HETATM    9  C6  UNL     1      24.288   1.421  53.127  1.00  0.00     0.422 C 
HETATM   10  N4  UNL     1      25.172   2.295  52.399  1.00  0.00     0.112 N 
HETATM   11  C14 UNL     1      24.476   3.267  51.606  1.00  0.00     0.279 C 
HETATM   12  C15 UNL     1      23.732   4.234  52.476  1.00  0.00     0.069 C 
HETATM   13  C16 UNL     1      22.976   5.249  51.717  1.00  0.00    -0.048 A 
HETATM   14  C17 UNL     1      23.688   6.376  51.365  1.00  0.00     0.008 A 
HETATM   15  C18 UNL     1      23.168   7.443  50.652  1.00  0.00     0.001 A 
HETATM   16  C19 UNL     1      21.841   7.370  50.267  1.00  0.00     0.001 A 
HETATM   17  C20 UNL     1      21.140   6.232  50.628  1.00  0.00     0.010 A 
HETATM   18  C21 UNL     1      21.654   5.140  51.353  1.00  0.00    -0.030 A 
HETATM   19  H5  UNL     1      21.518   2.289  50.219  1.00  0.00     0.159 HD
ENDROOT
BRANCH  10  20
HETATM   20  C7  UNL     1      26.177   1.568  51.676  1.00  0.00     0.313 C 
BRANCH  20  21
HETATM   21  C8  UNL     1      27.258   1.170  52.594  1.00  0.00    -0.030 A 
HETATM   22  C9  UNL     1      27.511  -0.206  52.682  1.00  0.00     0.009 A 
HETATM   23  C10 UNL     1      28.478  -0.815  53.454  1.00  0.00     0.001 A 
HETATM   24  C11 UNL     1      29.274   0.015  54.213  1.00  0.00     0.000 A 
HETATM   25  C12 UNL     1      29.074   1.377  54.167  1.00  0.00     0.001 A 
HETATM   26  C13 UNL     1      28.101   1.959  53.389  1.00  0.00     0.009 A 
ENDBRANCH  20  21
ENDBRANCH  10  20
TORSDOF 2
ENDMDL
MODEL 9
REMARK VINA RESULT:      -8.1      3.570      6.589
REMARK  2 active torsions:
REMARK  status: ('A' for Active; 'I' for Inactive)
REMARK    1  A    between atoms: N4_10  and  C7_11 
REMARK    2  A    between atoms: C7_11  and  C8_12 
ROOT
HETATM    1  C1  UNL     1      18.178   1.853  49.735  1.00  0.00     0.037 C 
HETATM    2  C2  UNL     1      19.394   1.659  50.655  1.00  0.00     0.110 C 
HETATM    3  N1  UNL     1      19.304   0.265  51.024  1.00  0.00    -0.391 N 
HETATM    4  C3  UNL     1      18.057  -0.140  51.584  1.00  0.00     0.159 C 
HETATM    5  C4  UNL     1      17.697  -0.875  52.653  1.00  0.00     0.102 C 
HETATM    6  N2  UNL     1      18.808  -1.341  53.172  1.00  0.00    -0.269 NA
HETATM    7  C5  UNL     1      19.752  -0.287  53.507  1.00  0.00     0.223 C 
HETATM    8  N3  UNL     1      20.909  -0.630  54.042  1.00  0.00    -0.253 NA
HETATM    9  C6  UNL     1      21.876   0.392  54.391  1.00  0.00     0.422 C 
HETATM   10  N4  UNL     1      23.016   0.234  53.525  1.00  0.00     0.112 N 
HETATM   11  C14 UNL     1      22.697   0.407  52.137  1.00  0.00     0.279 C 
HETATM   12  C15 UNL     1      22.286   1.820  51.854  1.00  0.00     0.069 C 
HETATM   13  C16 UNL     1      21.923   2.058  50.443  1.00  0.00    -0.048 A 
HETATM   14  C17 UNL     1      22.973   2.375  49.608  1.00  0.00     0.008 A 
HETATM   15  C18 UNL     1      22.849   2.632  48.253  1.00  0.00     0.001 A 
HETATM   16  C19 UNL     1      21.582   2.565  47.702  1.00  0.00     0.001 A 
HETATM   17  C20 UNL     1      20.538   2.245  48.554  1.00  0.00     0.010 A 
HETATM   18  C21 UNL     1      20.649   1.982  49.932  1.00  0.00    -0.030 A 
HETATM   19  H5  UNL     1      19.620  -0.656  51.121  1.00  0.00     0.159 HD
ENDROOT
BRANCH  10  20
HETATM   20  C7  UNL     1      23.748  -0.967  53.807  1.00  0.00     0.313 C 
BRANCH  20  21
HETATM   21  C8  UNL     1      25.193  -0.711  53.678  1.00  0.00    -0.030 A 
HETATM   22  C9  UNL     1      25.804  -0.086  54.774  1.00  0.00     0.009 A 
HETATM   23  C10 UNL     1      27.139   0.239  54.895  1.00  0.00     0.001 A 
HETATM   24  C11 UNL     1      27.950  -0.085  53.830  1.00  0.00     0.000 A 
HETATM   25  C12 UNL     1      27.407  -0.702  52.724  1.00  0.00     0.001 A 
HETATM   26  C13 UNL     1      26.071  -1.014  52.629  1.00  0.00     0.009 A 
ENDBRANCH  20  21
ENDBRANCH  10  20
TORSDOF 2
ENDMDL
