MODEL 1
REMARK VINA RESULT:      -7.3      0.000      0.000
REMARK  4 active torsions:
REMARK  status: ('A' for Active; 'I' for Inactive)
REMARK    1  A    between atoms: C2_2  and  C3_3 
REMARK    2  A    between atoms: C3_3  and  C4_4 
REMARK    3  A    between atoms: N2_14  and  C10_15 
REMARK    4  A    between atoms: C10_15  and  C11_16 
ROOT
HETATM    1  C4  UNL     1      24.698   0.450  53.558  1.00  0.00     0.038 C 
HETATM    2  C5  UNL     1      25.268  -0.519  54.297  1.00  0.00     0.170 C 
HETATM    3  O1  UNL     1      26.551  -0.640  54.868  1.00  0.00    -0.296 OA
HETATM    4  C6  UNL     1      27.733  -0.169  54.257  1.00  0.00     0.226 A 
HETATM    5  O2  UNL     1      28.936  -0.629  54.462  1.00  0.00    -0.279 OA
HETATM    6  C7  UNL     1      29.793   0.035  53.735  1.00  0.00     0.262 A 
HETATM    7  N1  UNL     1      29.132   0.983  53.010  1.00  0.00    -0.226 NA
HETATM    8  C8  UNL     1      27.839   0.872  53.323  1.00  0.00     0.185 A 
HETATM    9  C9  UNL     1      26.735   1.696  52.779  1.00  0.00     0.282 C 
HETATM   10  O3  UNL     1      27.084   2.544  51.888  1.00  0.00    -0.265 OA
HETATM   11  N2  UNL     1      25.329   1.645  53.141  1.00  0.00    -0.310 N 
ENDROOT
BRANCH  11  12
HETATM   12  C10 UNL     1      24.643   2.871  53.026  1.00  0.00     0.171 C 
BRANCH  12  13
HETATM   13  C11 UNL     1      23.774   2.970  51.796  1.00  0.00    -0.037 A 
HETATM   14  C12 UNL     1      24.034   2.612  50.495  1.00  0.00     0.028 A 
HETATM   15  C13 UNL     1      23.120   2.774  49.493  1.00  0.00     0.116 A 
HETATM   16  N3  UNL     1      21.906   3.292  49.700  1.00  0.00    -0.273 NA
HETATM   17  C14 UNL     1      21.554   3.674  50.936  1.00  0.00     0.116 A 
HETATM   18  C15 UNL     1      22.484   3.506  51.937  1.00  0.00     0.028 A 
ENDBRANCH  12  13
ENDBRANCH  11  12
BRANCH   1  19
HETATM   19  C3  UNL     1      23.313   0.248  53.117  1.00  0.00     0.064 C 
BRANCH  19  20
HETATM   20  C2  UNL     1      22.515  -0.740  53.852  1.00  0.00    -0.004 C 
HETATM   21  C1  UNL     1      21.508  -0.419  54.693  1.00  0.00     0.006 C 
ENDBRANCH  19  20
ENDBRANCH   1  19
TORSDOF 4
ENDMDL
MODEL 2
REMARK VINA RESULT:      -7.0      2.647      6.472
REMARK  4 active torsions:
REMARK  status: ('A' for Active; 'I' for Inactive)
REMARK    1  A    between atoms: C2_2  and  C3_3 
REMARK    2  A    between atoms: C3_3  and  C4_4 
REMARK    3  A    between atoms: N2_14  and  C10_15 
REMARK    4  A    between atoms: C10_15  and  C11_16 
ROOT
HETATM    1  C4  UNL     1      24.892   1.644  52.078  1.00  0.00     0.038 C 
HETATM    2  C5  UNL     1      23.828   2.295  51.572  1.00  0.00     0.170 C 
HETATM    3  O1  UNL     1      22.506   2.447  52.037  1.00  0.00    -0.296 OA
HETATM    4  C6  UNL     1      21.788   1.439  52.714  1.00  0.00     0.226 A 
HETATM    5  O2  UNL     1      20.490   1.319  52.753  1.00  0.00    -0.279 OA
HETATM    6  C7  UNL     1      20.163   0.276  53.469  1.00  0.00     0.262 A 
HETATM    7  N1  UNL     1      21.297  -0.329  53.928  1.00  0.00    -0.226 NA
HETATM    8  C8  UNL     1      22.327   0.384  53.466  1.00  0.00     0.185 A 
HETATM    9  C9  UNL     1      23.761   0.105  53.707  1.00  0.00     0.282 C 
HETATM   10  O3  UNL     1      23.997  -0.959  54.376  1.00  0.00    -0.265 OA
HETATM   11  N2  UNL     1      24.902   0.892  53.274  1.00  0.00    -0.310 N 
ENDROOT
BRANCH  11  12
HETATM   12  C10 UNL     1      26.023   0.829  54.127  1.00  0.00     0.171 C 
BRANCH  12  13
HETATM   13  C11 UNL     1      27.018  -0.241  53.748  1.00  0.00    -0.037 A 
HETATM   14  C12 UNL     1      26.839  -1.415  53.059  1.00  0.00     0.028 A 
HETATM   15  C13 UNL     1      27.865  -2.279  52.801  1.00  0.00     0.116 A 
HETATM   16  N3  UNL     1      29.118  -2.050  53.200  1.00  0.00    -0.273 NA
HETATM   17  C14 UNL     1      29.400  -0.929  53.882  1.00  0.00     0.116 A 
HETATM   18  C15 UNL     1      28.357  -0.068  54.135  1.00  0.00     0.028 A 
ENDBRANCH  12  13
ENDBRANCH  11  12
BRANCH   1  19
HETATM   19  C3  UNL     1      26.146   1.691  51.316  1.00  0.00     0.064 C 
BRANCH  19  20
HETATM   20  C2  UNL     1      26.579   3.003  50.820  1.00  0.00    -0.004 C 
HETATM   21  C1  UNL     1      26.607   3.341  49.512  1.00  0.00     0.006 C 
ENDBRANCH  19  20
ENDBRANCH   1  19
TORSDOF 4
ENDMDL
MODEL 3
REMARK VINA RESULT:      -6.9      2.956      5.813
REMARK  4 active torsions:
REMARK  status: ('A' for Active; 'I' for Inactive)
REMARK    1  A    between atoms: C2_2  and  C3_3 
REMARK    2  A    between atoms: C3_3  and  C4_4 
REMARK    3  A    between atoms: N2_14  and  C10_15 
REMARK    4  A    between atoms: C10_15  and  C11_16 
ROOT
HETATM    1  C4  UNL     1      21.703   1.101  52.038  1.00  0.00     0.038 C 
HETATM    2  C5  UNL     1      21.147   0.475  50.984  1.00  0.00     0.170 C 
HETATM    3  O1  UNL     1      21.427   0.523  49.603  1.00  0.00    -0.296 OA
HETATM    4  C6  UNL     1      21.829   1.691  48.921  1.00  0.00     0.226 A 
HETATM    5  O2  UNL     1      21.655   1.934  47.652  1.00  0.00    -0.279 OA
HETATM    6  C7  UNL     1      22.147   3.107  47.354  1.00  0.00     0.262 A 
HETATM    7  N1  UNL     1      22.673   3.674  48.478  1.00  0.00    -0.226 NA
HETATM    8  C8  UNL     1      22.484   2.803  49.472  1.00  0.00     0.185 A 
HETATM    9  C9  UNL     1      22.892   2.986  50.883  1.00  0.00     0.282 C 
HETATM   10  O3  UNL     1      23.420   4.120  51.148  1.00  0.00    -0.265 OA
HETATM   11  N2  UNL     1      22.759   2.038  51.975  1.00  0.00    -0.310 N 
ENDROOT
BRANCH  11  12
HETATM   12  C10 UNL     1      23.750   2.139  52.972  1.00  0.00     0.171 C 
BRANCH  12  13
HETATM   13  C11 UNL     1      24.859   1.125  52.835  1.00  0.00    -0.037 A 
HETATM   14  C12 UNL     1      25.872   1.036  51.910  1.00  0.00     0.028 A 
HETATM   15  C13 UNL     1      26.803   0.037  51.935  1.00  0.00     0.116 A 
HETATM   16  N3  UNL     1      26.801  -0.929  52.856  1.00  0.00    -0.273 NA
HETATM   17  C14 UNL     1      25.852  -0.934  53.805  1.00  0.00     0.116 A 
HETATM   18  C15 UNL     1      24.920   0.078  53.769  1.00  0.00     0.028 A 
ENDBRANCH  12  13
ENDBRANCH  11  12
BRANCH   1  19
HETATM   19  C3  UNL     1      21.153   0.815  53.369  1.00  0.00     0.064 C 
BRANCH  19  20
HETATM   20  C2  UNL     1      20.930  -0.595  53.711  1.00  0.00    -0.004 C 
HETATM   21  C1  UNL     1      21.672  -1.279  54.609  1.00  0.00     0.006 C 
ENDBRANCH  19  20
ENDBRANCH   1  19
TORSDOF 4
ENDMDL
MODEL 4
REMARK VINA RESULT:      -6.9      2.849      3.582
REMARK  4 active torsions:
REMARK  status: ('A' for Active; 'I' for Inactive)
REMARK    1  A    between atoms: C2_2  and  C3_3 
REMARK    2  A    between atoms: C3_3  and  C4_4 
REMARK    3  A    between atoms: N2_14  and  C10_15 
REMARK    4  A    between atoms: C10_15  and  C11_16 
ROOT
HETATM    1  C4  UNL     1      23.671   2.129  51.150  1.00  0.00     0.038 C 
HETATM    2  C5  UNL     1      23.695   1.829  52.461  1.00  0.00     0.170 C 
HETATM    3  O1  UNL     1      24.620   2.128  53.482  1.00  0.00    -0.296 OA
HETATM    4  C6  UNL     1      26.017   2.177  53.289  1.00  0.00     0.226 A 
HETATM    5  O2  UNL     1      26.923   1.981  54.205  1.00  0.00    -0.279 OA
HETATM    6  C7  UNL     1      28.114   2.101  53.683  1.00  0.00     0.262 A 
HETATM    7  N1  UNL     1      27.998   2.390  52.354  1.00  0.00    -0.226 NA
HETATM    8  C8  UNL     1      26.691   2.442  52.087  1.00  0.00     0.185 A 
HETATM    9  C9  UNL     1      26.080   2.725  50.768  1.00  0.00     0.282 C 
HETATM   10  O3  UNL     1      26.913   2.872  49.809  1.00  0.00    -0.265 OA
HETATM   11  N2  UNL     1      24.667   2.851  50.454  1.00  0.00    -0.310 N 
ENDROOT
BRANCH  11  12
HETATM   12  C10 UNL     1      24.373   3.729  49.391  1.00  0.00     0.171 C 
BRANCH  12  13
HETATM   13  C11 UNL     1      24.460   5.188  49.764  1.00  0.00    -0.037 A 
HETATM   14  C12 UNL     1      23.878   5.876  50.801  1.00  0.00     0.028 A 
HETATM   15  C13 UNL     1      24.067   7.215  50.992  1.00  0.00     0.116 A 
HETATM   16  N3  UNL     1      24.831   7.958  50.188  1.00  0.00    -0.273 NA
HETATM   17  C14 UNL     1      25.445   7.382  49.143  1.00  0.00     0.116 A 
HETATM   18  C15 UNL     1      25.246   6.032  48.962  1.00  0.00     0.028 A 
ENDBRANCH  12  13
ENDBRANCH  11  12
BRANCH   1  19
HETATM   19  C3  UNL     1      22.531   1.648  50.360  1.00  0.00     0.064 C 
BRANCH  19  20
HETATM   20  C2  UNL     1      21.706   0.588  50.952  1.00  0.00    -0.004 C 
HETATM   21  C1  UNL     1      20.359   0.636  51.026  1.00  0.00     0.006 C 
ENDBRANCH  19  20
ENDBRANCH   1  19
TORSDOF 4
ENDMDL
MODEL 5
REMARK VINA RESULT:      -6.6      3.035      6.852
REMARK  4 active torsions:
REMARK  status: ('A' for Active; 'I' for Inactive)
REMARK    1  A    between atoms: C2_2  and  C3_3 
REMARK    2  A    between atoms: C3_3  and  C4_4 
REMARK    3  A    between atoms: N2_14  and  C10_15 
REMARK    4  A    between atoms: C10_15  and  C11_16 
ROOT
HETATM    1  C4  UNL     1      25.813   4.093  50.069  1.00  0.00     0.038 C 
HETATM    2  C5  UNL     1      25.322   5.287  50.448  1.00  0.00     0.170 C 
HETATM    3  O1  UNL     1      24.334   5.646  51.387  1.00  0.00    -0.296 OA
HETATM    4  C6  UNL     1      23.166   4.892  51.628  1.00  0.00     0.226 A 
HETATM    5  O2  UNL     1      22.038   5.355  52.092  1.00  0.00    -0.279 OA
HETATM    6  C7  UNL     1      21.169   4.385  52.192  1.00  0.00     0.262 A 
HETATM    7  N1  UNL     1      21.743   3.220  51.775  1.00  0.00    -0.226 NA
HETATM    8  C8  UNL     1      22.995   3.516  51.417  1.00  0.00     0.185 A 
HETATM    9  C9  UNL     1      24.002   2.564  50.896  1.00  0.00     0.282 C 
HETATM   10  O3  UNL     1      23.580   1.368  50.735  1.00  0.00    -0.265 OA
HETATM   11  N2  UNL     1      25.387   2.836  50.557  1.00  0.00    -0.310 N 
ENDROOT
BRANCH  11  12
HETATM   12  C10 UNL     1      26.266   1.748  50.732  1.00  0.00     0.171 C 
BRANCH  12  13
HETATM   13  C11 UNL     1      26.877   1.672  52.110  1.00  0.00    -0.037 A 
HETATM   14  C12 UNL     1      27.883   2.418  52.676  1.00  0.00     0.028 A 
HETATM   15  C13 UNL     1      28.318   2.212  53.955  1.00  0.00     0.116 A 
HETATM   16  N3  UNL     1      27.801   1.272  54.750  1.00  0.00    -0.273 NA
HETATM   17  C14 UNL     1      26.813   0.489  54.292  1.00  0.00     0.116 A 
HETATM   18  C15 UNL     1      26.384   0.707  53.002  1.00  0.00     0.028 A 
ENDBRANCH  12  13
ENDBRANCH  11  12
BRANCH   1  19
HETATM   19  C3  UNL     1      26.861   4.081  49.041  1.00  0.00     0.064 C 
BRANCH  19  20
HETATM   20  C2  UNL     1      27.418   5.378  48.638  1.00  0.00    -0.004 C 
HETATM   21  C1  UNL     1      28.715   5.573  48.317  1.00  0.00     0.006 C 
ENDBRANCH  19  20
ENDBRANCH   1  19
TORSDOF 4
ENDMDL
MODEL 6
REMARK VINA RESULT:      -6.6      3.080      5.943
REMARK  4 active torsions:
REMARK  status: ('A' for Active; 'I' for Inactive)
REMARK    1  A    between atoms: C2_2  and  C3_3 
REMARK    2  A    between atoms: C3_3  and  C4_4 
REMARK    3  A    between atoms: N2_14  and  C10_15 
REMARK    4  A    between atoms: C10_15  and  C11_16 
ROOT
HETATM    1  C4  UNL     1      23.156   2.433  50.584  1.00  0.00     0.038 C 
HETATM    2  C5  UNL     1      23.473   2.923  49.371  1.00  0.00     0.170 C 
HETATM    3  O1  UNL     1      24.270   4.015  48.973  1.00  0.00    -0.296 OA
HETATM    4  C6  UNL     1      24.344   5.235  49.678  1.00  0.00     0.226 A 
HETATM    5  O2  UNL     1      24.652   6.395  49.170  1.00  0.00    -0.279 OA
HETATM    6  C7  UNL     1      24.626   7.309  50.103  1.00  0.00     0.262 A 
HETATM    7  N1  UNL     1      24.283   6.731  51.291  1.00  0.00    -0.226 NA
HETATM    8  C8  UNL     1      24.102   5.431  51.047  1.00  0.00     0.185 A 
HETATM    9  C9  UNL     1      23.718   4.401  52.039  1.00  0.00     0.282 C 
HETATM   10  O3  UNL     1      23.492   4.845  53.216  1.00  0.00    -0.265 OA
HETATM   11  N2  UNL     1      23.573   2.972  51.823  1.00  0.00    -0.310 N 
ENDROOT
BRANCH  11  12
HETATM   12  C10 UNL     1      23.859   2.171  52.946  1.00  0.00     0.171 C 
BRANCH  12  13
HETATM   13  C11 UNL     1      25.230   1.541  52.913  1.00  0.00    -0.037 A 
HETATM   14  C12 UNL     1      25.652   0.363  52.344  1.00  0.00     0.028 A 
HETATM   15  C13 UNL     1      26.949  -0.061  52.411  1.00  0.00     0.116 A 
HETATM   16  N3  UNL     1      27.904   0.635  53.032  1.00  0.00    -0.273 NA
HETATM   17  C14 UNL     1      27.596   1.800  53.622  1.00  0.00     0.116 A 
HETATM   18  C15 UNL     1      26.286   2.215  53.548  1.00  0.00     0.028 A 
ENDBRANCH  12  13
ENDBRANCH  11  12
BRANCH   1  19
HETATM   19  C3  UNL     1      22.281   1.256  50.638  1.00  0.00     0.064 C 
BRANCH  19  20
HETATM   20  C2  UNL     1      21.380   1.040  49.499  1.00  0.00    -0.004 C 
HETATM   21  C1  UNL     1      20.059   1.318  49.521  1.00  0.00     0.006 C 
ENDBRANCH  19  20
ENDBRANCH   1  19
TORSDOF 4
ENDMDL
MODEL 7
REMARK VINA RESULT:      -6.5      2.144      3.794
REMARK  4 active torsions:
REMARK  status: ('A' for Active; 'I' for Inactive)
REMARK    1  A    between atoms: C2_2  and  C3_3 
REMARK    2  A    between atoms: C3_3  and  C4_4 
REMARK    3  A    between atoms: N2_14  and  C10_15 
REMARK    4  A    between atoms: C10_15  and  C11_16 
ROOT
HETATM    1  C4  UNL     1      24.009   3.123  52.343  1.00  0.00     0.038 C 
HETATM    2  C5  UNL     1      25.273   3.104  51.884  1.00  0.00     0.170 C 
HETATM    3  O1  UNL     1      26.122   2.046  51.499  1.00  0.00    -0.296 OA
HETATM    4  C6  UNL     1      26.148   0.787  52.134  1.00  0.00     0.226 A 
HETATM    5  O2  UNL     1      27.161  -0.034  52.165  1.00  0.00    -0.279 OA
HETATM    6  C7  UNL     1      26.841  -1.107  52.837  1.00  0.00     0.262 A 
HETATM    7  N1  UNL     1      25.554  -0.997  53.277  1.00  0.00    -0.226 NA
HETATM    8  C8  UNL     1      25.101   0.183  52.847  1.00  0.00     0.185 A 
HETATM    9  C9  UNL     1      23.749   0.738  53.084  1.00  0.00     0.282 C 
HETATM   10  O3  UNL     1      22.992   0.018  53.820  1.00  0.00    -0.265 OA
HETATM   11  N2  UNL     1      23.203   1.986  52.580  1.00  0.00    -0.310 N 
ENDROOT
BRANCH  11  12
HETATM   12  C10 UNL     1      21.809   1.980  52.368  1.00  0.00     0.171 C 
BRANCH  12  13
HETATM   13  C11 UNL     1      21.415   1.950  50.912  1.00  0.00    -0.037 A 
HETATM   14  C12 UNL     1      21.979   1.280  49.853  1.00  0.00     0.028 A 
HETATM   15  C13 UNL     1      21.486   1.367  48.582  1.00  0.00     0.116 A 
HETATM   16  N3  UNL     1      20.420   2.108  48.271  1.00  0.00    -0.273 NA
HETATM   17  C14 UNL     1      19.795   2.803  49.234  1.00  0.00     0.116 A 
HETATM   18  C15 UNL     1      20.302   2.707  50.510  1.00  0.00     0.028 A 
ENDBRANCH  12  13
ENDBRANCH  11  12
BRANCH   1  19
HETATM   19  C3  UNL     1      23.415   4.429  52.654  1.00  0.00     0.064 C 
BRANCH  19  20
HETATM   20  C2  UNL     1      23.206   5.353  51.533  1.00  0.00    -0.004 C 
HETATM   21  C1  UNL     1      22.007   5.883  51.208  1.00  0.00     0.006 C 
ENDBRANCH  19  20
ENDBRANCH   1  19
TORSDOF 4
ENDMDL
MODEL 8
REMARK VINA RESULT:      -6.5      3.199      6.026
REMARK  4 active torsions:
REMARK  status: ('A' for Active; 'I' for Inactive)
REMARK    1  A    between atoms: C2_2  and  C3_3 
REMARK    2  A    between atoms: C3_3  and  C4_4 
REMARK    3  A    between atoms: N2_14  and  C10_15 
REMARK    4  A    between atoms: C10_15  and  C11_16 
ROOT
HETATM    1  C4  UNL     1      22.177   1.670  50.586  1.00  0.00     0.038 C 
HETATM    2  C5  UNL     1      22.277   1.877  49.260  1.00  0.00     0.170 C 
HETATM    3  O1  UNL     1      22.965   2.847  48.505  1.00  0.00    -0.296 OA
HETATM    4  C6  UNL     1      23.118   4.192  48.902  1.00  0.00     0.226 A 
HETATM    5  O2  UNL     1      23.304   5.209  48.108  1.00  0.00    -0.279 OA
HETATM    6  C7  UNL     1      23.404   6.307  48.809  1.00  0.00     0.262 A 
HETATM    7  N1  UNL     1      23.277   6.009  50.134  1.00  0.00    -0.226 NA
HETATM    8  C8  UNL     1      23.097   4.688  50.215  1.00  0.00     0.185 A 
HETATM    9  C9  UNL     1      22.911   3.907  51.459  1.00  0.00     0.282 C 
HETATM   10  O3  UNL     1      22.868   4.603  52.530  1.00  0.00    -0.265 OA
HETATM   11  N2  UNL     1      22.775   2.467  51.589  1.00  0.00    -0.310 N 
ENDROOT
BRANCH  11  12
HETATM   12  C10 UNL     1      23.265   1.932  52.798  1.00  0.00     0.171 C 
BRANCH  12  13
HETATM   13  C11 UNL     1      24.540   1.140  52.642  1.00  0.00    -0.037 A 
HETATM   14  C12 UNL     1      25.649   1.387  51.869  1.00  0.00     0.028 A 
HETATM   15  C13 UNL     1      26.730   0.552  51.847  1.00  0.00     0.116 A 
HETATM   16  N3  UNL     1      26.792  -0.566  52.574  1.00  0.00    -0.273 NA
HETATM   17  C14 UNL     1      25.759  -0.899  53.364  1.00  0.00     0.116 A 
HETATM   18  C15 UNL     1      24.676  -0.049  53.375  1.00  0.00     0.028 A 
ENDBRANCH  12  13
ENDBRANCH  11  12
BRANCH   1  19
HETATM   19  C3  UNL     1      21.358   0.540  51.041  1.00  0.00     0.064 C 
BRANCH  19  20
HETATM   20  C2  UNL     1      19.989   0.840  51.478  1.00  0.00    -0.004 C 
HETATM   21  C1  UNL     1      18.883   0.371  50.862  1.00  0.00     0.006 C 
ENDBRANCH  19  20
ENDBRANCH   1  19
TORSDOF 4
ENDMDL
MODEL 9
REMARK VINA RESULT:      -6.3      3.711      6.598
REMARK  4 active torsions:
REMARK  status: ('A' for Active; 'I' for Inactive)
REMARK    1  A    between atoms: C2_2  and  C3_3 
REMARK    2  A    between atoms: C3_3  and  C4_4 
REMARK    3  A    between atoms: N2_14  and  C10_15 
REMARK    4  A    between atoms: C10_15  and  C11_16 
ROOT
HETATM    1  C4  UNL     1      24.023   2.980  51.631  1.00  0.00     0.038 C 
HETATM    2  C5  UNL     1      24.025   4.190  52.221  1.00  0.00     0.170 C 
HETATM    3  O1  UNL     1      23.035   5.187  52.335  1.00  0.00    -0.296 OA
HETATM    4  C6  UNL     1      22.101   5.489  51.322  1.00  0.00     0.226 A 
HETATM    5  O2  UNL     1      21.501   6.633  51.150  1.00  0.00    -0.279 OA
HETATM    6  C7  UNL     1      20.702   6.565  50.119  1.00  0.00     0.262 A 
HETATM    7  N1  UNL     1      20.773   5.315  49.576  1.00  0.00    -0.226 NA
HETATM    8  C8  UNL     1      21.644   4.624  50.315  1.00  0.00     0.185 A 
HETATM    9  C9  UNL     1      22.046   3.215  50.102  1.00  0.00     0.282 C 
HETATM   10  O3  UNL     1      21.532   2.659  49.072  1.00  0.00    -0.265 OA
HETATM   11  N2  UNL     1      22.940   2.415  50.920  1.00  0.00    -0.310 N 
ENDROOT
BRANCH  11  12
HETATM   12  C10 UNL     1      22.657   1.034  50.931  1.00  0.00     0.171 C 
BRANCH  12  13
HETATM   13  C11 UNL     1      22.314   0.493  52.297  1.00  0.00    -0.037 A 
HETATM   14  C12 UNL     1      23.012  -0.366  53.112  1.00  0.00     0.028 A 
HETATM   15  C13 UNL     1      22.548  -0.757  54.335  1.00  0.00     0.116 A 
HETATM   16  N3  UNL     1      21.382  -0.338  54.832  1.00  0.00    -0.273 NA
HETATM   17  C14 UNL     1      20.622   0.504  54.114  1.00  0.00     0.116 A 
HETATM   18  C15 UNL     1      21.102   0.890  52.884  1.00  0.00     0.028 A 
ENDBRANCH  12  13
ENDBRANCH  11  12
BRANCH   1  19
HETATM   19  C3  UNL     1      25.253   2.183  51.703  1.00  0.00     0.064 C 
BRANCH  19  20
HETATM   20  C2  UNL     1      26.423   2.692  50.978  1.00  0.00    -0.004 C 
HETATM   21  C1  UNL     1      26.389   3.116  49.696  1.00  0.00     0.006 C 
ENDBRANCH  19  20
ENDBRANCH   1  19
TORSDOF 4
ENDMDL
