MODEL 1
REMARK VINA RESULT:      -9.0      0.000      0.000
REMARK  1 active torsions:
REMARK  status: ('A' for Active; 'I' for Inactive)
REMARK       I    between atoms: N1_1  and  C1_2 
REMARK    1  A    between atoms: C1_2  and  C2_4 
ROOT
HETATM    1  C2  UNL     1      28.004  -0.748  53.184  1.00  0.00     0.013 C 
HETATM    2  C3  UNL     1      28.435   0.480  53.560  1.00  0.00     0.013 C 
HETATM    3  C4  UNL     1      27.774   1.801  53.742  1.00  0.00    -0.001 C 
HETATM    4  C5  UNL     1      26.610   2.394  53.472  1.00  0.00     0.009 C 
HETATM    5  C6  UNL     1      25.402   1.960  52.947  1.00  0.00     0.078 C 
HETATM    6  C7  UNL     1      25.799   1.107  51.762  1.00  0.00     0.077 C 
HETATM    7  C8  UNL     1      25.834  -0.169  52.496  1.00  0.00    -0.038 C 
HETATM    8  C9  UNL     1      24.741  -0.113  53.214  1.00  0.00     0.080 C 
HETATM    9  N2  UNL     1      24.869   1.084  54.041  1.00  0.00    -0.367 N 
HETATM   10  S1  UNL     1      23.235  -1.082  53.333  1.00  0.00    -0.038 SA
HETATM   11  S2  UNL     1      21.675   0.087  54.204  1.00  0.00    -0.071 SA
HETATM   12  C10 UNL     1      20.768   1.140  52.972  1.00  0.00     0.209 C 
HETATM   13  N3  UNL     1      21.722   2.212  52.508  1.00  0.00    -0.376 N 
HETATM   14  C11 UNL     1      21.476   3.552  52.105  1.00  0.00     0.086 C 
HETATM   15  C12 UNL     1      22.535   4.333  51.982  1.00  0.00     0.017 C 
HETATM   16  C13 UNL     1      23.925   3.890  52.204  1.00  0.00     0.008 C 
HETATM   17  C14 UNL     1      24.228   2.655  52.548  1.00  0.00    -0.030 C 
HETATM   18  C15 UNL     1      23.022   1.734  52.512  1.00  0.00     0.160 C 
HETATM   19  C16 UNL     1      26.686  -1.298  52.612  1.00  0.00     0.081 C 
HETATM   20  H8  UNL     1      24.726   1.436  54.981  1.00  0.00     0.161 HD
ENDROOT
BRANCH   1  21
HETATM   21  C1  UNL     1      28.972  -1.804  53.352  1.00  0.00     0.245 C 
HETATM   22  N1  UNL     1      28.543  -3.136  53.129  1.00  0.00    -0.366 N 
HETATM   23  H1  UNL     1      28.575  -3.567  54.101  1.00  0.00     0.159 HD
HETATM   24  H2  UNL     1      28.231  -3.755  52.337  1.00  0.00     0.159 HD
HETATM   25  O1  UNL     1      30.155  -1.546  53.684  1.00  0.00    -0.268 OA
ENDBRANCH   1  21
TORSDOF 1
ENDMDL
MODEL 2
REMARK VINA RESULT:      -8.7      3.676      5.492
REMARK  1 active torsions:
REMARK  status: ('A' for Active; 'I' for Inactive)
REMARK       I    between atoms: N1_1  and  C1_2 
REMARK    1  A    between atoms: C1_2  and  C2_4 
ROOT
HETATM    1  C2  UNL     1      25.877   4.994  49.633  1.00  0.00     0.013 C 
HETATM    2  C3  UNL     1      24.757   5.615  50.074  1.00  0.00     0.013 C 
HETATM    3  C4  UNL     1      23.686   5.258  51.045  1.00  0.00    -0.001 C 
HETATM    4  C5  UNL     1      23.257   4.198  51.730  1.00  0.00     0.009 C 
HETATM    5  C6  UNL     1      23.725   2.904  51.905  1.00  0.00     0.078 C 
HETATM    6  C7  UNL     1      24.109   2.459  50.510  1.00  0.00     0.077 C 
HETATM    7  C8  UNL     1      25.517   2.882  50.596  1.00  0.00    -0.038 C 
HETATM    8  C9  UNL     1      25.869   2.460  51.784  1.00  0.00     0.080 C 
HETATM    9  N2  UNL     1      24.964   3.115  52.724  1.00  0.00    -0.367 N 
HETATM   10  S1  UNL     1      27.081   1.302  52.425  1.00  0.00    -0.038 SA
HETATM   11  S2  UNL     1      26.515   0.649  54.377  1.00  0.00    -0.071 SA
HETATM   12  C10 UNL     1      25.326  -0.777  54.361  1.00  0.00     0.209 C 
HETATM   13  N3  UNL     1      24.013  -0.263  53.825  1.00  0.00    -0.376 N 
HETATM   14  C11 UNL     1      22.681  -0.648  54.129  1.00  0.00     0.086 C 
HETATM   15  C12 UNL     1      21.723   0.146  53.684  1.00  0.00     0.017 C 
HETATM   16  C13 UNL     1      21.957   1.362  52.880  1.00  0.00     0.008 C 
HETATM   17  C14 UNL     1      23.164   1.761  52.537  1.00  0.00    -0.030 C 
HETATM   18  C15 UNL     1      24.233   0.747  52.903  1.00  0.00     0.160 C 
HETATM   19  C16 UNL     1      26.460   3.580  49.798  1.00  0.00     0.081 C 
HETATM   20  H8  UNL     1      24.934   3.592  53.618  1.00  0.00     0.161 HD
ENDROOT
BRANCH   1  21
HETATM   21  C1  UNL     1      26.746   5.818  48.829  1.00  0.00     0.245 C 
HETATM   22  N1  UNL     1      28.141   5.580  48.906  1.00  0.00    -0.366 N 
HETATM   23  H1  UNL     1      28.510   6.452  49.392  1.00  0.00     0.159 HD
HETATM   24  H2  UNL     1      28.843   4.843  48.637  1.00  0.00     0.159 HD
HETATM   25  O1  UNL     1      26.277   6.716  48.087  1.00  0.00    -0.268 OA
ENDBRANCH   1  21
TORSDOF 1
ENDMDL
MODEL 3
REMARK VINA RESULT:      -8.6      3.502      5.166
REMARK  1 active torsions:
REMARK  status: ('A' for Active; 'I' for Inactive)
REMARK       I    between atoms: N1_1  and  C1_2 
REMARK    1  A    between atoms: C1_2  and  C2_4 
ROOT
HETATM    1  C2  UNL     1      22.650   0.152  53.744  1.00  0.00     0.013 C 
HETATM    2  C3  UNL     1      23.937  -0.258  53.843  1.00  0.00     0.013 C 
HETATM    3  C4  UNL     1      25.236   0.268  53.339  1.00  0.00    -0.001 C 
HETATM    4  C5  UNL     1      25.690   1.185  52.485  1.00  0.00     0.009 C 
HETATM    5  C6  UNL     1      25.091   2.173  51.716  1.00  0.00     0.078 C 
HETATM    6  C7  UNL     1      23.893   1.485  51.098  1.00  0.00     0.077 C 
HETATM    7  C8  UNL     1      22.940   1.858  52.156  1.00  0.00    -0.038 C 
HETATM    8  C9  UNL     1      23.222   3.119  52.361  1.00  0.00     0.080 C 
HETATM    9  N2  UNL     1      24.629   3.154  52.751  1.00  0.00    -0.367 N 
HETATM   10  S1  UNL     1      22.334   4.672  52.213  1.00  0.00    -0.038 SA
HETATM   11  S2  UNL     1      23.710   6.293  52.026  1.00  0.00    -0.071 SA
HETATM   12  C10 UNL     1      24.277   6.580  50.280  1.00  0.00     0.209 C 
HETATM   13  N3  UNL     1      25.141   5.407  49.889  1.00  0.00    -0.376 N 
HETATM   14  C11 UNL     1      26.264   5.340  49.023  1.00  0.00     0.086 C 
HETATM   15  C12 UNL     1      26.970   4.223  49.060  1.00  0.00     0.017 C 
HETATM   16  C13 UNL     1      26.642   3.060  49.909  1.00  0.00     0.008 C 
HETATM   17  C14 UNL     1      25.599   3.043  50.713  1.00  0.00    -0.030 C 
HETATM   18  C15 UNL     1      24.706   4.256  50.525  1.00  0.00     0.160 C 
HETATM   19  C16 UNL     1      21.925   1.238  52.930  1.00  0.00     0.081 C 
HETATM   20  H8  UNL     1      25.275   3.577  53.408  1.00  0.00     0.161 HD
ENDROOT
BRANCH   1  21
HETATM   21  C1  UNL     1      21.723  -0.567  54.583  1.00  0.00     0.245 C 
HETATM   22  N1  UNL     1      20.382  -0.110  54.630  1.00  0.00    -0.366 N 
HETATM   23  H1  UNL     1      20.288   0.266  55.621  1.00  0.00     0.159 HD
HETATM   24  H2  UNL     1      19.535  -0.048  54.008  1.00  0.00     0.159 HD
HETATM   25  O1  UNL     1      22.096  -1.564  55.249  1.00  0.00    -0.268 OA
ENDBRANCH   1  21
TORSDOF 1
ENDMDL
MODEL 4
REMARK VINA RESULT:      -8.3      4.012      6.360
REMARK  1 active torsions:
REMARK  status: ('A' for Active; 'I' for Inactive)
REMARK       I    between atoms: N1_1  and  C1_2 
REMARK    1  A    between atoms: C1_2  and  C2_4 
ROOT
HETATM    1  C2  UNL     1      19.494  -0.864  53.251  1.00  0.00     0.013 C 
HETATM    2  C3  UNL     1      20.390  -1.458  54.075  1.00  0.00     0.013 C 
HETATM    3  C4  UNL     1      21.835  -1.245  54.362  1.00  0.00    -0.001 C 
HETATM    4  C5  UNL     1      22.875  -0.573  53.868  1.00  0.00     0.009 C 
HETATM    5  C6  UNL     1      23.031   0.356  52.850  1.00  0.00     0.078 C 
HETATM    6  C7  UNL     1      22.233  -0.219  51.699  1.00  0.00     0.077 C 
HETATM    7  C8  UNL     1      20.977   0.480  52.020  1.00  0.00    -0.038 C 
HETATM    8  C9  UNL     1      21.387   1.693  52.287  1.00  0.00     0.080 C 
HETATM    9  N2  UNL     1      22.326   1.560  53.398  1.00  0.00    -0.367 N 
HETATM   10  S1  UNL     1      21.104   3.324  51.592  1.00  0.00    -0.038 SA
HETATM   11  S2  UNL     1      22.696   4.640  52.133  1.00  0.00    -0.071 SA
HETATM   12  C10 UNL     1      24.160   4.531  50.996  1.00  0.00     0.209 C 
HETATM   13  N3  UNL     1      24.800   3.183  51.213  1.00  0.00    -0.376 N 
HETATM   14  C11 UNL     1      26.161   2.786  51.131  1.00  0.00     0.086 C 
HETATM   15  C12 UNL     1      26.455   1.591  51.612  1.00  0.00     0.017 C 
HETATM   16  C13 UNL     1      25.465   0.658  52.185  1.00  0.00     0.008 C 
HETATM   17  C14 UNL     1      24.183   0.949  52.264  1.00  0.00    -0.030 C 
HETATM   18  C15 UNL     1      23.839   2.244  51.550  1.00  0.00     0.160 C 
HETATM   19  C16 UNL     1      19.595   0.174  52.120  1.00  0.00     0.081 C 
HETATM   20  H8  UNL     1      22.594   1.975  54.283  1.00  0.00     0.161 HD
ENDROOT
BRANCH   1  21
HETATM   21  C1  UNL     1      18.125  -1.268  53.458  1.00  0.00     0.245 C 
HETATM   22  N1  UNL     1      17.893  -2.523  54.074  1.00  0.00    -0.366 N 
HETATM   23  H1  UNL     1      17.472  -3.105  53.289  1.00  0.00     0.159 HD
HETATM   24  H2  UNL     1      18.012  -2.990  55.010  1.00  0.00     0.159 HD
HETATM   25  O1  UNL     1      17.174  -0.530  53.103  1.00  0.00    -0.268 OA
ENDBRANCH   1  21
TORSDOF 1
ENDMDL
MODEL 5
REMARK VINA RESULT:      -8.2      3.559      5.118
REMARK  1 active torsions:
REMARK  status: ('A' for Active; 'I' for Inactive)
REMARK       I    between atoms: N1_1  and  C1_2 
REMARK    1  A    between atoms: C1_2  and  C2_4 
ROOT
HETATM    1  C2  UNL     1      25.461   4.184  50.436  1.00  0.00     0.013 C 
HETATM    2  C3  UNL     1      26.384   3.201  50.567  1.00  0.00     0.013 C 
HETATM    3  C4  UNL     1      26.364   1.829  51.145  1.00  0.00    -0.001 C 
HETATM    4  C5  UNL     1      25.575   1.062  51.898  1.00  0.00     0.009 C 
HETATM    5  C6  UNL     1      24.299   1.206  52.421  1.00  0.00     0.078 C 
HETATM    6  C7  UNL     1      24.285   2.613  52.980  1.00  0.00     0.077 C 
HETATM    7  C8  UNL     1      23.760   3.256  51.763  1.00  0.00    -0.038 C 
HETATM    8  C9  UNL     1      22.801   2.442  51.403  1.00  0.00     0.080 C 
HETATM    9  N2  UNL     1      23.437   1.143  51.196  1.00  0.00    -0.367 N 
HETATM   10  S1  UNL     1      21.023   2.570  51.193  1.00  0.00    -0.038 SA
HETATM   11  S2  UNL     1      20.128   0.635  51.301  1.00  0.00    -0.071 SA
HETATM   12  C10 UNL     1      19.770   0.085  53.038  1.00  0.00     0.209 C 
HETATM   13  N3  UNL     1      21.096  -0.161  53.715  1.00  0.00    -0.376 N 
HETATM   14  C11 UNL     1      21.458  -1.098  54.718  1.00  0.00     0.086 C 
HETATM   15  C12 UNL     1      22.751  -1.247  54.945  1.00  0.00     0.017 C 
HETATM   16  C13 UNL     1      23.810  -0.487  54.252  1.00  0.00     0.008 C 
HETATM   17  C14 UNL     1      23.544   0.420  53.334  1.00  0.00    -0.030 C 
HETATM   18  C15 UNL     1      22.057   0.702  53.214  1.00  0.00     0.160 C 
HETATM   19  C16 UNL     1      24.035   4.400  50.972  1.00  0.00     0.081 C 
HETATM   20  H8  UNL     1      23.462   0.347  50.570  1.00  0.00     0.161 HD
ENDROOT
BRANCH   1  21
HETATM   21  C1  UNL     1      25.873   5.290  49.607  1.00  0.00     0.245 C 
HETATM   22  N1  UNL     1      27.261   5.461  49.375  1.00  0.00    -0.366 N 
HETATM   23  H1  UNL     1      27.487   6.358  49.900  1.00  0.00     0.159 HD
HETATM   24  H2  UNL     1      28.053   4.985  48.869  1.00  0.00     0.159 HD
HETATM   25  O1  UNL     1      25.028   6.073  49.109  1.00  0.00    -0.268 OA
ENDBRANCH   1  21
TORSDOF 1
ENDMDL
MODEL 6
REMARK VINA RESULT:      -8.2      4.257      6.033
REMARK  1 active torsions:
REMARK  status: ('A' for Active; 'I' for Inactive)
REMARK       I    between atoms: N1_1  and  C1_2 
REMARK    1  A    between atoms: C1_2  and  C2_4 
ROOT
HETATM    1  C2  UNL     1      21.808   1.192  52.810  1.00  0.00     0.013 C 
HETATM    2  C3  UNL     1      23.006   0.650  53.136  1.00  0.00     0.013 C 
HETATM    3  C4  UNL     1      24.421   1.014  52.852  1.00  0.00    -0.001 C 
HETATM    4  C5  UNL     1      25.113   1.844  52.070  1.00  0.00     0.009 C 
HETATM    5  C6  UNL     1      24.766   2.860  51.192  1.00  0.00     0.078 C 
HETATM    6  C7  UNL     1      23.620   2.282  50.391  1.00  0.00     0.077 C 
HETATM    7  C8  UNL     1      22.550   2.796  51.263  1.00  0.00    -0.038 C 
HETATM    8  C9  UNL     1      22.934   4.026  51.489  1.00  0.00     0.080 C 
HETATM    9  N2  UNL     1      24.250   3.924  52.113  1.00  0.00    -0.367 N 
HETATM   10  S1  UNL     1      22.263   5.658  51.162  1.00  0.00    -0.038 SA
HETATM   11  S2  UNL     1      23.825   7.114  51.182  1.00  0.00    -0.071 SA
HETATM   12  C10 UNL     1      24.706   7.272  49.554  1.00  0.00     0.209 C 
HETATM   13  N3  UNL     1      25.485   5.999  49.339  1.00  0.00    -0.376 N 
HETATM   14  C11 UNL     1      26.723   5.778  48.679  1.00  0.00     0.086 C 
HETATM   15  C12 UNL     1      27.282   4.594  48.858  1.00  0.00     0.017 C 
HETATM   16  C13 UNL     1      26.689   3.506  49.660  1.00  0.00     0.008 C 
HETATM   17  C14 UNL     1      25.530   3.632  50.273  1.00  0.00    -0.030 C 
HETATM   18  C15 UNL     1      24.823   4.926  49.913  1.00  0.00     0.160 C 
HETATM   19  C16 UNL     1      21.357   2.317  51.863  1.00  0.00     0.081 C 
HETATM   20  H8  UNL     1      24.820   4.300  52.863  1.00  0.00     0.161 HD
ENDROOT
BRANCH   1  21
HETATM   21  C1  UNL     1      20.678   0.609  53.492  1.00  0.00     0.245 C 
HETATM   22  N1  UNL     1      20.858   0.196  54.836  1.00  0.00    -0.366 N 
HETATM   23  H1  UNL     1      20.794  -0.865  54.775  1.00  0.00     0.159 HD
HETATM   24  H2  UNL     1      21.022   0.616  55.787  1.00  0.00     0.159 HD
HETATM   25  O1  UNL     1      19.574   0.473  52.910  1.00  0.00    -0.268 OA
ENDBRANCH   1  21
TORSDOF 1
ENDMDL
MODEL 7
REMARK VINA RESULT:      -8.1      2.211      3.332
REMARK  1 active torsions:
REMARK  status: ('A' for Active; 'I' for Inactive)
REMARK       I    between atoms: N1_1  and  C1_2 
REMARK    1  A    between atoms: C1_2  and  C2_4 
ROOT
HETATM    1  C2  UNL     1      27.815   0.967  53.755  1.00  0.00     0.013 C 
HETATM    2  C3  UNL     1      27.657  -0.304  53.317  1.00  0.00     0.013 C 
HETATM    3  C4  UNL     1      26.500  -1.090  52.807  1.00  0.00    -0.001 C 
HETATM    4  C5  UNL     1      25.172  -0.994  52.723  1.00  0.00     0.009 C 
HETATM    5  C6  UNL     1      24.254   0.003  53.019  1.00  0.00     0.078 C 
HETATM    6  C7  UNL     1      24.694   0.521  54.371  1.00  0.00     0.077 C 
HETATM    7  C8  UNL     1      25.554   1.597  53.850  1.00  0.00    -0.038 C 
HETATM    8  C9  UNL     1      24.815   2.119  52.905  1.00  0.00     0.080 C 
HETATM    9  N2  UNL     1      24.541   1.033  51.968  1.00  0.00    -0.367 N 
HETATM   10  S1  UNL     1      24.089   3.729  52.589  1.00  0.00    -0.038 SA
HETATM   11  S2  UNL     1      22.449   3.543  51.235  1.00  0.00    -0.071 SA
HETATM   12  C10 UNL     1      20.848   3.109  52.071  1.00  0.00     0.209 C 
HETATM   13  N3  UNL     1      20.976   1.696  52.582  1.00  0.00    -0.376 N 
HETATM   14  C11 UNL     1      19.997   0.677  52.726  1.00  0.00     0.086 C 
HETATM   15  C12 UNL     1      20.448  -0.541  52.973  1.00  0.00     0.017 C 
HETATM   16  C13 UNL     1      21.874  -0.883  53.134  1.00  0.00     0.008 C 
HETATM   17  C14 UNL     1      22.832   0.017  53.043  1.00  0.00    -0.030 C 
HETATM   18  C15 UNL     1      22.288   1.430  52.937  1.00  0.00     0.160 C 
HETATM   19  C16 UNL     1      26.852   2.119  54.089  1.00  0.00     0.081 C 
HETATM   20  H8  UNL     1      24.497   0.810  50.980  1.00  0.00     0.161 HD
ENDROOT
BRANCH   1  21
HETATM   21  C1  UNL     1      29.186   1.368  53.959  1.00  0.00     0.245 C 
HETATM   22  N1  UNL     1      30.204   0.523  53.451  1.00  0.00    -0.366 N 
HETATM   23  H1  UNL     1      30.660   0.134  54.331  1.00  0.00     0.159 HD
HETATM   24  H2  UNL     1      30.594   0.206  52.526  1.00  0.00     0.159 HD
HETATM   25  O1  UNL     1      29.464   2.430  54.568  1.00  0.00    -0.268 OA
ENDBRANCH   1  21
TORSDOF 1
ENDMDL
MODEL 8
REMARK VINA RESULT:      -7.7      2.957      4.772
REMARK  1 active torsions:
REMARK  status: ('A' for Active; 'I' for Inactive)
REMARK       I    between atoms: N1_1  and  C1_2 
REMARK    1  A    between atoms: C1_2  and  C2_4 
ROOT
HETATM    1  C2  UNL     1      24.946   1.229  53.457  1.00  0.00     0.013 C 
HETATM    2  C3  UNL     1      24.560  -0.034  53.759  1.00  0.00     0.013 C 
HETATM    3  C4  UNL     1      23.383  -0.873  53.402  1.00  0.00    -0.001 C 
HETATM    4  C5  UNL     1      22.183  -0.740  52.835  1.00  0.00     0.009 C 
HETATM    5  C6  UNL     1      21.519   0.305  52.210  1.00  0.00     0.078 C 
HETATM    6  C7  UNL     1      21.762   1.493  53.115  1.00  0.00     0.077 C 
HETATM    7  C8  UNL     1      22.971   1.968  52.422  1.00  0.00    -0.038 C 
HETATM    8  C9  UNL     1      22.631   1.876  51.162  1.00  0.00     0.080 C 
HETATM    9  N2  UNL     1      22.299   0.472  50.940  1.00  0.00    -0.367 N 
HETATM   10  S1  UNL     1      22.447   3.028  49.797  1.00  0.00    -0.038 SA
HETATM   11  S2  UNL     1      21.167   2.200  48.303  1.00  0.00    -0.071 SA
HETATM   12  C10 UNL     1      19.362   2.483  48.639  1.00  0.00     0.209 C 
HETATM   13  N3  UNL     1      18.993   1.654  49.843  1.00  0.00    -0.376 N 
HETATM   14  C11 UNL     1      17.773   1.007  50.176  1.00  0.00     0.086 C 
HETATM   15  C12 UNL     1      17.817   0.148  51.180  1.00  0.00     0.017 C 
HETATM   16  C13 UNL     1      19.028  -0.142  51.973  1.00  0.00     0.008 C 
HETATM   17  C14 UNL     1      20.185   0.443  51.738  1.00  0.00    -0.030 C 
HETATM   18  C15 UNL     1      20.072   1.550  50.705  1.00  0.00     0.160 C 
HETATM   19  C16 UNL     1      24.272   2.423  52.761  1.00  0.00     0.081 C 
HETATM   20  H8  UNL     1      22.422  -0.294  50.288  1.00  0.00     0.161 HD
ENDROOT
BRANCH   1  21
HETATM   21  C1  UNL     1      26.291   1.560  53.861  1.00  0.00     0.245 C 
HETATM   22  N1  UNL     1      27.012   2.482  53.062  1.00  0.00    -0.366 N 
HETATM   23  H1  UNL     1      27.774   1.881  52.625  1.00  0.00     0.159 HD
HETATM   24  H2  UNL     1      26.999   3.504  52.809  1.00  0.00     0.159 HD
HETATM   25  O1  UNL     1      26.801   1.047  54.886  1.00  0.00    -0.268 OA
ENDBRANCH   1  21
TORSDOF 1
ENDMDL
MODEL 9
REMARK VINA RESULT:      -7.3      2.151      3.213
REMARK  1 active torsions:
REMARK  status: ('A' for Active; 'I' for Inactive)
REMARK       I    between atoms: N1_1  and  C1_2 
REMARK    1  A    between atoms: C1_2  and  C2_4 
ROOT
HETATM    1  C2  UNL     1      25.632   0.954  53.847  1.00  0.00     0.013 C 
HETATM    2  C3  UNL     1      25.549   2.298  53.697  1.00  0.00     0.013 C 
HETATM    3  C4  UNL     1      24.507   3.220  53.168  1.00  0.00    -0.001 C 
HETATM    4  C5  UNL     1      23.362   3.166  52.486  1.00  0.00     0.009 C 
HETATM    5  C6  UNL     1      22.556   2.134  52.030  1.00  0.00     0.078 C 
HETATM    6  C7  UNL     1      23.528   1.144  51.426  1.00  0.00     0.077 C 
HETATM    7  C8  UNL     1      23.708   0.341  52.648  1.00  0.00    -0.038 C 
HETATM    8  C9  UNL     1      22.482   0.215  53.087  1.00  0.00     0.080 C 
HETATM    9  N2  UNL     1      21.994   1.575  53.303  1.00  0.00    -0.367 N 
HETATM   10  S1  UNL     1      21.364  -1.156  53.392  1.00  0.00    -0.038 SA
HETATM   11  S2  UNL     1      19.343  -0.471  53.398  1.00  0.00    -0.071 SA
HETATM   12  C10 UNL     1      18.590  -0.379  51.702  1.00  0.00     0.209 C 
HETATM   13  N3  UNL     1      19.283   0.738  50.962  1.00  0.00    -0.376 N 
HETATM   14  C11 UNL     1      18.791   1.630  49.973  1.00  0.00     0.086 C 
HETATM   15  C12 UNL     1      19.559   2.664  49.679  1.00  0.00     0.017 C 
HETATM   16  C13 UNL     1      20.881   2.918  50.286  1.00  0.00     0.008 C 
HETATM   17  C14 UNL     1      21.411   2.116  51.187  1.00  0.00    -0.030 C 
HETATM   18  C15 UNL     1      20.599   0.847  51.380  1.00  0.00     0.160 C 
HETATM   19  C16 UNL     1      24.774  -0.236  53.384  1.00  0.00     0.081 C 
HETATM   20  H8  UNL     1      21.474   2.153  53.953  1.00  0.00     0.161 HD
ENDROOT
BRANCH   1  21
HETATM   21  C1  UNL     1      26.767   0.503  54.614  1.00  0.00     0.245 C 
HETATM   22  N1  UNL     1      27.934   1.308  54.603  1.00  0.00    -0.366 N 
HETATM   23  H1  UNL     1      28.634   0.714  54.065  1.00  0.00     0.159 HD
HETATM   24  H2  UNL     1      28.264   2.245  54.952  1.00  0.00     0.159 HD
HETATM   25  O1  UNL     1      26.719  -0.567  55.268  1.00  0.00    -0.268 OA
ENDBRANCH   1  21
TORSDOF 1
ENDMDL
