MODEL 1
REMARK VINA RESULT:      -8.1      0.000      0.000
REMARK  7 active torsions:
REMARK  status: ('A' for Active; 'I' for Inactive)
REMARK    1  A    between atoms: C2_2  and  N1_3 
REMARK    2  A    between atoms: C2_2  and  C3_4 
REMARK    3  A    between atoms: C3_4  and  C4_5 
REMARK    4  A    between atoms: C4_5  and  C5_6 
REMARK    5  A    between atoms: C5_6  and  C6_7 
REMARK    6  A    between atoms: C6_7  and  N2_8 
REMARK    7  A    between atoms: N2_8  and  C7_9 
ROOT
HETATM    1  C7  UNL     1      24.995   1.484  51.740  1.00  0.00     0.143 A 
HETATM    2  N3  UNL     1      23.861   1.749  51.051  1.00  0.00    -0.215 NA
HETATM    3  C8  UNL     1      22.688   1.179  51.474  1.00  0.00     0.134 A 
HETATM    4  N4  UNL     1      22.639   0.388  52.522  1.00  0.00    -0.214 NA
HETATM    5  C9  UNL     1      23.705   0.094  53.230  1.00  0.00     0.149 A 
HETATM    6  C10 UNL     1      24.882   0.649  52.829  1.00  0.00     0.058 A 
HETATM    7  C11 UNL     1      25.797   0.175  53.731  1.00  0.00     0.037 A 
HETATM    8  C12 UNL     1      25.111  -0.624  54.604  1.00  0.00     0.099 A 
HETATM    9  N5  UNL     1      23.811  -0.677  54.298  1.00  0.00    -0.317 N 
HETATM   10  C13 UNL     1      22.710  -1.333  54.874  1.00  0.00     0.094 A 
HETATM   11  C14 UNL     1      21.411  -1.449  54.673  1.00  0.00    -0.001 A 
HETATM   12  C15 UNL     1      20.653  -0.781  53.571  1.00  0.00     0.109 A 
HETATM   13  C16 UNL     1      19.364  -0.717  53.134  1.00  0.00     0.067 A 
HETATM   14 CL1  UNL     1      17.711  -1.328  53.506  1.00  0.00    -0.118 Cl
HETATM   15  C17 UNL     1      19.310   0.167  51.921  1.00  0.00     0.028 A 
HETATM   16 CL2  UNL     1      17.643   0.313  51.265  1.00  0.00    -0.088 Cl
HETATM   17  C18 UNL     1      20.245   0.867  51.227  1.00  0.00     0.002 A 
HETATM   18  C19 UNL     1      21.459   1.500  50.699  1.00  0.00     0.109 A 
ENDROOT
BRANCH   1  19
HETATM   19  N2  UNL     1      26.207   2.071  51.324  1.00  0.00    -0.350 N 
HETATM   20  H11 UNL     1      27.098   1.745  51.783  1.00  0.00     0.166 HD
BRANCH  19  21
HETATM   21  C6  UNL     1      26.465   3.022  50.385  1.00  0.00     0.090 C 
BRANCH  21  22
HETATM   22  C5  UNL     1      26.396   4.007  49.594  1.00  0.00     0.017 C 
BRANCH  22  23
HETATM   23  C4  UNL     1      25.898   5.349  49.616  1.00  0.00    -0.001 C 
BRANCH  23  24
HETATM   24  C3  UNL     1      24.705   5.219  50.297  1.00  0.00     0.008 C 
BRANCH  24  25
HETATM   25  C2  UNL     1      23.763   5.847  51.298  1.00  0.00     0.236 C 
HETATM   26  C1  UNL     1      23.484   4.905  52.437  1.00  0.00     0.046 C 
BRANCH  25  27
HETATM   27  N1  UNL     1      24.442   7.023  51.880  1.00  0.00     0.086 N 
HETATM   28  H5  UNL     1      25.424   7.002  51.588  1.00  0.00     0.313 HD
HETATM   29  H6  UNL     1      24.319   7.033  52.917  1.00  0.00     0.313 HD
ENDBRANCH  25  27
ENDBRANCH  24  25
ENDBRANCH  23  24
ENDBRANCH  22  23
ENDBRANCH  21  22
ENDBRANCH  19  21
ENDBRANCH   1  19
TORSDOF 7
ENDMDL
MODEL 2
REMARK VINA RESULT:      -8.1      2.238      5.227
REMARK  7 active torsions:
REMARK  status: ('A' for Active; 'I' for Inactive)
REMARK    1  A    between atoms: C2_2  and  N1_3 
REMARK    2  A    between atoms: C2_2  and  C3_4 
REMARK    3  A    between atoms: C3_4  and  C4_5 
REMARK    4  A    between atoms: C4_5  and  C5_6 
REMARK    5  A    between atoms: C5_6  and  C6_7 
REMARK    6  A    between atoms: C6_7  and  N2_8 
REMARK    7  A    between atoms: N2_8  and  C7_9 
ROOT
HETATM    1  C7  UNL     1      25.776   2.183  52.258  1.00  0.00     0.143 A 
HETATM    2  N3  UNL     1      25.067   1.403  53.105  1.00  0.00    -0.215 NA
HETATM    3  C8  UNL     1      23.772   1.092  52.781  1.00  0.00     0.134 A 
HETATM    4  N4  UNL     1      23.208   1.529  51.678  1.00  0.00    -0.214 NA
HETATM    5  C9  UNL     1      23.845   2.289  50.817  1.00  0.00     0.149 A 
HETATM    6  C10 UNL     1      25.133   2.612  51.118  1.00  0.00     0.058 A 
HETATM    7  C11 UNL     1      25.534   3.396  50.069  1.00  0.00     0.037 A 
HETATM    8  C12 UNL     1      24.467   3.488  49.217  1.00  0.00     0.099 A 
HETATM    9  N5  UNL     1      23.416   2.802  49.677  1.00  0.00    -0.317 N 
HETATM   10  C13 UNL     1      22.119   2.577  49.184  1.00  0.00     0.094 A 
HETATM   11  C14 UNL     1      21.026   1.926  49.534  1.00  0.00    -0.001 A 
HETATM   12  C15 UNL     1      20.877   1.113  50.780  1.00  0.00     0.109 A 
HETATM   13  C16 UNL     1      19.911   0.361  51.378  1.00  0.00     0.067 A 
HETATM   14 CL1  UNL     1      18.212  -0.197  51.160  1.00  0.00    -0.118 Cl
HETATM   15  C17 UNL     1      20.456  -0.187  52.665  1.00  0.00     0.028 A 
HETATM   16 CL2  UNL     1      19.250  -1.196  53.536  1.00  0.00    -0.088 Cl
HETATM   17  C18 UNL     1      21.654  -0.079  53.300  1.00  0.00     0.002 A 
HETATM   18  C19 UNL     1      23.024   0.222  53.729  1.00  0.00     0.109 A 
ENDROOT
BRANCH   1  19
HETATM   19  N2  UNL     1      27.112   2.503  52.573  1.00  0.00    -0.350 N 
HETATM   20  H11 UNL     1      27.434   3.495  52.414  1.00  0.00     0.166 HD
BRANCH  19  21
HETATM   21  C6  UNL     1      28.120   1.742  53.080  1.00  0.00     0.090 C 
BRANCH  21  22
HETATM   22  C5  UNL     1      28.903   1.104  53.842  1.00  0.00     0.017 C 
BRANCH  22  23
HETATM   23  C4  UNL     1      29.844   0.031  53.734  1.00  0.00    -0.001 C 
BRANCH  23  24
HETATM   24  C3  UNL     1      29.091  -0.977  53.166  1.00  0.00     0.008 C 
BRANCH  24  25
HETATM   25  C2  UNL     1      27.949  -1.947  53.363  1.00  0.00     0.236 C 
HETATM   26  C1  UNL     1      26.849  -1.689  52.370  1.00  0.00     0.046 C 
BRANCH  25  27
HETATM   27  N1  UNL     1      28.458  -3.305  53.085  1.00  0.00     0.086 N 
HETATM   28  H5  UNL     1      27.924  -3.969  53.654  1.00  0.00     0.313 HD
HETATM   29  H6  UNL     1      29.487  -3.347  53.257  1.00  0.00     0.313 HD
ENDBRANCH  25  27
ENDBRANCH  24  25
ENDBRANCH  23  24
ENDBRANCH  22  23
ENDBRANCH  21  22
ENDBRANCH  19  21
ENDBRANCH   1  19
TORSDOF 7
ENDMDL
MODEL 3
REMARK VINA RESULT:      -7.8      1.534      2.075
REMARK  7 active torsions:
REMARK  status: ('A' for Active; 'I' for Inactive)
REMARK    1  A    between atoms: C2_2  and  N1_3 
REMARK    2  A    between atoms: C2_2  and  C3_4 
REMARK    3  A    between atoms: C3_4  and  C4_5 
REMARK    4  A    between atoms: C4_5  and  C5_6 
REMARK    5  A    between atoms: C5_6  and  C6_7 
REMARK    6  A    between atoms: C6_7  and  N2_8 
REMARK    7  A    between atoms: N2_8  and  C7_9 
ROOT
HETATM    1  C7  UNL     1      25.990   2.891  51.040  1.00  0.00     0.143 A 
HETATM    2  N3  UNL     1      24.700   2.861  50.633  1.00  0.00    -0.215 NA
HETATM    3  C8  UNL     1      23.837   1.996  51.255  1.00  0.00     0.134 A 
HETATM    4  N4  UNL     1      24.228   1.203  52.227  1.00  0.00    -0.214 NA
HETATM    5  C9  UNL     1      25.466   1.188  52.666  1.00  0.00     0.149 A 
HETATM    6  C10 UNL     1      26.342   2.038  52.063  1.00  0.00     0.058 A 
HETATM    7  C11 UNL     1      27.528   1.807  52.708  1.00  0.00     0.037 A 
HETATM    8  C12 UNL     1      27.283   0.843  53.646  1.00  0.00     0.099 A 
HETATM    9  N5  UNL     1      26.004   0.455  53.624  1.00  0.00    -0.317 N 
HETATM   10  C13 UNL     1      25.264  -0.476  54.374  1.00  0.00     0.094 A 
HETATM   11  C14 UNL     1      24.027  -0.925  54.450  1.00  0.00    -0.001 A 
HETATM   12  C15 UNL     1      22.894  -0.462  53.590  1.00  0.00     0.109 A 
HETATM   13  C16 UNL     1      21.566  -0.732  53.448  1.00  0.00     0.067 A 
HETATM   14 CL1  UNL     1      20.250  -1.761  54.121  1.00  0.00    -0.118 Cl
HETATM   15  C17 UNL     1      21.016   0.125  52.345  1.00  0.00     0.028 A 
HETATM   16 CL2  UNL     1      19.263  -0.161  52.075  1.00  0.00    -0.088 Cl
HETATM   17  C18 UNL     1      21.562   1.058  51.519  1.00  0.00     0.002 A 
HETATM   18  C19 UNL     1      22.424   1.995  50.791  1.00  0.00     0.109 A 
ENDROOT
BRANCH   1  19
HETATM   19  N2  UNL     1      26.887   3.782  50.417  1.00  0.00    -0.350 N 
HETATM   20  H11 UNL     1      27.882   3.808  50.767  1.00  0.00     0.166 HD
BRANCH  19  21
HETATM   21  C6  UNL     1      26.713   4.655  49.388  1.00  0.00     0.090 C 
BRANCH  21  22
HETATM   22  C5  UNL     1      26.718   5.673  48.636  1.00  0.00     0.017 C 
BRANCH  22  23
HETATM   23  C4  UNL     1      26.079   6.953  48.582  1.00  0.00    -0.001 C 
BRANCH  23  24
HETATM   24  C3  UNL     1      25.509   7.060  49.835  1.00  0.00     0.008 C 
BRANCH  24  25
HETATM   25  C2  UNL     1      24.220   7.086  50.624  1.00  0.00     0.236 C 
HETATM   26  C1  UNL     1      23.217   6.128  50.044  1.00  0.00     0.046 C 
BRANCH  25  27
HETATM   27  N1  UNL     1      24.519   6.609  51.990  1.00  0.00     0.086 N 
HETATM   28  H5  UNL     1      23.700   6.792  52.578  1.00  0.00     0.313 HD
HETATM   29  H6  UNL     1      25.392   7.057  52.345  1.00  0.00     0.313 HD
ENDBRANCH  25  27
ENDBRANCH  24  25
ENDBRANCH  23  24
ENDBRANCH  22  23
ENDBRANCH  21  22
ENDBRANCH  19  21
ENDBRANCH   1  19
TORSDOF 7
ENDMDL
MODEL 4
REMARK VINA RESULT:      -7.7      2.355      4.453
REMARK  7 active torsions:
REMARK  status: ('A' for Active; 'I' for Inactive)
REMARK    1  A    between atoms: C2_2  and  N1_3 
REMARK    2  A    between atoms: C2_2  and  C3_4 
REMARK    3  A    between atoms: C3_4  and  C4_5 
REMARK    4  A    between atoms: C4_5  and  C5_6 
REMARK    5  A    between atoms: C5_6  and  C6_7 
REMARK    6  A    between atoms: C6_7  and  N2_8 
REMARK    7  A    between atoms: N2_8  and  C7_9 
ROOT
HETATM    1  C7  UNL     1      26.334   3.609  49.896  1.00  0.00     0.143 A 
HETATM    2  N3  UNL     1      26.837   2.831  50.882  1.00  0.00    -0.215 NA
HETATM    3  C8  UNL     1      25.969   2.084  51.635  1.00  0.00     0.134 A 
HETATM    4  N4  UNL     1      24.673   2.105  51.427  1.00  0.00    -0.214 NA
HETATM    5  C9  UNL     1      24.125   2.839  50.486  1.00  0.00     0.149 A 
HETATM    6  C10 UNL     1      24.967   3.590  49.724  1.00  0.00     0.058 A 
HETATM    7  C11 UNL     1      24.136   4.238  48.849  1.00  0.00     0.037 A 
HETATM    8  C12 UNL     1      22.863   3.833  49.143  1.00  0.00     0.099 A 
HETATM    9  N5  UNL     1      22.850   2.964  50.159  1.00  0.00    -0.317 N 
HETATM   10  C13 UNL     1      21.826   2.264  50.818  1.00  0.00     0.094 A 
HETATM   11  C14 UNL     1      21.695   1.394  51.800  1.00  0.00    -0.001 A 
HETATM   12  C15 UNL     1      22.826   0.833  52.603  1.00  0.00     0.109 A 
HETATM   13  C16 UNL     1      22.988  -0.045  53.632  1.00  0.00     0.067 A 
HETATM   14 CL1  UNL     1      22.057  -1.123  54.734  1.00  0.00    -0.118 Cl
HETATM   15  C17 UNL     1      24.451  -0.139  53.959  1.00  0.00     0.028 A 
HETATM   16 CL2  UNL     1      24.770  -1.275  55.313  1.00  0.00    -0.088 Cl
HETATM   17  C18 UNL     1      25.566   0.450  53.451  1.00  0.00     0.002 A 
HETATM   18  C19 UNL     1      26.558   1.231  52.704  1.00  0.00     0.109 A 
ENDROOT
BRANCH   1  19
HETATM   19  N2  UNL     1      27.214   4.374  49.106  1.00  0.00    -0.350 N 
HETATM   20  H11 UNL     1      28.052   3.890  48.687  1.00  0.00     0.166 HD
BRANCH  19  21
HETATM   21  C6  UNL     1      27.184   5.687  48.748  1.00  0.00     0.090 C 
BRANCH  21  22
HETATM   22  C5  UNL     1      27.101   6.950  48.744  1.00  0.00     0.017 C 
BRANCH  22  23
HETATM   23  C4  UNL     1      26.635   7.983  49.618  1.00  0.00    -0.001 C 
BRANCH  23  24
HETATM   24  C3  UNL     1      25.453   7.461  50.101  1.00  0.00     0.008 C 
BRANCH  24  25
HETATM   25  C2  UNL     1      24.272   7.680  51.020  1.00  0.00     0.236 C 
HETATM   26  C1  UNL     1      22.976   7.522  50.274  1.00  0.00     0.046 C 
BRANCH  25  27
HETATM   27  N1  UNL     1      24.299   6.619  52.048  1.00  0.00     0.086 N 
HETATM   28  H5  UNL     1      25.118   6.773  52.644  1.00  0.00     0.313 HD
HETATM   29  H6  UNL     1      24.287   5.678  51.596  1.00  0.00     0.313 HD
ENDBRANCH  25  27
ENDBRANCH  24  25
ENDBRANCH  23  24
ENDBRANCH  22  23
ENDBRANCH  21  22
ENDBRANCH  19  21
ENDBRANCH   1  19
TORSDOF 7
ENDMDL
MODEL 5
REMARK VINA RESULT:      -7.6      2.800      4.608
REMARK  7 active torsions:
REMARK  status: ('A' for Active; 'I' for Inactive)
REMARK    1  A    between atoms: C2_2  and  N1_3 
REMARK    2  A    between atoms: C2_2  and  C3_4 
REMARK    3  A    between atoms: C3_4  and  C4_5 
REMARK    4  A    between atoms: C4_5  and  C5_6 
REMARK    5  A    between atoms: C5_6  and  C6_7 
REMARK    6  A    between atoms: C6_7  and  N2_8 
REMARK    7  A    between atoms: N2_8  and  C7_9 
ROOT
HETATM    1  C7  UNL     1      25.068   3.671  49.779  1.00  0.00     0.143 A 
HETATM    2  N3  UNL     1      25.631   3.115  50.876  1.00  0.00    -0.215 NA
HETATM    3  C8  UNL     1      24.919   2.173  51.572  1.00  0.00     0.134 A 
HETATM    4  N4  UNL     1      23.715   1.800  51.204  1.00  0.00    -0.214 NA
HETATM    5  C9  UNL     1      23.116   2.303  50.148  1.00  0.00     0.149 A 
HETATM    6  C10 UNL     1      23.804   3.241  49.441  1.00  0.00     0.058 A 
HETATM    7  C11 UNL     1      22.953   3.579  48.422  1.00  0.00     0.037 A 
HETATM    8  C12 UNL     1      21.823   2.826  48.588  1.00  0.00     0.099 A 
HETATM    9  N5  UNL     1      21.919   2.032  49.658  1.00  0.00    -0.317 N 
HETATM   10  C13 UNL     1      21.058   1.084  50.238  1.00  0.00     0.094 A 
HETATM   11  C14 UNL     1      21.048   0.251  51.261  1.00  0.00    -0.001 A 
HETATM   12  C15 UNL     1      22.168   0.082  52.238  1.00  0.00     0.109 A 
HETATM   13  C16 UNL     1      22.430  -0.669  53.343  1.00  0.00     0.067 A 
HETATM   14 CL1  UNL     1      21.705  -1.933  54.402  1.00  0.00    -0.118 Cl
HETATM   15  C17 UNL     1      23.796  -0.312  53.854  1.00  0.00     0.028 A 
HETATM   16 CL2  UNL     1      24.237  -1.251  55.322  1.00  0.00    -0.088 Cl
HETATM   17  C18 UNL     1      24.754   0.562  53.444  1.00  0.00     0.002 A 
HETATM   18  C19 UNL     1      25.573   1.574  52.768  1.00  0.00     0.109 A 
ENDROOT
BRANCH   1  19
HETATM   19  N2  UNL     1      25.792   4.633  49.046  1.00  0.00    -0.350 N 
HETATM   20  H11 UNL     1      25.248   5.381  48.539  1.00  0.00     0.166 HD
BRANCH  19  21
HETATM   21  C6  UNL     1      27.130   4.801  48.866  1.00  0.00     0.090 C 
BRANCH  21  22
HETATM   22  C5  UNL     1      28.271   5.200  48.490  1.00  0.00     0.017 C 
BRANCH  22  23
HETATM   23  C4  UNL     1      28.830   6.348  47.843  1.00  0.00    -0.001 C 
BRANCH  23  24
HETATM   24  C3  UNL     1      27.970   7.359  48.221  1.00  0.00     0.008 C 
BRANCH  24  25
HETATM   25  C2  UNL     1      27.818   8.644  49.000  1.00  0.00     0.236 C 
HETATM   26  C1  UNL     1      26.762   8.506  50.063  1.00  0.00     0.046 C 
BRANCH  25  27
HETATM   27  N1  UNL     1      29.092   8.899  49.703  1.00  0.00     0.086 N 
HETATM   28  H5  UNL     1      29.641   8.033  49.692  1.00  0.00     0.313 HD
HETATM   29  H6  UNL     1      28.907   9.259  50.665  1.00  0.00     0.313 HD
ENDBRANCH  25  27
ENDBRANCH  24  25
ENDBRANCH  23  24
ENDBRANCH  22  23
ENDBRANCH  21  22
ENDBRANCH  19  21
ENDBRANCH   1  19
TORSDOF 7
ENDMDL
MODEL 6
REMARK VINA RESULT:      -7.4      3.281      5.195
REMARK  7 active torsions:
REMARK  status: ('A' for Active; 'I' for Inactive)
REMARK    1  A    between atoms: C2_2  and  N1_3 
REMARK    2  A    between atoms: C2_2  and  C3_4 
REMARK    3  A    between atoms: C3_4  and  C4_5 
REMARK    4  A    between atoms: C4_5  and  C5_6 
REMARK    5  A    between atoms: C5_6  and  C6_7 
REMARK    6  A    between atoms: C6_7  and  N2_8 
REMARK    7  A    between atoms: N2_8  and  C7_9 
ROOT
HETATM    1  C7  UNL     1      25.058   3.626  49.807  1.00  0.00     0.143 A 
HETATM    2  N3  UNL     1      25.611   3.074  50.911  1.00  0.00    -0.215 NA
HETATM    3  C8  UNL     1      24.892   2.134  51.603  1.00  0.00     0.134 A 
HETATM    4  N4  UNL     1      23.690   1.762  51.226  1.00  0.00    -0.214 NA
HETATM    5  C9  UNL     1      23.102   2.261  50.163  1.00  0.00     0.149 A 
HETATM    6  C10 UNL     1      23.796   3.197  49.459  1.00  0.00     0.058 A 
HETATM    7  C11 UNL     1      22.955   3.532  48.432  1.00  0.00     0.037 A 
HETATM    8  C12 UNL     1      21.823   2.781  48.590  1.00  0.00     0.099 A 
HETATM    9  N5  UNL     1      21.909   1.990  49.663  1.00  0.00    -0.317 N 
HETATM   10  C13 UNL     1      21.042   1.045  50.239  1.00  0.00     0.094 A 
HETATM   11  C14 UNL     1      21.022   0.216  51.264  1.00  0.00    -0.001 A 
HETATM   12  C15 UNL     1      22.133   0.049  52.252  1.00  0.00     0.109 A 
HETATM   13  C16 UNL     1      22.385  -0.699  53.362  1.00  0.00     0.067 A 
HETATM   14 CL1  UNL     1      21.649  -1.959  54.419  1.00  0.00    -0.118 Cl
HETATM   15  C17 UNL     1      23.747  -0.341  53.884  1.00  0.00     0.028 A 
HETATM   16 CL2  UNL     1      24.173  -1.276  55.359  1.00  0.00    -0.088 Cl
HETATM   17  C18 UNL     1      24.709   0.530  53.479  1.00  0.00     0.002 A 
HETATM   18  C19 UNL     1      25.534   1.539  52.807  1.00  0.00     0.109 A 
ENDROOT
BRANCH   1  19
HETATM   19  N2  UNL     1      25.789   4.586  49.077  1.00  0.00    -0.350 N 
HETATM   20  H11 UNL     1      25.254   5.361  48.604  1.00  0.00     0.166 HD
BRANCH  19  21
HETATM   21  C6  UNL     1      27.126   4.719  48.862  1.00  0.00     0.090 C 
BRANCH  21  22
HETATM   22  C5  UNL     1      28.270   5.117  48.495  1.00  0.00     0.017 C 
BRANCH  22  23
HETATM   23  C4  UNL     1      28.863   6.323  48.001  1.00  0.00    -0.001 C 
BRANCH  23  24
HETATM   24  C3  UNL     1      30.189   5.971  47.856  1.00  0.00     0.008 C 
BRANCH  24  25
HETATM   25  C2  UNL     1      31.460   5.563  48.567  1.00  0.00     0.236 C 
HETATM   26  C1  UNL     1      32.671   6.081  47.840  1.00  0.00     0.046 C 
BRANCH  25  27
HETATM   27  N1  UNL     1      31.458   6.207  49.896  1.00  0.00     0.086 N 
HETATM   28  H5  UNL     1      32.416   6.194  50.259  1.00  0.00     0.313 HD
HETATM   29  H6  UNL     1      30.771   5.735  50.524  1.00  0.00     0.313 HD
ENDBRANCH  25  27
ENDBRANCH  24  25
ENDBRANCH  23  24
ENDBRANCH  22  23
ENDBRANCH  21  22
ENDBRANCH  19  21
ENDBRANCH   1  19
TORSDOF 7
ENDMDL
MODEL 7
REMARK VINA RESULT:      -7.4      4.803      8.127
REMARK  7 active torsions:
REMARK  status: ('A' for Active; 'I' for Inactive)
REMARK    1  A    between atoms: C2_2  and  N1_3 
REMARK    2  A    between atoms: C2_2  and  C3_4 
REMARK    3  A    between atoms: C3_4  and  C4_5 
REMARK    4  A    between atoms: C4_5  and  C5_6 
REMARK    5  A    between atoms: C5_6  and  C6_7 
REMARK    6  A    between atoms: C6_7  and  N2_8 
REMARK    7  A    between atoms: N2_8  and  C7_9 
ROOT
HETATM    1  C7  UNL     1      24.772   2.669  51.163  1.00  0.00     0.143 A 
HETATM    2  N3  UNL     1      25.842   2.888  50.365  1.00  0.00    -0.215 NA
HETATM    3  C8  UNL     1      26.035   4.148  49.859  1.00  0.00     0.134 A 
HETATM    4  N4  UNL     1      25.214   5.138  50.127  1.00  0.00    -0.214 NA
HETATM    5  C9  UNL     1      24.160   4.987  50.896  1.00  0.00     0.149 A 
HETATM    6  C10 UNL     1      23.947   3.745  51.410  1.00  0.00     0.058 A 
HETATM    7  C11 UNL     1      22.803   3.882  52.151  1.00  0.00     0.037 A 
HETATM    8  C12 UNL     1      22.413   5.188  52.031  1.00  0.00     0.099 A 
HETATM    9  N5  UNL     1      23.252   5.878  51.253  1.00  0.00    -0.317 N 
HETATM   10  C13 UNL     1      23.300   7.220  50.836  1.00  0.00     0.094 A 
HETATM   11  C14 UNL     1      24.065   8.000  50.097  1.00  0.00    -0.001 A 
HETATM   12  C15 UNL     1      25.307   7.558  49.390  1.00  0.00     0.109 A 
HETATM   13  C16 UNL     1      26.259   8.116  48.591  1.00  0.00     0.067 A 
HETATM   14 CL1  UNL     1      26.731   9.679  47.830  1.00  0.00    -0.118 Cl
HETATM   15  C17 UNL     1      27.254   7.056  48.216  1.00  0.00     0.028 A 
HETATM   16 CL2  UNL     1      28.556   7.695  47.155  1.00  0.00    -0.088 Cl
HETATM   17  C18 UNL     1      27.372   5.733  48.508  1.00  0.00     0.002 A 
HETATM   18  C19 UNL     1      27.227   4.356  48.992  1.00  0.00     0.109 A 
ENDROOT
BRANCH   1  19
HETATM   19  N2  UNL     1      24.566   1.383  51.700  1.00  0.00    -0.350 N 
HETATM   20  H11 UNL     1      23.795   0.792  51.288  1.00  0.00     0.166 HD
BRANCH  19  21
HETATM   21  C6  UNL     1      25.211   0.713  52.694  1.00  0.00     0.090 C 
BRANCH  21  22
HETATM   22  C5  UNL     1      25.497   0.038  53.725  1.00  0.00     0.017 C 
BRANCH  22  23
HETATM   23  C4  UNL     1      26.307   0.185  54.896  1.00  0.00    -0.001 C 
BRANCH  23  24
HETATM   24  C3  UNL     1      27.587   0.055  54.398  1.00  0.00     0.008 C 
BRANCH  24  25
HETATM   25  C2  UNL     1      29.043   0.418  54.581  1.00  0.00     0.236 C 
HETATM   26  C1  UNL     1      29.886  -0.178  53.487  1.00  0.00     0.046 C 
BRANCH  25  27
HETATM   27  N1  UNL     1      29.160   1.886  54.452  1.00  0.00     0.086 N 
HETATM   28  H5  UNL     1      29.854   2.087  53.725  1.00  0.00     0.313 HD
HETATM   29  H6  UNL     1      29.394   2.311  55.376  1.00  0.00     0.313 HD
ENDBRANCH  25  27
ENDBRANCH  24  25
ENDBRANCH  23  24
ENDBRANCH  22  23
ENDBRANCH  21  22
ENDBRANCH  19  21
ENDBRANCH   1  19
TORSDOF 7
ENDMDL
MODEL 8
REMARK VINA RESULT:      -7.3      4.161      7.507
REMARK  7 active torsions:
REMARK  status: ('A' for Active; 'I' for Inactive)
REMARK    1  A    between atoms: C2_2  and  N1_3 
REMARK    2  A    between atoms: C2_2  and  C3_4 
REMARK    3  A    between atoms: C3_4  and  C4_5 
REMARK    4  A    between atoms: C4_5  and  C5_6 
REMARK    5  A    between atoms: C5_6  and  C6_7 
REMARK    6  A    between atoms: C6_7  and  N2_8 
REMARK    7  A    between atoms: N2_8  and  C7_9 
ROOT
HETATM    1  C7  UNL     1      23.192   2.087  52.044  1.00  0.00     0.143 A 
HETATM    2  N3  UNL     1      24.465   1.974  51.601  1.00  0.00    -0.215 NA
HETATM    3  C8  UNL     1      24.982   2.981  50.828  1.00  0.00     0.134 A 
HETATM    4  N4  UNL     1      24.278   4.044  50.510  1.00  0.00    -0.214 NA
HETATM    5  C9  UNL     1      23.038   4.211  50.910  1.00  0.00     0.149 A 
HETATM    6  C10 UNL     1      22.502   3.223  51.679  1.00  0.00     0.058 A 
HETATM    7  C11 UNL     1      21.230   3.656  51.938  1.00  0.00     0.037 A 
HETATM    8  C12 UNL     1      21.091   4.865  51.313  1.00  0.00     0.099 A 
HETATM    9  N5  UNL     1      22.211   5.214  50.673  1.00  0.00    -0.317 N 
HETATM   10  C13 UNL     1      22.578   6.335  49.909  1.00  0.00     0.094 A 
HETATM   11  C14 UNL     1      23.630   6.785  49.254  1.00  0.00    -0.001 A 
HETATM   12  C15 UNL     1      24.941   6.072  49.147  1.00  0.00     0.109 A 
HETATM   13  C16 UNL     1      26.154   6.284  48.564  1.00  0.00     0.067 A 
HETATM   14 CL1  UNL     1      27.054   7.478  47.560  1.00  0.00    -0.118 Cl
HETATM   15  C17 UNL     1      27.043   5.112  48.864  1.00  0.00     0.028 A 
HETATM   16 CL2  UNL     1      28.674   5.294  48.132  1.00  0.00    -0.088 Cl
HETATM   17  C18 UNL     1      26.872   3.958  49.563  1.00  0.00     0.002 A 
HETATM   18  C19 UNL     1      26.389   2.830  50.367  1.00  0.00     0.109 A 
ENDROOT
BRANCH   1  19
HETATM   19  N2  UNL     1      22.649   1.065  52.848  1.00  0.00    -0.350 N 
HETATM   20  H11 UNL     1      21.612   1.084  53.040  1.00  0.00     0.166 HD
BRANCH  19  21
HETATM   21  C6  UNL     1      23.233  -0.008  53.448  1.00  0.00     0.090 C 
BRANCH  21  22
HETATM   22  C5  UNL     1      24.019  -0.781  54.069  1.00  0.00     0.017 C 
BRANCH  22  23
HETATM   23  C4  UNL     1      24.884  -0.720  55.208  1.00  0.00    -0.001 C 
BRANCH  23  24
HETATM   24  C3  UNL     1      26.107  -0.416  54.644  1.00  0.00     0.008 C 
BRANCH  24  25
HETATM   25  C2  UNL     1      27.059   0.687  54.243  1.00  0.00     0.236 C 
HETATM   26  C1  UNL     1      27.561   0.480  52.841  1.00  0.00     0.046 C 
BRANCH  25  27
HETATM   27  N1  UNL     1      26.301   1.956  54.236  1.00  0.00     0.086 N 
HETATM   28  H5  UNL     1      26.093   2.197  53.262  1.00  0.00     0.313 HD
HETATM   29  H6  UNL     1      26.835   2.697  54.741  1.00  0.00     0.313 HD
ENDBRANCH  25  27
ENDBRANCH  24  25
ENDBRANCH  23  24
ENDBRANCH  22  23
ENDBRANCH  21  22
ENDBRANCH  19  21
ENDBRANCH   1  19
TORSDOF 7
ENDMDL
MODEL 9
REMARK VINA RESULT:      -7.2      4.294      6.590
REMARK  7 active torsions:
REMARK  status: ('A' for Active; 'I' for Inactive)
REMARK    1  A    between atoms: C2_2  and  N1_3 
REMARK    2  A    between atoms: C2_2  and  C3_4 
REMARK    3  A    between atoms: C3_4  and  C4_5 
REMARK    4  A    between atoms: C4_5  and  C5_6 
REMARK    5  A    between atoms: C5_6  and  C6_7 
REMARK    6  A    between atoms: C6_7  and  N2_8 
REMARK    7  A    between atoms: N2_8  and  C7_9 
ROOT
HETATM    1  C7  UNL     1      21.229   1.217  51.840  1.00  0.00     0.143 A 
HETATM    2  N3  UNL     1      22.354   1.891  51.509  1.00  0.00    -0.215 NA
HETATM    3  C8  UNL     1      23.513   1.602  52.184  1.00  0.00     0.134 A 
HETATM    4  N4  UNL     1      23.556   0.695  53.134  1.00  0.00    -0.214 NA
HETATM    5  C9  UNL     1      22.497   0.009  53.498  1.00  0.00     0.149 A 
HETATM    6  C10 UNL     1      21.334   0.279  52.843  1.00  0.00     0.058 A 
HETATM    7  C11 UNL     1      20.423  -0.564  53.421  1.00  0.00     0.037 A 
HETATM    8  C12 UNL     1      21.097  -1.277  54.375  1.00  0.00     0.099 A 
HETATM    9  N5  UNL     1      22.385  -0.924  54.427  1.00  0.00    -0.317 N 
HETATM   10  C13 UNL     1      23.473  -1.353  55.207  1.00  0.00     0.094 A 
HETATM   11  C14 UNL     1      24.760  -1.095  55.338  1.00  0.00    -0.001 A 
HETATM   12  C15 UNL     1      25.517  -0.090  54.529  1.00  0.00     0.109 A 
HETATM   13  C16 UNL     1      26.796   0.371  54.444  1.00  0.00     0.067 A 
HETATM   14 CL1  UNL     1      28.431   0.155  55.168  1.00  0.00    -0.118 Cl
HETATM   15  C17 UNL     1      26.856   1.429  53.380  1.00  0.00     0.028 A 
HETATM   16 CL2  UNL     1      28.510   2.107  53.192  1.00  0.00    -0.088 Cl
HETATM   17  C18 UNL     1      25.933   1.972  52.542  1.00  0.00     0.002 A 
HETATM   18  C19 UNL     1      24.734   2.354  51.788  1.00  0.00     0.109 A 
ENDROOT
BRANCH   1  19
HETATM   19  N2  UNL     1      20.032   1.495  51.149  1.00  0.00    -0.350 N 
HETATM   20  H11 UNL     1      19.745   0.841  50.373  1.00  0.00     0.166 HD
BRANCH  19  21
HETATM   21  C6  UNL     1      19.119   2.492  51.305  1.00  0.00     0.090 C 
BRANCH  21  22
HETATM   22  C5  UNL     1      18.140   3.203  51.673  1.00  0.00     0.017 C 
BRANCH  22  23
HETATM   23  C4  UNL     1      17.077   3.941  51.060  1.00  0.00    -0.001 C 
BRANCH  23  24
HETATM   24  C3  UNL     1      16.236   4.201  52.122  1.00  0.00     0.008 C 
BRANCH  24  25
HETATM   25  C2  UNL     1      14.862   3.981  52.712  1.00  0.00     0.236 C 
HETATM   26  C1  UNL     1      14.548   2.513  52.806  1.00  0.00     0.046 C 
BRANCH  25  27
HETATM   27  N1  UNL     1      14.878   4.498  54.096  1.00  0.00     0.086 N 
HETATM   28  H5  UNL     1      15.437   5.356  54.110  1.00  0.00     0.313 HD
HETATM   29  H6  UNL     1      15.230   3.765  54.751  1.00  0.00     0.313 HD
ENDBRANCH  25  27
ENDBRANCH  24  25
ENDBRANCH  23  24
ENDBRANCH  22  23
ENDBRANCH  21  22
ENDBRANCH  19  21
ENDBRANCH   1  19
TORSDOF 7
ENDMDL
