MODEL 1
REMARK VINA RESULT:      -7.7      0.000      0.000
REMARK  3 active torsions:
REMARK  status: ('A' for Active; 'I' for Inactive)
REMARK    1  A    between atoms: C9_11  and  N2_12 
REMARK    2  A    between atoms: N2_12  and  C10_13 
REMARK    3  A    between atoms: C11_14  and  C12_15 
ROOT
HETATM    1 CL1  UNL     1      18.051  -0.749  53.014  1.00  0.00    -0.084 Cl
HETATM    2  C1  UNL     1      19.790  -0.730  53.299  1.00  0.00     0.034 A 
HETATM    3  C2  UNL     1      20.274  -1.718  54.138  1.00  0.00     0.026 A 
HETATM    4  C3  UNL     1      21.623  -1.776  54.415  1.00  0.00     0.039 A 
HETATM    5  C4  UNL     1      22.417  -0.820  53.824  1.00  0.00     0.086 A 
HETATM    6  C5  UNL     1      22.000   0.180  52.988  1.00  0.00    -0.005 A 
HETATM    7  C6  UNL     1      20.626   0.220  52.720  1.00  0.00     0.035 A 
HETATM    8  C7  UNL     1      22.602   1.284  52.250  1.00  0.00     0.161 C 
HETATM    9  N1  UNL     1      24.020   1.428  52.361  1.00  0.00    -0.379 N 
HETATM   10  C8  UNL     1      24.931   0.901  53.283  1.00  0.00     0.129 A 
HETATM   11  C9  UNL     1      26.090   1.682  53.273  1.00  0.00     0.159 A 
HETATM   12  N3  UNL     1      27.096   1.352  54.087  1.00  0.00    -0.222 NA
HETATM   13  C13 UNL     1      26.991   0.272  54.913  1.00  0.00     0.238 A 
HETATM   14  N4  UNL     1      25.864  -0.498  54.932  1.00  0.00    -0.215 NA
HETATM   15  C14 UNL     1      24.833  -0.175  54.109  1.00  0.00     0.202 A 
HETATM   16  O1  UNL     1      23.732  -1.031  54.213  1.00  0.00    -0.289 OA
HETATM   17  H6  UNL     1      24.457   2.032  51.631  1.00  0.00     0.160 HD
ENDROOT
BRANCH  11  18
HETATM   18  N2  UNL     1      26.306   2.824  52.451  1.00  0.00    -0.349 N 
HETATM   19  H7  UNL     1      26.046   3.735  52.878  1.00  0.00     0.167 HD
BRANCH  18  20
HETATM   20  C10 UNL     1      26.838   2.708  51.148  1.00  0.00     0.086 C 
HETATM   21  C11 UNL     1      26.362   3.345  50.118  1.00  0.00     0.001 C 
BRANCH  21  22
HETATM   22  C12 UNL     1      25.228   4.285  50.039  1.00  0.00     0.113 C 
HETATM   23 BR1  UNL     1      23.719   3.383  49.198  1.00  0.00    -0.092 Br
ENDBRANCH  21  22
ENDBRANCH  18  20
ENDBRANCH  11  18
TORSDOF 3
ENDMDL
MODEL 2
REMARK VINA RESULT:      -7.6      1.521      1.625
REMARK  3 active torsions:
REMARK  status: ('A' for Active; 'I' for Inactive)
REMARK    1  A    between atoms: C9_11  and  N2_12 
REMARK    2  A    between atoms: N2_12  and  C10_13 
REMARK    3  A    between atoms: C11_14  and  C12_15 
ROOT
HETATM    1 CL1  UNL     1      18.404  -1.071  53.413  1.00  0.00    -0.084 Cl
HETATM    2  C1  UNL     1      20.143  -0.789  53.406  1.00  0.00     0.034 A 
HETATM    3  C2  UNL     1      20.880  -1.553  54.294  1.00  0.00     0.026 A 
HETATM    4  C3  UNL     1      22.249  -1.396  54.355  1.00  0.00     0.039 A 
HETATM    5  C4  UNL     1      22.802  -0.465  53.506  1.00  0.00     0.086 A 
HETATM    6  C5  UNL     1      22.129   0.318  52.609  1.00  0.00    -0.005 A 
HETATM    7  C6  UNL     1      20.741   0.143  52.564  1.00  0.00     0.035 A 
HETATM    8  C7  UNL     1      22.453   1.346  51.625  1.00  0.00     0.161 C 
HETATM    9  N1  UNL     1      23.836   1.680  51.483  1.00  0.00    -0.379 N 
HETATM   10  C8  UNL     1      24.935   1.434  52.313  1.00  0.00     0.129 A 
HETATM   11  C9  UNL     1      25.953   2.338  51.998  1.00  0.00     0.159 A 
HETATM   12  N3  UNL     1      27.100   2.278  52.679  1.00  0.00    -0.222 NA
HETATM   13  C13 UNL     1      27.272   1.351  53.664  1.00  0.00     0.238 A 
HETATM   14  N4  UNL     1      26.285   0.462  53.981  1.00  0.00    -0.215 NA
HETATM   15  C14 UNL     1      25.113   0.511  53.296  1.00  0.00     0.202 A 
HETATM   16  O1  UNL     1      24.175  -0.443  53.704  1.00  0.00    -0.289 OA
HETATM   17  H6  UNL     1      24.073   2.199  50.609  1.00  0.00     0.160 HD
ENDROOT
BRANCH  11  18
HETATM   18  N2  UNL     1      25.881   3.340  50.990  1.00  0.00    -0.349 N 
HETATM   19  H7  UNL     1      25.186   4.095  51.161  1.00  0.00     0.167 HD
BRANCH  18  20
HETATM   20  C10 UNL     1      26.704   3.297  49.844  1.00  0.00     0.086 C 
HETATM   21  C11 UNL     1      26.923   4.326  49.077  1.00  0.00     0.001 C 
BRANCH  21  22
HETATM   22  C12 UNL     1      26.410   5.705  49.190  1.00  0.00     0.113 C 
HETATM   23 BR1  UNL     1      27.541   6.886  48.129  1.00  0.00    -0.092 Br
ENDBRANCH  21  22
ENDBRANCH  18  20
ENDBRANCH  11  18
TORSDOF 3
ENDMDL
MODEL 3
REMARK VINA RESULT:      -7.3      3.771      5.389
REMARK  3 active torsions:
REMARK  status: ('A' for Active; 'I' for Inactive)
REMARK    1  A    between atoms: C9_11  and  N2_12 
REMARK    2  A    between atoms: N2_12  and  C10_13 
REMARK    3  A    between atoms: C11_14  and  C12_15 
ROOT
HETATM    1 CL1  UNL     1      30.222  -1.284  53.707  1.00  0.00    -0.084 Cl
HETATM    2  C1  UNL     1      28.575  -0.744  53.393  1.00  0.00     0.034 A 
HETATM    3  C2  UNL     1      27.678  -1.732  53.025  1.00  0.00     0.026 A 
HETATM    4  C3  UNL     1      26.367  -1.397  52.761  1.00  0.00     0.039 A 
HETATM    5  C4  UNL     1      26.032  -0.068  52.882  1.00  0.00     0.086 A 
HETATM    6  C5  UNL     1      26.871   0.952  53.240  1.00  0.00    -0.005 A 
HETATM    7  C6  UNL     1      28.197   0.590  53.505  1.00  0.00     0.035 A 
HETATM    8  C7  UNL     1      26.783   2.394  53.439  1.00  0.00     0.161 C 
HETATM    9  N1  UNL     1      25.499   2.990  53.240  1.00  0.00    -0.379 N 
HETATM   10  C8  UNL     1      24.352   2.515  52.595  1.00  0.00     0.129 A 
HETATM   11  C9  UNL     1      23.543   3.602  52.250  1.00  0.00     0.159 A 
HETATM   12  N3  UNL     1      22.389   3.370  51.619  1.00  0.00    -0.222 NA
HETATM   13  C13 UNL     1      22.010   2.095  51.316  1.00  0.00     0.238 A 
HETATM   14  N4  UNL     1      22.793   1.026  51.647  1.00  0.00    -0.215 NA
HETATM   15  C14 UNL     1      23.968   1.247  52.290  1.00  0.00     0.202 A 
HETATM   16  O1  UNL     1      24.686   0.082  52.579  1.00  0.00    -0.289 OA
HETATM   17  H6  UNL     1      25.393   3.946  53.644  1.00  0.00     0.160 HD
ENDROOT
BRANCH  11  18
HETATM   18  N2  UNL     1      23.839   4.967  52.520  1.00  0.00    -0.349 N 
HETATM   19  H7  UNL     1      24.139   5.173  53.495  1.00  0.00     0.167 HD
BRANCH  18  20
HETATM   20  C10 UNL     1      23.729   5.960  51.523  1.00  0.00     0.086 C 
HETATM   21  C11 UNL     1      24.481   5.999  50.461  1.00  0.00     0.001 C 
BRANCH  21  22
HETATM   22  C12 UNL     1      25.566   5.090  50.047  1.00  0.00     0.113 C 
HETATM   23 BR1  UNL     1      26.684   5.999  48.735  1.00  0.00    -0.092 Br
ENDBRANCH  21  22
ENDBRANCH  18  20
ENDBRANCH  11  18
TORSDOF 3
ENDMDL
MODEL 4
REMARK VINA RESULT:      -7.3      2.701      4.138
REMARK  3 active torsions:
REMARK  status: ('A' for Active; 'I' for Inactive)
REMARK    1  A    between atoms: C9_11  and  N2_12 
REMARK    2  A    between atoms: N2_12  and  C10_13 
REMARK    3  A    between atoms: C11_14  and  C12_15 
ROOT
HETATM    1 CL1  UNL     1      18.654  -1.097  53.094  1.00  0.00    -0.084 Cl
HETATM    2  C1  UNL     1      19.958  -0.052  52.536  1.00  0.00     0.034 A 
HETATM    3  C2  UNL     1      19.598   0.924  51.623  1.00  0.00     0.026 A 
HETATM    4  C3  UNL     1      20.557   1.786  51.134  1.00  0.00     0.039 A 
HETATM    5  C4  UNL     1      21.840   1.611  51.599  1.00  0.00     0.086 A 
HETATM    6  C5  UNL     1      22.258   0.668  52.498  1.00  0.00    -0.005 A 
HETATM    7  C6  UNL     1      21.268  -0.196  52.982  1.00  0.00     0.035 A 
HETATM    8  C7  UNL     1      23.507   0.274  53.139  1.00  0.00     0.161 C 
HETATM    9  N1  UNL     1      24.666   1.041  52.805  1.00  0.00    -0.379 N 
HETATM   10  C8  UNL     1      24.915   1.920  51.745  1.00  0.00     0.129 A 
HETATM   11  C9  UNL     1      26.298   2.046  51.577  1.00  0.00     0.159 A 
HETATM   12  N3  UNL     1      26.758   2.845  50.611  1.00  0.00    -0.222 NA
HETATM   13  C13 UNL     1      25.893   3.523  49.803  1.00  0.00     0.238 A 
HETATM   14  N4  UNL     1      24.541   3.408  49.958  1.00  0.00    -0.215 NA
HETATM   15  C14 UNL     1      24.059   2.599  50.937  1.00  0.00     0.202 A 
HETATM   16  O1  UNL     1      22.662   2.557  51.004  1.00  0.00    -0.289 OA
HETATM   17  H6  UNL     1      25.469   0.928  53.460  1.00  0.00     0.160 HD
ENDROOT
BRANCH  11  18
HETATM   18  N2  UNL     1      27.286   1.390  52.363  1.00  0.00    -0.349 N 
HETATM   19  H7  UNL     1      27.273   0.351  52.317  1.00  0.00     0.167 HD
BRANCH  18  20
HETATM   20  C10 UNL     1      28.211   2.115  53.145  1.00  0.00     0.086 C 
HETATM   21  C11 UNL     1      28.852   1.606  54.157  1.00  0.00     0.001 C 
BRANCH  21  22
HETATM   22  C12 UNL     1      28.788   0.243  54.717  1.00  0.00     0.113 C 
HETATM   23 BR1  UNL     1      29.809  -0.958  53.571  1.00  0.00    -0.092 Br
ENDBRANCH  21  22
ENDBRANCH  18  20
ENDBRANCH  11  18
TORSDOF 3
ENDMDL
MODEL 5
REMARK VINA RESULT:      -7.2      3.799      5.349
REMARK  3 active torsions:
REMARK  status: ('A' for Active; 'I' for Inactive)
REMARK    1  A    between atoms: C9_11  and  N2_12 
REMARK    2  A    between atoms: N2_12  and  C10_13 
REMARK    3  A    between atoms: C11_14  and  C12_15 
ROOT
HETATM    1 CL1  UNL     1      27.280  -2.271  52.649  1.00  0.00    -0.084 Cl
HETATM    2  C1  UNL     1      26.355  -0.772  52.641  1.00  0.00     0.034 A 
HETATM    3  C2  UNL     1      25.226  -0.757  53.441  1.00  0.00     0.026 A 
HETATM    4  C3  UNL     1      24.444   0.376  53.494  1.00  0.00     0.039 A 
HETATM    5  C4  UNL     1      24.848   1.443  52.725  1.00  0.00     0.086 A 
HETATM    6  C5  UNL     1      25.950   1.490  51.915  1.00  0.00    -0.005 A 
HETATM    7  C6  UNL     1      26.731   0.328  51.877  1.00  0.00     0.035 A 
HETATM    8  C7  UNL     1      26.589   2.453  51.025  1.00  0.00     0.161 C 
HETATM    9  N1  UNL     1      25.967   3.735  50.919  1.00  0.00    -0.379 N 
HETATM   10  C8  UNL     1      24.684   4.170  51.271  1.00  0.00     0.129 A 
HETATM   11  C9  UNL     1      24.390   5.337  50.560  1.00  0.00     0.159 A 
HETATM   12  N3  UNL     1      23.205   5.923  50.746  1.00  0.00    -0.222 NA
HETATM   13  C13 UNL     1      22.298   5.389  51.615  1.00  0.00     0.238 A 
HETATM   14  N4  UNL     1      22.574   4.249  52.314  1.00  0.00    -0.215 NA
HETATM   15  C14 UNL     1      23.776   3.643  52.135  1.00  0.00     0.202 A 
HETATM   16  O1  UNL     1      23.949   2.485  52.900  1.00  0.00    -0.289 OA
HETATM   17  H6  UNL     1      26.569   4.481  50.509  1.00  0.00     0.160 HD
ENDROOT
BRANCH  11  18
HETATM   18  N2  UNL     1      25.261   5.979  49.636  1.00  0.00    -0.349 N 
HETATM   19  H7  UNL     1      25.394   5.484  48.731  1.00  0.00     0.167 HD
BRANCH  18  20
HETATM   20  C10 UNL     1      25.893   7.204  49.942  1.00  0.00     0.086 C 
HETATM   21  C11 UNL     1      26.778   7.769  49.173  1.00  0.00     0.001 C 
BRANCH  21  22
HETATM   22  C12 UNL     1      27.319   7.316  47.877  1.00  0.00     0.113 C 
HETATM   23 BR1  UNL     1      28.708   5.989  48.202  1.00  0.00    -0.092 Br
ENDBRANCH  21  22
ENDBRANCH  18  20
ENDBRANCH  11  18
TORSDOF 3
ENDMDL
MODEL 6
REMARK VINA RESULT:      -7.1      2.334      3.379
REMARK  3 active torsions:
REMARK  status: ('A' for Active; 'I' for Inactive)
REMARK    1  A    between atoms: C9_11  and  N2_12 
REMARK    2  A    between atoms: N2_12  and  C10_13 
REMARK    3  A    between atoms: C11_14  and  C12_15 
ROOT
HETATM    1 CL1  UNL     1      15.346   0.362  50.923  1.00  0.00    -0.084 Cl
HETATM    2  C1  UNL     1      16.814  -0.174  51.738  1.00  0.00     0.034 A 
HETATM    3  C2  UNL     1      16.631  -1.057  52.787  1.00  0.00     0.026 A 
HETATM    4  C3  UNL     1      17.725  -1.528  53.480  1.00  0.00     0.039 A 
HETATM    5  C4  UNL     1      18.958  -1.073  53.071  1.00  0.00     0.086 A 
HETATM    6  C5  UNL     1      19.203  -0.202  52.045  1.00  0.00    -0.005 A 
HETATM    7  C6  UNL     1      18.078   0.262  51.354  1.00  0.00     0.035 A 
HETATM    8  C7  UNL     1      20.364   0.423  51.421  1.00  0.00     0.161 C 
HETATM    9  N1  UNL     1      21.643   0.075  51.957  1.00  0.00    -0.379 N 
HETATM   10  C8  UNL     1      22.002  -0.523  53.170  1.00  0.00     0.129 A 
HETATM   11  C9  UNL     1      23.341  -0.228  53.443  1.00  0.00     0.159 A 
HETATM   12  N3  UNL     1      23.890  -0.704  54.563  1.00  0.00    -0.222 NA
HETATM   13  C13 UNL     1      23.155  -1.464  55.425  1.00  0.00     0.238 A 
HETATM   14  N4  UNL     1      21.846  -1.759  55.170  1.00  0.00    -0.215 NA
HETATM   15  C14 UNL     1      21.275  -1.282  54.034  1.00  0.00     0.202 A 
HETATM   16  O1  UNL     1      19.933  -1.645  53.875  1.00  0.00    -0.289 OA
HETATM   17  H6  UNL     1      22.453   0.305  51.342  1.00  0.00     0.160 HD
ENDROOT
BRANCH  11  18
HETATM   18  N2  UNL     1      24.197   0.550  52.614  1.00  0.00    -0.349 N 
HETATM   19  H7  UNL     1      24.368   0.162  51.664  1.00  0.00     0.167 HD
BRANCH  18  20
HETATM   20  C10 UNL     1      24.765   1.761  53.065  1.00  0.00     0.086 C 
HETATM   21  C11 UNL     1      24.325   2.935  52.717  1.00  0.00     0.001 C 
BRANCH  21  22
HETATM   22  C12 UNL     1      23.204   3.290  51.826  1.00  0.00     0.113 C 
HETATM   23 BR1  UNL     1      23.804   3.159  49.976  1.00  0.00    -0.092 Br
ENDBRANCH  21  22
ENDBRANCH  18  20
ENDBRANCH  11  18
TORSDOF 3
ENDMDL
MODEL 7
REMARK VINA RESULT:      -7.1      3.164      6.000
REMARK  3 active torsions:
REMARK  status: ('A' for Active; 'I' for Inactive)
REMARK    1  A    between atoms: C9_11  and  N2_12 
REMARK    2  A    between atoms: N2_12  and  C10_13 
REMARK    3  A    between atoms: C11_14  and  C12_15 
ROOT
HETATM    1 CL1  UNL     1      24.499   6.799  48.279  1.00  0.00    -0.084 Cl
HETATM    2  C1  UNL     1      25.034   5.397  49.203  1.00  0.00     0.034 A 
HETATM    3  C2  UNL     1      26.287   4.907  48.880  1.00  0.00     0.026 A 
HETATM    4  C3  UNL     1      26.784   3.811  49.553  1.00  0.00     0.039 A 
HETATM    5  C4  UNL     1      25.977   3.265  50.526  1.00  0.00     0.086 A 
HETATM    6  C5  UNL     1      24.733   3.703  50.890  1.00  0.00    -0.005 A 
HETATM    7  C6  UNL     1      24.248   4.817  50.194  1.00  0.00     0.035 A 
HETATM    8  C7  UNL     1      23.701   3.328  51.849  1.00  0.00     0.161 C 
HETATM    9  N1  UNL     1      23.989   2.212  52.694  1.00  0.00    -0.379 N 
HETATM   10  C8  UNL     1      24.952   1.202  52.591  1.00  0.00     0.129 A 
HETATM   11  C9  UNL     1      24.547   0.109  53.363  1.00  0.00     0.159 A 
HETATM   12  N3  UNL     1      25.327  -0.974  53.404  1.00  0.00    -0.222 NA
HETATM   13  C13 UNL     1      26.497  -1.011  52.704  1.00  0.00     0.238 A 
HETATM   14  N4  UNL     1      26.904   0.050  51.947  1.00  0.00    -0.215 NA
HETATM   15  C14 UNL     1      26.120   1.159  51.896  1.00  0.00     0.202 A 
HETATM   16  O1  UNL     1      26.633   2.182  51.092  1.00  0.00    -0.289 OA
HETATM   17  H6  UNL     1      23.378   2.131  53.536  1.00  0.00     0.160 HD
ENDROOT
BRANCH  11  18
HETATM   18  N2  UNL     1      23.352   0.042  54.132  1.00  0.00    -0.349 N 
HETATM   19  H7  UNL     1      23.176   0.858  54.753  1.00  0.00     0.167 HD
BRANCH  18  20
HETATM   20  C10 UNL     1      22.475  -1.061  54.045  1.00  0.00     0.086 C 
HETATM   21  C11 UNL     1      21.272  -0.986  53.555  1.00  0.00     0.001 C 
BRANCH  21  22
HETATM   22  C12 UNL     1      20.555   0.179  53.003  1.00  0.00     0.113 C 
HETATM   23 BR1  UNL     1      21.087   0.424  51.144  1.00  0.00    -0.092 Br
ENDBRANCH  21  22
ENDBRANCH  18  20
ENDBRANCH  11  18
TORSDOF 3
ENDMDL
MODEL 8
REMARK VINA RESULT:      -7.0      3.752      6.549
REMARK  3 active torsions:
REMARK  status: ('A' for Active; 'I' for Inactive)
REMARK    1  A    between atoms: C9_11  and  N2_12 
REMARK    2  A    between atoms: N2_12  and  C10_13 
REMARK    3  A    between atoms: C11_14  and  C12_15 
ROOT
HETATM    1 CL1  UNL     1      30.069  -1.160  54.116  1.00  0.00    -0.084 Cl
HETATM    2  C1  UNL     1      28.760  -0.088  53.623  1.00  0.00     0.034 A 
HETATM    3  C2  UNL     1      29.092   1.250  53.500  1.00  0.00     0.026 A 
HETATM    4  C3  UNL     1      28.127   2.158  53.118  1.00  0.00     0.039 A 
HETATM    5  C4  UNL     1      26.867   1.659  52.882  1.00  0.00     0.086 A 
HETATM    6  C5  UNL     1      26.478   0.351  52.986  1.00  0.00    -0.005 A 
HETATM    7  C6  UNL     1      27.473  -0.554  53.374  1.00  0.00     0.035 A 
HETATM    8  C7  UNL     1      25.257  -0.424  52.800  1.00  0.00     0.161 C 
HETATM    9  N1  UNL     1      24.098   0.300  52.379  1.00  0.00    -0.379 N 
HETATM   10  C8  UNL     1      23.812   1.670  52.393  1.00  0.00     0.129 A 
HETATM   11  C9  UNL     1      22.426   1.843  52.337  1.00  0.00     0.159 A 
HETATM   12  N3  UNL     1      21.932   3.084  52.340  1.00  0.00    -0.222 NA
HETATM   13  C13 UNL     1      22.767   4.161  52.400  1.00  0.00     0.238 A 
HETATM   14  N4  UNL     1      24.122   4.004  52.456  1.00  0.00    -0.215 NA
HETATM   15  C14 UNL     1      24.638   2.748  52.452  1.00  0.00     0.202 A 
HETATM   16  O1  UNL     1      26.035   2.706  52.513  1.00  0.00    -0.289 OA
HETATM   17  H6  UNL     1      23.329  -0.290  51.995  1.00  0.00     0.160 HD
ENDROOT
BRANCH  11  18
HETATM   18  N2  UNL     1      21.467   0.794  52.269  1.00  0.00    -0.349 N 
HETATM   19  H7  UNL     1      21.567   0.152  51.457  1.00  0.00     0.167 HD
BRANCH  18  20
HETATM   20  C10 UNL     1      20.457   0.649  53.244  1.00  0.00     0.086 C 
HETATM   21  C11 UNL     1      20.351  -0.390  54.020  1.00  0.00     0.001 C 
BRANCH  21  22
HETATM   22  C12 UNL     1      21.190  -1.602  54.084  1.00  0.00     0.113 C 
HETATM   23 BR1  UNL     1      22.692  -1.267  55.280  1.00  0.00    -0.092 Br
ENDBRANCH  21  22
ENDBRANCH  18  20
ENDBRANCH  11  18
TORSDOF 3
ENDMDL
MODEL 9
REMARK VINA RESULT:      -7.0      3.832      6.559
REMARK  3 active torsions:
REMARK  status: ('A' for Active; 'I' for Inactive)
REMARK    1  A    between atoms: C9_11  and  N2_12 
REMARK    2  A    between atoms: N2_12  and  C10_13 
REMARK    3  A    between atoms: C11_14  and  C12_15 
ROOT
HETATM    1 CL1  UNL     1      26.845   3.923  49.227  1.00  0.00    -0.084 Cl
HETATM    2  C1  UNL     1      25.950   2.965  50.404  1.00  0.00     0.034 A 
HETATM    3  C2  UNL     1      26.716   2.187  51.254  1.00  0.00     0.026 A 
HETATM    4  C3  UNL     1      26.097   1.406  52.207  1.00  0.00     0.039 A 
HETATM    5  C4  UNL     1      24.722   1.453  52.246  1.00  0.00     0.086 A 
HETATM    6  C5  UNL     1      23.911   2.200  51.435  1.00  0.00    -0.005 A 
HETATM    7  C6  UNL     1      24.561   2.985  50.476  1.00  0.00     0.035 A 
HETATM    8  C7  UNL     1      22.481   2.430  51.266  1.00  0.00     0.161 C 
HETATM    9  N1  UNL     1      21.611   1.736  52.163  1.00  0.00    -0.379 N 
HETATM   10  C8  UNL     1      21.834   0.632  52.994  1.00  0.00     0.129 A 
HETATM   11  C9  UNL     1      20.605   0.041  53.301  1.00  0.00     0.159 A 
HETATM   12  N3  UNL     1      20.589  -1.038  54.088  1.00  0.00    -0.222 NA
HETATM   13  C13 UNL     1      21.752  -1.552  54.581  1.00  0.00     0.238 A 
HETATM   14  N4  UNL     1      22.959  -0.983  54.287  1.00  0.00    -0.215 NA
HETATM   15  C14 UNL     1      22.990   0.115  53.489  1.00  0.00     0.202 A 
HETATM   16  O1  UNL     1      24.276   0.612  53.255  1.00  0.00    -0.289 OA
HETATM   17  H6  UNL     1      20.640   2.113  52.210  1.00  0.00     0.160 HD
ENDROOT
BRANCH  11  18
HETATM   18  N2  UNL     1      19.336   0.496  52.846  1.00  0.00    -0.349 N 
HETATM   19  H7  UNL     1      18.912   1.263  53.405  1.00  0.00     0.167 HD
BRANCH  18  20
HETATM   20  C10 UNL     1      18.712  -0.065  51.711  1.00  0.00     0.086 C 
HETATM   21  C11 UNL     1      17.644  -0.807  51.771  1.00  0.00     0.001 C 
BRANCH  21  22
HETATM   22  C12 UNL     1      16.860  -1.228  52.948  1.00  0.00     0.113 C 
HETATM   23 BR1  UNL     1      17.420  -3.021  53.468  1.00  0.00    -0.092 Br
ENDBRANCH  21  22
ENDBRANCH  18  20
ENDBRANCH  11  18
TORSDOF 3
ENDMDL
