MODEL 1
REMARK VINA RESULT:      -8.1      0.000      0.000
REMARK  3 active torsions:
REMARK  status: ('A' for Active; 'I' for Inactive)
REMARK    1  A    between atoms: O1_2  and  C2_3 
REMARK    2  A    between atoms: C6_9  and  N3_10 
REMARK    3  A    between atoms: N3_10  and  C7_11 
ROOT
HETATM    1  C2  UNL     1      27.589   0.248  53.926  1.00  0.00     0.070 A 
HETATM    2  C3  UNL     1      26.736  -0.330  54.757  1.00  0.00     0.067 A 
HETATM    3  C4  UNL     1      25.361  -0.547  54.294  1.00  0.00     0.071 A 
HETATM    4  N1  UNL     1      24.815  -1.109  55.307  1.00  0.00    -0.243 NA
HETATM    5  C5  UNL     1      23.506  -1.610  55.607  1.00  0.00     0.235 C 
HETATM    6  N2  UNL     1      22.328  -1.213  55.213  1.00  0.00    -0.223 NA
HETATM    7  C6  UNL     1      21.832  -0.173  54.364  1.00  0.00     0.151 C 
HETATM    8  C13 UNL     1      22.427   0.603  53.469  1.00  0.00     0.186 C 
HETATM    9  O2  UNL     1      23.729   0.676  53.046  1.00  0.00    -0.344 OA
HETATM   10  C14 UNL     1      24.856  -0.163  52.952  1.00  0.00     0.202 A 
HETATM   11  C15 UNL     1      25.911   0.468  52.139  1.00  0.00     0.014 A 
HETATM   12  C16 UNL     1      27.159   0.652  52.590  1.00  0.00     0.035 A 
ENDROOT
BRANCH   7  13
HETATM   13  N3  UNL     1      20.433  -0.027  54.605  1.00  0.00    -0.339 N 
HETATM   14  H6  UNL     1      19.949   0.132  55.516  1.00  0.00     0.167 HD
BRANCH  13  15
HETATM   15  C7  UNL     1      19.625  -0.115  53.442  1.00  0.00     0.035 A 
HETATM   16  C8  UNL     1      18.528  -0.951  53.383  1.00  0.00     0.029 A 
HETATM   17  C9  UNL     1      17.737  -1.038  52.246  1.00  0.00     0.004 A 
HETATM   18  C10 UNL     1      18.036  -0.279  51.134  1.00  0.00     0.019 A 
HETATM   19  C11 UNL     1      19.130   0.579  51.141  1.00  0.00     0.013 A 
HETATM   20 BR1  UNL     1      19.612   1.661  49.651  1.00  0.00    -0.051 Br
HETATM   21  C12 UNL     1      19.885   0.625  52.304  1.00  0.00     0.048 A 
ENDBRANCH  13  15
ENDBRANCH   7  13
BRANCH   1  22
HETATM   22  O1  UNL     1      28.884   0.446  54.382  1.00  0.00    -0.356 OA
HETATM   23  C1  UNL     1      30.022   0.001  53.686  1.00  0.00     0.210 C 
ENDBRANCH   1  22
TORSDOF 3
ENDMDL
MODEL 2
REMARK VINA RESULT:      -7.8      9.848     13.447
REMARK  3 active torsions:
REMARK  status: ('A' for Active; 'I' for Inactive)
REMARK    1  A    between atoms: O1_2  and  C2_3 
REMARK    2  A    between atoms: C6_9  and  N3_10 
REMARK    3  A    between atoms: N3_10  and  C7_11 
ROOT
HETATM    1  C2  UNL     1      26.485   7.383  49.282  1.00  0.00     0.070 A 
HETATM    2  C3  UNL     1      27.525   8.154  49.005  1.00  0.00     0.067 A 
HETATM    3  C4  UNL     1      28.716   7.524  48.423  1.00  0.00     0.071 A 
HETATM    4  N1  UNL     1      29.511   8.518  48.281  1.00  0.00    -0.243 NA
HETATM    5  C5  UNL     1      30.844   8.689  47.783  1.00  0.00     0.235 C 
HETATM    6  N2  UNL     1      31.874   7.890  47.807  1.00  0.00    -0.223 NA
HETATM    7  C6  UNL     1      32.133   6.572  48.302  1.00  0.00     0.151 C 
HETATM    8  C13 UNL     1      31.326   5.595  48.693  1.00  0.00     0.186 C 
HETATM    9  O2  UNL     1      29.960   5.510  48.756  1.00  0.00    -0.344 OA
HETATM   10  C14 UNL     1      28.837   6.077  48.121  1.00  0.00     0.202 A 
HETATM   11  C15 UNL     1      27.610   5.345  48.481  1.00  0.00     0.014 A 
HETATM   12  C16 UNL     1      26.537   5.949  49.011  1.00  0.00     0.035 A 
ENDROOT
BRANCH   7  13
HETATM   13  N3  UNL     1      33.547   6.379  48.344  1.00  0.00    -0.339 N 
HETATM   14  H6  UNL     1      34.244   6.857  48.956  1.00  0.00     0.167 HD
BRANCH  13  15
HETATM   15  C7  UNL     1      34.034   5.413  47.426  1.00  0.00     0.035 A 
HETATM   16  C8  UNL     1      34.663   4.260  47.854  1.00  0.00     0.029 A 
HETATM   17  C9  UNL     1      35.140   3.315  46.958  1.00  0.00     0.004 A 
HETATM   18  C10 UNL     1      34.994   3.510  45.600  1.00  0.00     0.019 A 
HETATM   19  C11 UNL     1      34.369   4.654  45.117  1.00  0.00     0.013 A 
HETATM   20 BR1  UNL     1      34.126   5.001  43.262  1.00  0.00    -0.051 Br
HETATM   21  C12 UNL     1      33.912   5.565  46.059  1.00  0.00     0.048 A 
ENDBRANCH  13  15
ENDBRANCH   7  13
BRANCH   1  22
HETATM   22  O1  UNL     1      25.370   7.996  49.832  1.00  0.00    -0.356 OA
HETATM   23  C1  UNL     1      24.493   7.348  50.720  1.00  0.00     0.210 C 
ENDBRANCH   1  22
TORSDOF 3
ENDMDL
MODEL 3
REMARK VINA RESULT:      -7.6      5.093      6.158
REMARK  3 active torsions:
REMARK  status: ('A' for Active; 'I' for Inactive)
REMARK    1  A    between atoms: O1_2  and  C2_3 
REMARK    2  A    between atoms: C6_9  and  N3_10 
REMARK    3  A    between atoms: N3_10  and  C7_11 
ROOT
HETATM    1  C2  UNL     1      26.060   6.856  49.456  1.00  0.00     0.070 A 
HETATM    2  C3  UNL     1      25.083   6.728  50.340  1.00  0.00     0.067 A 
HETATM    3  C4  UNL     1      24.710   5.375  50.767  1.00  0.00     0.071 A 
HETATM    4  N1  UNL     1      23.764   5.600  51.600  1.00  0.00    -0.243 NA
HETATM    5  C5  UNL     1      22.915   4.784  52.417  1.00  0.00     0.235 C 
HETATM    6  N2  UNL     1      22.436   3.587  52.221  1.00  0.00    -0.223 NA
HETATM    7  C6  UNL     1      22.528   2.606  51.182  1.00  0.00     0.151 C 
HETATM    8  C13 UNL     1      23.353   2.478  50.153  1.00  0.00     0.186 C 
HETATM    9  O2  UNL     1      24.408   3.243  49.727  1.00  0.00    -0.344 OA
HETATM   10  C14 UNL     1      25.354   4.133  50.273  1.00  0.00     0.202 A 
HETATM   11  C15 UNL     1      26.419   4.426  49.298  1.00  0.00     0.014 A 
HETATM   12  C16 UNL     1      26.737   5.675  48.929  1.00  0.00     0.035 A 
ENDROOT
BRANCH   7  13
HETATM   13  N3  UNL     1      21.498   1.639  51.386  1.00  0.00    -0.339 N 
HETATM   14  H6  UNL     1      20.603   1.530  50.860  1.00  0.00     0.167 HD
BRANCH  13  15
HETATM   15  C7  UNL     1      21.751   0.728  52.444  1.00  0.00     0.035 A 
HETATM   16  C8  UNL     1      20.725   0.085  53.107  1.00  0.00     0.029 A 
HETATM   17  C9  UNL     1      20.971  -0.806  54.142  1.00  0.00     0.004 A 
HETATM   18  C10 UNL     1      22.267  -1.071  54.535  1.00  0.00     0.019 A 
HETATM   19  C11 UNL     1      23.336  -0.450  53.901  1.00  0.00     0.013 A 
HETATM   20 BR1  UNL     1      25.152  -0.759  54.380  1.00  0.00    -0.051 Br
HETATM   21  C12 UNL     1      23.031   0.432  52.873  1.00  0.00     0.048 A 
ENDBRANCH  13  15
ENDBRANCH   7  13
BRANCH   1  22
HETATM   22  O1  UNL     1      26.398   8.143  49.066  1.00  0.00    -0.356 OA
HETATM   23  C1  UNL     1      27.102   9.039  49.891  1.00  0.00     0.210 C 
ENDBRANCH   1  22
TORSDOF 3
ENDMDL
MODEL 4
REMARK VINA RESULT:      -7.5      5.282      6.282
REMARK  3 active torsions:
REMARK  status: ('A' for Active; 'I' for Inactive)
REMARK    1  A    between atoms: O1_2  and  C2_3 
REMARK    2  A    between atoms: C6_9  and  N3_10 
REMARK    3  A    between atoms: N3_10  and  C7_11 
ROOT
HETATM    1  C2  UNL     1      26.828  -0.650  53.121  1.00  0.00     0.070 A 
HETATM    2  C3  UNL     1      27.182   0.312  52.282  1.00  0.00     0.067 A 
HETATM    3  C4  UNL     1      26.194   1.349  51.965  1.00  0.00     0.071 A 
HETATM    4  N1  UNL     1      26.837   2.102  51.153  1.00  0.00    -0.243 NA
HETATM    5  C5  UNL     1      26.537   3.300  50.425  1.00  0.00     0.235 C 
HETATM    6  N2  UNL     1      25.417   3.731  49.913  1.00  0.00    -0.223 NA
HETATM    7  C6  UNL     1      24.072   3.247  49.845  1.00  0.00     0.151 C 
HETATM    8  C13 UNL     1      23.436   2.292  50.509  1.00  0.00     0.186 C 
HETATM    9  O2  UNL     1      23.851   1.436  51.497  1.00  0.00    -0.344 OA
HETATM   10  C14 UNL     1      24.818   1.395  52.519  1.00  0.00     0.202 A 
HETATM   11  C15 UNL     1      24.565   0.267  53.433  1.00  0.00     0.014 A 
HETATM   12  C16 UNL     1      25.490  -0.665  53.704  1.00  0.00     0.035 A 
ENDROOT
BRANCH   7  13
HETATM   13  N3  UNL     1      23.377   3.996  48.848  1.00  0.00    -0.339 N 
HETATM   14  H6  UNL     1      22.915   3.642  47.982  1.00  0.00     0.167 HD
BRANCH  13  15
HETATM   15  C7  UNL     1      23.326   5.392  49.094  1.00  0.00     0.035 A 
HETATM   16  C8  UNL     1      22.668   5.912  50.191  1.00  0.00     0.029 A 
HETATM   17  C9  UNL     1      22.618   7.277  50.432  1.00  0.00     0.004 A 
HETATM   18  C10 UNL     1      23.232   8.157  49.565  1.00  0.00     0.019 A 
HETATM   19  C11 UNL     1      23.907   7.686  48.445  1.00  0.00     0.013 A 
HETATM   20 BR1  UNL     1      24.780   8.831  47.200  1.00  0.00    -0.051 Br
HETATM   21  C12 UNL     1      23.925   6.312  48.254  1.00  0.00     0.048 A 
ENDBRANCH  13  15
ENDBRANCH   7  13
BRANCH   1  22
HETATM   22  O1  UNL     1      27.776  -1.621  53.408  1.00  0.00    -0.356 OA
HETATM   23  C1  UNL     1      29.160  -1.374  53.392  1.00  0.00     0.210 C 
ENDBRANCH   1  22
TORSDOF 3
ENDMDL
MODEL 5
REMARK VINA RESULT:      -7.5      1.663      2.093
REMARK  3 active torsions:
REMARK  status: ('A' for Active; 'I' for Inactive)
REMARK    1  A    between atoms: O1_2  and  C2_3 
REMARK    2  A    between atoms: C6_9  and  N3_10 
REMARK    3  A    between atoms: N3_10  and  C7_11 
ROOT
HETATM    1  C2  UNL     1      27.481   0.137  53.534  1.00  0.00     0.070 A 
HETATM    2  C3  UNL     1      26.345  -0.419  53.925  1.00  0.00     0.067 A 
HETATM    3  C4  UNL     1      25.111  -0.030  53.234  1.00  0.00     0.071 A 
HETATM    4  N1  UNL     1      24.225  -0.730  53.837  1.00  0.00    -0.243 NA
HETATM    5  C5  UNL     1      22.805  -0.888  53.722  1.00  0.00     0.235 C 
HETATM    6  N2  UNL     1      21.876  -0.040  53.376  1.00  0.00    -0.223 NA
HETATM    7  C6  UNL     1      21.844   1.335  52.979  1.00  0.00     0.151 C 
HETATM    8  C13 UNL     1      22.796   2.166  52.578  1.00  0.00     0.186 C 
HETATM    9  O2  UNL     1      24.145   1.993  52.404  1.00  0.00    -0.344 OA
HETATM   10  C14 UNL     1      25.047   0.950  52.121  1.00  0.00     0.202 A 
HETATM   11  C15 UNL     1      26.380   1.486  51.794  1.00  0.00     0.014 A 
HETATM   12  C16 UNL     1      27.490   1.109  52.444  1.00  0.00     0.035 A 
ENDROOT
BRANCH   7  13
HETATM   13  N3  UNL     1      20.497   1.796  53.070  1.00  0.00    -0.339 N 
HETATM   14  H6  UNL     1      20.096   2.487  53.742  1.00  0.00     0.167 HD
BRANCH  13  15
HETATM   15  C7  UNL     1      19.616   1.224  52.115  1.00  0.00     0.035 A 
HETATM   16  C8  UNL     1      19.743   1.485  50.766  1.00  0.00     0.029 A 
HETATM   17  C9  UNL     1      18.882   0.927  49.831  1.00  0.00     0.004 A 
HETATM   18  C10 UNL     1      17.866   0.088  50.239  1.00  0.00     0.019 A 
HETATM   19  C11 UNL     1      17.695  -0.207  51.587  1.00  0.00     0.013 A 
HETATM   20 BR1  UNL     1      16.320  -1.354  52.233  1.00  0.00    -0.051 Br
HETATM   21  C12 UNL     1      18.584   0.379  52.475  1.00  0.00     0.048 A 
ENDBRANCH  13  15
ENDBRANCH   7  13
BRANCH   1  22
HETATM   22  O1  UNL     1      28.637  -0.244  54.200  1.00  0.00    -0.356 OA
HETATM   23  C1  UNL     1      29.715  -0.886  53.566  1.00  0.00     0.210 C 
ENDBRANCH   1  22
TORSDOF 3
ENDMDL
MODEL 6
REMARK VINA RESULT:      -7.2      5.700      6.780
REMARK  3 active torsions:
REMARK  status: ('A' for Active; 'I' for Inactive)
REMARK    1  A    between atoms: O1_2  and  C2_3 
REMARK    2  A    between atoms: C6_9  and  N3_10 
REMARK    3  A    between atoms: N3_10  and  C7_11 
ROOT
HETATM    1  C2  UNL     1      27.066   6.730  48.953  1.00  0.00     0.070 A 
HETATM    2  C3  UNL     1      26.470   5.563  48.763  1.00  0.00     0.067 A 
HETATM    3  C4  UNL     1      25.152   5.353  49.371  1.00  0.00     0.071 A 
HETATM    4  N1  UNL     1      24.866   4.160  49.004  1.00  0.00    -0.243 NA
HETATM    5  C5  UNL     1      23.759   3.273  49.207  1.00  0.00     0.235 C 
HETATM    6  N2  UNL     1      22.945   3.140  50.217  1.00  0.00    -0.223 NA
HETATM    7  C6  UNL     1      22.789   3.769  51.494  1.00  0.00     0.151 C 
HETATM    8  C13 UNL     1      23.275   4.897  51.994  1.00  0.00     0.186 C 
HETATM    9  O2  UNL     1      24.097   5.854  51.457  1.00  0.00    -0.344 OA
HETATM   10  C14 UNL     1      24.435   6.363  50.188  1.00  0.00     0.202 A 
HETATM   11  C15 UNL     1      25.213   7.607  50.315  1.00  0.00     0.014 A 
HETATM   12  C16 UNL     1      26.416   7.769  49.747  1.00  0.00     0.035 A 
ENDROOT
BRANCH   7  13
HETATM   13  N3  UNL     1      21.939   2.950  52.296  1.00  0.00    -0.339 N 
HETATM   14  H6  UNL     1      20.971   3.156  52.628  1.00  0.00     0.167 HD
BRANCH  13  15
HETATM   15  C7  UNL     1      22.510   1.707  52.675  1.00  0.00     0.035 A 
HETATM   16  C8  UNL     1      21.769   0.542  52.683  1.00  0.00     0.029 A 
HETATM   17  C9  UNL     1      22.326  -0.673  53.054  1.00  0.00     0.004 A 
HETATM   18  C10 UNL     1      23.653  -0.743  53.428  1.00  0.00     0.019 A 
HETATM   19  C11 UNL     1      24.442   0.401  53.437  1.00  0.00     0.013 A 
HETATM   20 BR1  UNL     1      26.278   0.393  53.939  1.00  0.00    -0.051 Br
HETATM   21  C12 UNL     1      23.832   1.588  53.058  1.00  0.00     0.048 A 
ENDBRANCH  13  15
ENDBRANCH   7  13
BRANCH   1  22
HETATM   22  O1  UNL     1      28.312   6.909  48.370  1.00  0.00    -0.356 OA
HETATM   23  C1  UNL     1      28.580   7.905  47.415  1.00  0.00     0.210 C 
ENDBRANCH   1  22
TORSDOF 3
ENDMDL
MODEL 7
REMARK VINA RESULT:      -7.2      5.274      7.901
REMARK  3 active torsions:
REMARK  status: ('A' for Active; 'I' for Inactive)
REMARK    1  A    between atoms: O1_2  and  C2_3 
REMARK    2  A    between atoms: C6_9  and  N3_10 
REMARK    3  A    between atoms: N3_10  and  C7_11 
ROOT
HETATM    1  C2  UNL     1      19.850  -0.837  53.474  1.00  0.00     0.070 A 
HETATM    2  C3  UNL     1      18.596  -1.258  53.430  1.00  0.00     0.067 A 
HETATM    3  C4  UNL     1      17.693  -0.639  52.454  1.00  0.00     0.071 A 
HETATM    4  N1  UNL     1      16.591  -1.256  52.667  1.00  0.00    -0.243 NA
HETATM    5  C5  UNL     1      15.272  -1.200  52.110  1.00  0.00     0.235 C 
HETATM    6  N2  UNL     1      14.597  -0.202  51.610  1.00  0.00    -0.223 NA
HETATM    7  C6  UNL     1      14.841   1.193  51.400  1.00  0.00     0.151 C 
HETATM    8  C13 UNL     1      15.954   1.912  51.414  1.00  0.00     0.186 C 
HETATM    9  O2  UNL     1      17.262   1.566  51.635  1.00  0.00    -0.344 OA
HETATM   10  C14 UNL     1      18.089   0.433  51.507  1.00  0.00     0.202 A 
HETATM   11  C15 UNL     1      19.507   0.801  51.669  1.00  0.00     0.014 A 
HETATM   12  C16 UNL     1      20.307   0.215  52.570  1.00  0.00     0.035 A 
ENDROOT
BRANCH   7  13
HETATM   13  N3  UNL     1      13.592   1.831  51.137  1.00  0.00    -0.339 N 
HETATM   14  H6  UNL     1      13.033   1.816  50.255  1.00  0.00     0.167 HD
BRANCH  13  15
HETATM   15  C7  UNL     1      13.070   2.571  52.229  1.00  0.00     0.035 A 
HETATM   16  C8  UNL     1      13.044   3.951  52.222  1.00  0.00     0.029 A 
HETATM   17  C9  UNL     1      12.534   4.677  53.290  1.00  0.00     0.004 A 
HETATM   18  C10 UNL     1      12.036   4.022  54.398  1.00  0.00     0.019 A 
HETATM   19  C11 UNL     1      12.041   2.633  54.456  1.00  0.00     0.013 A 
HETATM   20 BR1  UNL     1      11.374   1.653  55.945  1.00  0.00    -0.051 Br
HETATM   21  C12 UNL     1      12.562   1.961  53.360  1.00  0.00     0.048 A 
ENDBRANCH  13  15
ENDBRANCH   7  13
BRANCH   1  22
HETATM   22  O1  UNL     1      20.688  -1.435  54.404  1.00  0.00    -0.356 OA
HETATM   23  C1  UNL     1      21.894  -0.857  54.839  1.00  0.00     0.210 C 
ENDBRANCH   1  22
TORSDOF 3
ENDMDL
MODEL 8
REMARK VINA RESULT:      -7.0      2.956      3.751
REMARK  3 active torsions:
REMARK  status: ('A' for Active; 'I' for Inactive)
REMARK    1  A    between atoms: O1_2  and  C2_3 
REMARK    2  A    between atoms: C6_9  and  N3_10 
REMARK    3  A    between atoms: N3_10  and  C7_11 
ROOT
HETATM    1  C2  UNL     1      26.337   1.224  53.959  1.00  0.00     0.070 A 
HETATM    2  C3  UNL     1      25.737   2.351  53.610  1.00  0.00     0.067 A 
HETATM    3  C4  UNL     1      24.338   2.282  53.174  1.00  0.00     0.071 A 
HETATM    4  N1  UNL     1      24.069   3.508  52.918  1.00  0.00    -0.243 NA
HETATM    5  C5  UNL     1      22.914   4.217  52.451  1.00  0.00     0.235 C 
HETATM    6  N2  UNL     1      21.958   3.855  51.642  1.00  0.00    -0.223 NA
HETATM    7  C6  UNL     1      21.640   2.672  50.901  1.00  0.00     0.151 C 
HETATM    8  C13 UNL     1      22.086   1.426  50.982  1.00  0.00     0.186 C 
HETATM    9  O2  UNL     1      23.008   0.839  51.809  1.00  0.00    -0.344 OA
HETATM   10  C14 UNL     1      23.544   1.031  53.097  1.00  0.00     0.202 A 
HETATM   11  C15 UNL     1      24.337  -0.139  53.513  1.00  0.00     0.014 A 
HETATM   12  C16 UNL     1      25.615  -0.044  53.907  1.00  0.00     0.035 A 
ENDROOT
BRANCH   7  13
HETATM   13  N3  UNL     1      20.656   3.007  49.924  1.00  0.00    -0.339 N 
HETATM   14  H6  UNL     1      20.803   3.416  48.974  1.00  0.00     0.167 HD
BRANCH  13  15
HETATM   15  C7  UNL     1      19.320   2.741  50.321  1.00  0.00     0.035 A 
HETATM   16  C8  UNL     1      18.617   3.613  51.129  1.00  0.00     0.029 A 
HETATM   17  C9  UNL     1      17.311   3.354  51.519  1.00  0.00     0.004 A 
HETATM   18  C10 UNL     1      16.679   2.201  51.101  1.00  0.00     0.019 A 
HETATM   19  C11 UNL     1      17.342   1.290  50.288  1.00  0.00     0.013 A 
HETATM   20 BR1  UNL     1      16.544  -0.323  49.667  1.00  0.00    -0.051 Br
HETATM   21  C12 UNL     1      18.646   1.601  49.930  1.00  0.00     0.048 A 
ENDBRANCH  13  15
ENDBRANCH   7  13
BRANCH   1  22
HETATM   22  O1  UNL     1      27.660   1.310  54.367  1.00  0.00    -0.356 OA
HETATM   23  C1  UNL     1      28.406   0.199  54.801  1.00  0.00     0.210 C 
ENDBRANCH   1  22
TORSDOF 3
ENDMDL
MODEL 9
REMARK VINA RESULT:      -7.0      2.699      3.727
REMARK  3 active torsions:
REMARK  status: ('A' for Active; 'I' for Inactive)
REMARK    1  A    between atoms: O1_2  and  C2_3 
REMARK    2  A    between atoms: C6_9  and  N3_10 
REMARK    3  A    between atoms: N3_10  and  C7_11 
ROOT
HETATM    1  C2  UNL     1      25.306  -0.492  53.903  1.00  0.00     0.070 A 
HETATM    2  C3  UNL     1      25.121   0.315  52.870  1.00  0.00     0.067 A 
HETATM    3  C4  UNL     1      23.749   0.725  52.551  1.00  0.00     0.071 A 
HETATM    4  N1  UNL     1      23.918   1.481  51.531  1.00  0.00    -0.243 NA
HETATM    5  C5  UNL     1      23.054   2.238  50.673  1.00  0.00     0.235 C 
HETATM    6  N2  UNL     1      21.829   2.018  50.286  1.00  0.00    -0.223 NA
HETATM    7  C6  UNL     1      20.851   0.999  50.520  1.00  0.00     0.151 C 
HETATM    8  C13 UNL     1      20.769   0.037  51.429  1.00  0.00     0.186 C 
HETATM    9  O2  UNL     1      21.598  -0.313  52.464  1.00  0.00    -0.344 OA
HETATM   10  C14 UNL     1      22.547   0.295  53.307  1.00  0.00     0.202 A 
HETATM   11  C15 UNL     1      22.902  -0.598  54.424  1.00  0.00     0.014 A 
HETATM   12  C16 UNL     1      24.167  -0.953  54.692  1.00  0.00     0.035 A 
ENDROOT
BRANCH   7  13
HETATM   13  N3  UNL     1      19.822   1.133  49.540  1.00  0.00    -0.339 N 
HETATM   14  H6  UNL     1      19.922   1.176  48.502  1.00  0.00     0.167 HD
BRANCH  13  15
HETATM   15  C7  UNL     1      18.510   1.215  50.075  1.00  0.00     0.035 A 
HETATM   16  C8  UNL     1      17.646   0.139  50.044  1.00  0.00     0.029 A 
HETATM   17  C9  UNL     1      16.363   0.219  50.566  1.00  0.00     0.004 A 
HETATM   18  C10 UNL     1      15.918   1.394  51.135  1.00  0.00     0.019 A 
HETATM   19  C11 UNL     1      16.748   2.508  51.191  1.00  0.00     0.013 A 
HETATM   20 BR1  UNL     1      16.214   4.165  51.958  1.00  0.00    -0.051 Br
HETATM   21  C12 UNL     1      18.020   2.370  50.653  1.00  0.00     0.048 A 
ENDBRANCH  13  15
ENDBRANCH   7  13
BRANCH   1  22
HETATM   22  O1  UNL     1      26.610  -0.868  54.189  1.00  0.00    -0.356 OA
HETATM   23  C1  UNL     1      27.702   0.014  54.107  1.00  0.00     0.210 C 
ENDBRANCH   1  22
TORSDOF 3
ENDMDL
