MODEL 1
REMARK VINA RESULT:      -8.6      0.000      0.000
REMARK  8 active torsions:
REMARK  status: ('A' for Active; 'I' for Inactive)
REMARK    1  A    between atoms: C2_2  and  C3_3 
REMARK    2  A    between atoms: C3_3  and  C4_4 
REMARK    3  A    between atoms: C4_4  and  O1_5 
REMARK    4  A    between atoms: O1_5  and  C5_6 
REMARK    5  A    between atoms: C12_18  and  N5_19 
REMARK    6  A    between atoms: N5_19  and  C13_20 
REMARK    7  A    between atoms: N7_26  and  C18_27 
REMARK    8  A    between atoms: C18_27  and  C19_28 
ROOT
HETATM    1  C3  UNL     1      22.882   0.301  53.097  1.00  0.00    -0.025 C 
HETATM    2  C10 UNL     1      22.952   1.170  52.138  1.00  0.00     0.100 A 
HETATM    3  N2  UNL     1      24.052   1.576  51.338  1.00  0.00    -0.273 N 
HETATM    4  N3  UNL     1      24.064   2.587  50.409  1.00  0.00    -0.167 NA
HETATM    5  C11 UNL     1      23.036   3.310  50.144  1.00  0.00     0.257 A 
HETATM    6  N4  UNL     1      21.859   3.010  50.877  1.00  0.00    -0.220 NA
HETATM    7  C12 UNL     1      21.813   2.051  51.778  1.00  0.00     0.158 A 
HETATM    8  H18 UNL     1      24.898   1.047  51.434  1.00  0.00     0.189 HD
ENDROOT
BRANCH   7   9
HETATM    9  N5  UNL     1      20.561   2.029  52.452  1.00  0.00    -0.337 N 
HETATM   10  H20 UNL     1      20.698   2.423  53.453  1.00  0.00     0.167 HD
BRANCH   9  11
HETATM   11  C13 UNL     1      19.340   1.578  51.878  1.00  0.00     0.067 A 
HETATM   12  C14 UNL     1      19.037   0.418  51.331  1.00  0.00     0.034 A 
HETATM   13  C15 UNL     1      17.650   0.454  50.890  1.00  0.00     0.036 A 
HETATM   14  C16 UNL     1      17.105   1.628  51.161  1.00  0.00     0.086 A 
HETATM   15  C17 UNL     1      18.152   2.422  51.812  1.00  0.00     0.132 A 
HETATM   16  N7  UNL     1      16.216   2.724  51.292  1.00  0.00    -0.263 N 
HETATM   17  N6  UNL     1      17.279   3.388  51.897  1.00  0.00    -0.167 NA
BRANCH  16  18
HETATM   18  C18 UNL     1      14.837   3.020  50.954  1.00  0.00     0.190 C 
BRANCH  18  19
HETATM   19  C19 UNL     1      13.933   2.822  52.112  1.00  0.00    -0.035 A 
HETATM   20  C20 UNL     1      13.671   1.564  52.663  1.00  0.00     0.009 A 
HETATM   21  C21 UNL     1      12.812   1.482  53.747  1.00  0.00     0.004 A 
HETATM   22  C22 UNL     1      12.233   2.638  54.260  1.00  0.00     0.042 A 
HETATM   23  C23 UNL     1      12.494   3.874  53.713  1.00  0.00     0.117 A 
HETATM   24  F1  UNL     1      11.940   5.035  54.195  1.00  0.00    -0.206 F 
HETATM   25  C24 UNL     1      13.361   3.970  52.619  1.00  0.00     0.051 A 
ENDBRANCH  18  19
ENDBRANCH  16  18
ENDBRANCH   9  11
ENDBRANCH   7   9
BRANCH   1  26
HETATM   26  C2  UNL     1      21.708  -0.160  53.932  1.00  0.00     0.034 C 
HETATM   27  C1  UNL     1      21.862  -1.547  54.471  1.00  0.00     0.010 C 
ENDBRANCH   1  26
BRANCH   1  28
HETATM   28  C4  UNL     1      23.970  -0.372  53.805  1.00  0.00     0.207 C 
BRANCH  28  29
HETATM   29  O1  UNL     1      25.142  -0.737  53.383  1.00  0.00    -0.355 OA
BRANCH  29  30
HETATM   30  C5  UNL     1      26.359  -0.349  53.717  1.00  0.00     0.292 C 
HETATM   31  O2  UNL     1      27.326  -0.671  52.689  1.00  0.00    -0.357 OA
HETATM   32  C6  UNL     1      28.550  -0.753  53.298  1.00  0.00     0.201 C 
HETATM   33  C7  UNL     1      28.703  -0.103  54.620  1.00  0.00     0.296 C 
HETATM   34  N1  UNL     1      27.881   1.034  54.894  1.00  0.00     0.094 N 
HETATM   35  C8  UNL     1      26.693   1.067  54.017  1.00  0.00     0.271 C 
HETATM   36  H13 UNL     1      27.616   1.058  55.899  1.00  0.00     0.316 HD
HETATM   37  C9  UNL     1      27.241   1.799  52.782  1.00  0.00     0.048 C 
ENDBRANCH  29  30
ENDBRANCH  28  29
ENDBRANCH   1  28
TORSDOF 8
ENDMDL
MODEL 2
REMARK VINA RESULT:      -8.5      7.301     11.056
REMARK  8 active torsions:
REMARK  status: ('A' for Active; 'I' for Inactive)
REMARK    1  A    between atoms: C2_2  and  C3_3 
REMARK    2  A    between atoms: C3_3  and  C4_4 
REMARK    3  A    between atoms: C4_4  and  O1_5 
REMARK    4  A    between atoms: O1_5  and  C5_6 
REMARK    5  A    between atoms: C12_18  and  N5_19 
REMARK    6  A    between atoms: N5_19  and  C13_20 
REMARK    7  A    between atoms: N7_26  and  C18_27 
REMARK    8  A    between atoms: C18_27  and  C19_28 
ROOT
HETATM    1  C3  UNL     1      25.596   7.982  49.867  1.00  0.00    -0.025 C 
HETATM    2  C10 UNL     1      26.413   7.046  49.499  1.00  0.00     0.100 A 
HETATM    3  N2  UNL     1      27.720   7.123  48.951  1.00  0.00    -0.273 N 
HETATM    4  N3  UNL     1      28.480   6.079  48.485  1.00  0.00    -0.167 NA
HETATM    5  C11 UNL     1      28.078   4.859  48.495  1.00  0.00     0.257 A 
HETATM    6  N4  UNL     1      26.779   4.636  49.020  1.00  0.00    -0.220 NA
HETATM    7  C12 UNL     1      26.022   5.614  49.471  1.00  0.00     0.158 A 
HETATM    8  H18 UNL     1      28.148   8.029  48.935  1.00  0.00     0.189 HD
ENDROOT
BRANCH   7   9
HETATM    9  N5  UNL     1      24.728   5.147  49.832  1.00  0.00    -0.337 N 
HETATM   10  H20 UNL     1      24.017   5.482  49.084  1.00  0.00     0.167 HD
BRANCH   9  11
HETATM   11  C13 UNL     1      24.444   4.356  50.979  1.00  0.00     0.067 A 
HETATM   12  C14 UNL     1      23.633   4.589  51.992  1.00  0.00     0.034 A 
HETATM   13  C15 UNL     1      23.698   3.465  52.914  1.00  0.00     0.036 A 
HETATM   14  C16 UNL     1      24.543   2.548  52.474  1.00  0.00     0.086 A 
HETATM   15  C17 UNL     1      25.074   3.060  51.207  1.00  0.00     0.132 A 
HETATM   16  N7  UNL     1      25.342   1.388  52.321  1.00  0.00    -0.263 N 
HETATM   17  N6  UNL     1      25.782   1.966  51.133  1.00  0.00    -0.167 NA
BRANCH  16  18
HETATM   18  C18 UNL     1      25.591   0.164  53.057  1.00  0.00     0.190 C 
BRANCH  18  19
HETATM   19  C19 UNL     1      27.036  -0.034  53.323  1.00  0.00    -0.035 A 
HETATM   20  C20 UNL     1      27.715  -1.210  52.988  1.00  0.00     0.009 A 
HETATM   21  C21 UNL     1      29.067  -1.298  53.276  1.00  0.00     0.004 A 
HETATM   22  C22 UNL     1      29.716  -0.230  53.885  1.00  0.00     0.042 A 
HETATM   23  C23 UNL     1      29.043   0.926  54.213  1.00  0.00     0.117 A 
HETATM   24  F1  UNL     1      29.652   1.999  54.815  1.00  0.00    -0.206 F 
HETATM   25  C24 UNL     1      27.677   1.028  53.927  1.00  0.00     0.051 A 
ENDBRANCH  18  19
ENDBRANCH  16  18
ENDBRANCH   9  11
ENDBRANCH   7   9
BRANCH   1  26
HETATM   26  C2  UNL     1      24.216   7.906  50.481  1.00  0.00     0.034 C 
HETATM   27  C1  UNL     1      23.136   8.449  49.600  1.00  0.00     0.010 C 
ENDBRANCH   1  26
BRANCH   1  28
HETATM   28  C4  UNL     1      25.682   9.421  49.624  1.00  0.00     0.207 C 
BRANCH  28  29
HETATM   29  O1  UNL     1      26.661  10.247  49.832  1.00  0.00    -0.355 OA
BRANCH  29  30
HETATM   30  C5  UNL     1      27.603  10.716  49.034  1.00  0.00     0.292 C 
HETATM   31  O2  UNL     1      28.725   9.806  48.935  1.00  0.00    -0.357 OA
HETATM   32  C6  UNL     1      29.818  10.552  48.581  1.00  0.00     0.201 C 
HETATM   33  C7  UNL     1      29.575  11.879  47.972  1.00  0.00     0.296 C 
HETATM   34  N1  UNL     1      28.364  12.053  47.232  1.00  0.00     0.094 N 
HETATM   35  C8  UNL     1      27.351  11.046  47.608  1.00  0.00     0.271 C 
HETATM   36  H13 UNL     1      28.003  13.021  47.347  1.00  0.00     0.316 HD
HETATM   37  C9  UNL     1      27.716   9.879  46.677  1.00  0.00     0.048 C 
ENDBRANCH  29  30
ENDBRANCH  28  29
ENDBRANCH   1  28
TORSDOF 8
ENDMDL
MODEL 3
REMARK VINA RESULT:      -8.5      4.542     10.736
REMARK  8 active torsions:
REMARK  status: ('A' for Active; 'I' for Inactive)
REMARK    1  A    between atoms: C2_2  and  C3_3 
REMARK    2  A    between atoms: C3_3  and  C4_4 
REMARK    3  A    between atoms: C4_4  and  O1_5 
REMARK    4  A    between atoms: O1_5  and  C5_6 
REMARK    5  A    between atoms: C12_18  and  N5_19 
REMARK    6  A    between atoms: N5_19  and  C13_20 
REMARK    7  A    between atoms: N7_26  and  C18_27 
REMARK    8  A    between atoms: C18_27  and  C19_28 
ROOT
HETATM    1  C3  UNL     1      17.893   0.942  51.526  1.00  0.00    -0.025 C 
HETATM    2  C10 UNL     1      18.685   1.964  51.449  1.00  0.00     0.100 A 
HETATM    3  N2  UNL     1      18.400   3.344  51.284  1.00  0.00    -0.273 N 
HETATM    4  N3  UNL     1      19.309   4.358  51.103  1.00  0.00    -0.167 NA
HETATM    5  C11 UNL     1      20.578   4.163  51.062  1.00  0.00     0.257 A 
HETATM    6  N4  UNL     1      21.006   2.818  51.214  1.00  0.00    -0.220 NA
HETATM    7  C12 UNL     1      20.162   1.823  51.386  1.00  0.00     0.158 A 
HETATM    8  H18 UNL     1      17.436   3.615  51.344  1.00  0.00     0.189 HD
ENDROOT
BRANCH   7   9
HETATM    9  N5  UNL     1      20.831   0.568  51.393  1.00  0.00    -0.337 N 
HETATM   10  H20 UNL     1      20.552   0.020  50.499  1.00  0.00     0.167 HD
BRANCH   9  11
HETATM   11  C13 UNL     1      21.728   0.136  52.408  1.00  0.00     0.067 A 
HETATM   12  C14 UNL     1      21.551  -0.729  53.386  1.00  0.00     0.034 A 
HETATM   13  C15 UNL     1      22.780  -0.824  54.159  1.00  0.00     0.036 A 
HETATM   14  C16 UNL     1      23.707  -0.023  53.661  1.00  0.00     0.086 A 
HETATM   15  C17 UNL     1      23.093   0.642  52.508  1.00  0.00     0.132 A 
HETATM   16  N7  UNL     1      24.906   0.692  53.414  1.00  0.00    -0.263 N 
HETATM   17  N6  UNL     1      24.228   1.264  52.341  1.00  0.00    -0.167 NA
BRANCH  16  18
HETATM   18  C18 UNL     1      26.228   0.785  54.001  1.00  0.00     0.190 C 
BRANCH  18  19
HETATM   19  C19 UNL     1      27.093  -0.347  53.590  1.00  0.00    -0.035 A 
HETATM   20  C20 UNL     1      26.604  -1.468  52.913  1.00  0.00     0.009 A 
HETATM   21  C21 UNL     1      27.494  -2.474  52.570  1.00  0.00     0.004 A 
HETATM   22  C22 UNL     1      28.838  -2.351  52.903  1.00  0.00     0.042 A 
HETATM   23  C23 UNL     1      29.314  -1.245  53.570  1.00  0.00     0.117 A 
HETATM   24  F1  UNL     1      30.635  -1.092  53.913  1.00  0.00    -0.206 F 
HETATM   25  C24 UNL     1      28.427  -0.222  53.921  1.00  0.00     0.051 A 
ENDBRANCH  18  19
ENDBRANCH  16  18
ENDBRANCH   9  11
ENDBRANCH   7   9
BRANCH   1  26
HETATM   26  C2  UNL     1      18.188  -0.526  51.733  1.00  0.00     0.034 C 
HETATM   27  C1  UNL     1      17.913  -1.005  53.124  1.00  0.00     0.010 C 
ENDBRANCH   1  26
BRANCH   1  28
HETATM   28  C4  UNL     1      16.459   0.870  51.245  1.00  0.00     0.207 C 
BRANCH  28  29
HETATM   29  O1  UNL     1      15.444   1.163  51.998  1.00  0.00    -0.355 OA
BRANCH  29  30
HETATM   30  C5  UNL     1      14.785   2.291  52.190  1.00  0.00     0.292 C 
HETATM   31  O2  UNL     1      15.652   3.342  52.680  1.00  0.00    -0.357 OA
HETATM   32  C6  UNL     1      14.861   4.239  53.347  1.00  0.00     0.201 C 
HETATM   33  C7  UNL     1      13.409   4.221  53.057  1.00  0.00     0.296 C 
HETATM   34  N1  UNL     1      13.002   3.790  51.757  1.00  0.00     0.094 N 
HETATM   35  C8  UNL     1      14.052   2.984  51.100  1.00  0.00     0.271 C 
HETATM   36  H13 UNL     1      12.101   3.275  51.809  1.00  0.00     0.316 HD
HETATM   37  C9  UNL     1      14.908   4.075  50.438  1.00  0.00     0.048 C 
ENDBRANCH  29  30
ENDBRANCH  28  29
ENDBRANCH   1  28
TORSDOF 8
ENDMDL
MODEL 4
REMARK VINA RESULT:      -8.4      6.421     10.436
REMARK  8 active torsions:
REMARK  status: ('A' for Active; 'I' for Inactive)
REMARK    1  A    between atoms: C2_2  and  C3_3 
REMARK    2  A    between atoms: C3_3  and  C4_4 
REMARK    3  A    between atoms: C4_4  and  O1_5 
REMARK    4  A    between atoms: O1_5  and  C5_6 
REMARK    5  A    between atoms: C12_18  and  N5_19 
REMARK    6  A    between atoms: N5_19  and  C13_20 
REMARK    7  A    between atoms: N7_26  and  C18_27 
REMARK    8  A    between atoms: C18_27  and  C19_28 
ROOT
HETATM    1  C3  UNL     1      25.352   5.970  49.434  1.00  0.00    -0.025 C 
HETATM    2  C10 UNL     1      24.119   6.145  49.792  1.00  0.00     0.100 A 
HETATM    3  N2  UNL     1      23.439   7.314  50.224  1.00  0.00    -0.273 N 
HETATM    4  N3  UNL     1      22.150   7.392  50.690  1.00  0.00    -0.167 NA
HETATM    5  C11 UNL     1      21.377   6.370  50.791  1.00  0.00     0.257 A 
HETATM    6  N4  UNL     1      21.933   5.127  50.390  1.00  0.00    -0.220 NA
HETATM    7  C12 UNL     1      23.165   5.016  49.942  1.00  0.00     0.158 A 
HETATM    8  H18 UNL     1      23.939   8.179  50.146  1.00  0.00     0.189 HD
ENDROOT
BRANCH   7   9
HETATM    9  N5  UNL     1      23.519   3.657  49.720  1.00  0.00    -0.337 N 
HETATM   10  H20 UNL     1      23.780   3.532  48.675  1.00  0.00     0.167 HD
BRANCH   9  11
HETATM   11  C13 UNL     1      23.538   2.652  50.726  1.00  0.00     0.067 A 
HETATM   12  C14 UNL     1      22.627   1.758  51.050  1.00  0.00     0.034 A 
HETATM   13  C15 UNL     1      23.129   0.953  52.154  1.00  0.00     0.036 A 
HETATM   14  C16 UNL     1      24.339   1.349  52.508  1.00  0.00     0.086 A 
HETATM   15  C17 UNL     1      24.679   2.462  51.615  1.00  0.00     0.132 A 
HETATM   16  N7  UNL     1      25.600   1.493  53.140  1.00  0.00    -0.263 N 
HETATM   17  N6  UNL     1      25.820   2.536  52.244  1.00  0.00    -0.167 NA
BRANCH  16  18
HETATM   18  C18 UNL     1      26.327   0.853  54.219  1.00  0.00     0.190 C 
BRANCH  18  19
HETATM   19  C19 UNL     1      27.144  -0.284  53.731  1.00  0.00    -0.035 A 
HETATM   20  C20 UNL     1      26.603  -1.351  53.006  1.00  0.00     0.009 A 
HETATM   21  C21 UNL     1      27.450  -2.367  52.593  1.00  0.00     0.004 A 
HETATM   22  C22 UNL     1      28.805  -2.308  52.904  1.00  0.00     0.042 A 
HETATM   23  C23 UNL     1      29.331  -1.256  53.618  1.00  0.00     0.117 A 
HETATM   24  F1  UNL     1      30.663  -1.167  53.943  1.00  0.00    -0.206 F 
HETATM   25  C24 UNL     1      28.487  -0.223  54.041  1.00  0.00     0.051 A 
ENDBRANCH  18  19
ENDBRANCH  16  18
ENDBRANCH   9  11
ENDBRANCH   7   9
BRANCH   1  26
HETATM   26  C2  UNL     1      26.074   4.736  48.943  1.00  0.00     0.034 C 
HETATM   27  C1  UNL     1      27.528   4.959  48.671  1.00  0.00     0.010 C 
ENDBRANCH   1  26
BRANCH   1  28
HETATM   28  C4  UNL     1      26.486   6.882  49.577  1.00  0.00     0.207 C 
BRANCH  28  29
HETATM   29  O1  UNL     1      26.536   8.175  49.486  1.00  0.00    -0.355 OA
BRANCH  29  30
HETATM   30  C5  UNL     1      27.391   8.984  48.889  1.00  0.00     0.292 C 
HETATM   31  O2  UNL     1      28.751   8.744  49.324  1.00  0.00    -0.357 OA
HETATM   32  C6  UNL     1      29.452   9.902  49.115  1.00  0.00     0.201 C 
HETATM   33  C7  UNL     1      28.886  10.883  48.161  1.00  0.00     0.296 C 
HETATM   34  N1  UNL     1      28.076  10.375  47.098  1.00  0.00     0.094 N 
HETATM   35  C8  UNL     1      27.548   9.032  47.412  1.00  0.00     0.271 C 
HETATM   36  H13 UNL     1      27.312  11.044  46.871  1.00  0.00     0.316 HD
HETATM   37  C9  UNL     1      28.694   8.130  46.929  1.00  0.00     0.048 C 
ENDBRANCH  29  30
ENDBRANCH  28  29
ENDBRANCH   1  28
TORSDOF 8
ENDMDL
MODEL 5
REMARK VINA RESULT:      -8.3      6.353     11.780
REMARK  8 active torsions:
REMARK  status: ('A' for Active; 'I' for Inactive)
REMARK    1  A    between atoms: C2_2  and  C3_3 
REMARK    2  A    between atoms: C3_3  and  C4_4 
REMARK    3  A    between atoms: C4_4  and  O1_5 
REMARK    4  A    between atoms: O1_5  and  C5_6 
REMARK    5  A    between atoms: C12_18  and  N5_19 
REMARK    6  A    between atoms: N5_19  and  C13_20 
REMARK    7  A    between atoms: N7_26  and  C18_27 
REMARK    8  A    between atoms: C18_27  and  C19_28 
ROOT
HETATM    1  C3  UNL     1      23.936   2.412  51.483  1.00  0.00    -0.025 C 
HETATM    2  C10 UNL     1      25.089   2.312  52.065  1.00  0.00     0.100 A 
HETATM    3  N2  UNL     1      25.421   2.109  53.430  1.00  0.00    -0.273 N 
HETATM    4  N3  UNL     1      26.678   2.122  53.982  1.00  0.00    -0.167 NA
HETATM    5  C11 UNL     1      27.745   2.326  53.295  1.00  0.00     0.257 A 
HETATM    6  N4  UNL     1      27.557   2.546  51.906  1.00  0.00    -0.220 NA
HETATM    7  C12 UNL     1      26.367   2.544  51.345  1.00  0.00     0.158 A 
HETATM    8  H18 UNL     1      24.663   1.897  54.051  1.00  0.00     0.189 HD
ENDROOT
BRANCH   7   9
HETATM    9  N5  UNL     1      26.437   2.903  49.970  1.00  0.00    -0.337 N 
HETATM   10  H20 UNL     1      26.425   1.998  49.374  1.00  0.00     0.167 HD
BRANCH   9  11
HETATM   11  C13 UNL     1      26.493   4.239  49.486  1.00  0.00     0.067 A 
HETATM   12  C14 UNL     1      25.602   5.207  49.559  1.00  0.00     0.034 A 
HETATM   13  C15 UNL     1      26.140   6.392  48.908  1.00  0.00     0.036 A 
HETATM   14  C16 UNL     1      27.352   6.156  48.436  1.00  0.00     0.086 A 
HETATM   15  C17 UNL     1      27.656   4.762  48.776  1.00  0.00     0.132 A 
HETATM   16  N7  UNL     1      28.623   6.265  47.819  1.00  0.00    -0.263 N 
HETATM   17  N6  UNL     1      28.809   4.936  48.191  1.00  0.00    -0.167 NA
BRANCH  16  18
HETATM   18  C18 UNL     1      29.383   7.285  47.124  1.00  0.00     0.190 C 
BRANCH  18  19
HETATM   19  C19 UNL     1      30.729   7.469  47.719  1.00  0.00    -0.035 A 
HETATM   20  C20 UNL     1      30.925   7.958  49.014  1.00  0.00     0.009 A 
HETATM   21  C21 UNL     1      32.223   8.093  49.480  1.00  0.00     0.004 A 
HETATM   22  C22 UNL     1      33.293   7.745  48.662  1.00  0.00     0.042 A 
HETATM   23  C23 UNL     1      33.093   7.264  47.388  1.00  0.00     0.117 A 
HETATM   24  F1  UNL     1      34.126   6.911  46.553  1.00  0.00    -0.206 F 
HETATM   25  C24 UNL     1      31.788   7.122  46.905  1.00  0.00     0.051 A 
ENDBRANCH  18  19
ENDBRANCH  16  18
ENDBRANCH   9  11
ENDBRANCH   7   9
BRANCH   1  26
HETATM   26  C2  UNL     1      23.574   2.596  50.027  1.00  0.00     0.034 C 
HETATM   27  C1  UNL     1      22.351   3.431  49.812  1.00  0.00     0.010 C 
ENDBRANCH   1  26
BRANCH   1  28
HETATM   28  C4  UNL     1      22.614   2.569  52.090  1.00  0.00     0.207 C 
BRANCH  28  29
HETATM   29  O1  UNL     1      22.090   1.976  53.118  1.00  0.00    -0.355 OA
BRANCH  29  30
HETATM   30  C5  UNL     1      21.267   0.948  53.217  1.00  0.00     0.292 C 
HETATM   31  O2  UNL     1      20.943   0.392  51.920  1.00  0.00    -0.357 OA
HETATM   32  C6  UNL     1      19.738  -0.248  52.046  1.00  0.00     0.201 C 
HETATM   33  C7  UNL     1      19.297  -0.619  53.410  1.00  0.00     0.296 C 
HETATM   34  N1  UNL     1      20.313  -0.882  54.381  1.00  0.00     0.094 N 
HETATM   35  C8  UNL     1      21.602  -0.272  53.997  1.00  0.00     0.271 C 
HETATM   36  H13 UNL     1      20.006  -0.567  55.323  1.00  0.00     0.316 HD
HETATM   37  C9  UNL     1      22.209  -1.370  53.108  1.00  0.00     0.048 C 
ENDBRANCH  29  30
ENDBRANCH  28  29
ENDBRANCH   1  28
TORSDOF 8
ENDMDL
MODEL 6
REMARK VINA RESULT:      -8.3      1.650      2.755
REMARK  8 active torsions:
REMARK  status: ('A' for Active; 'I' for Inactive)
REMARK    1  A    between atoms: C2_2  and  C3_3 
REMARK    2  A    between atoms: C3_3  and  C4_4 
REMARK    3  A    between atoms: C4_4  and  O1_5 
REMARK    4  A    between atoms: O1_5  and  C5_6 
REMARK    5  A    between atoms: C12_18  and  N5_19 
REMARK    6  A    between atoms: N5_19  and  C13_20 
REMARK    7  A    between atoms: N7_26  and  C18_27 
REMARK    8  A    between atoms: C18_27  and  C19_28 
ROOT
HETATM    1  C3  UNL     1      23.417   1.723  52.302  1.00  0.00    -0.025 C 
HETATM    2  C10 UNL     1      22.762   0.876  53.032  1.00  0.00     0.100 A 
HETATM    3  N2  UNL     1      23.202  -0.280  53.727  1.00  0.00    -0.273 N 
HETATM    4  N3  UNL     1      22.418  -1.189  54.394  1.00  0.00    -0.167 NA
HETATM    5  C11 UNL     1      21.139  -1.090  54.470  1.00  0.00     0.257 A 
HETATM    6  N4  UNL     1      20.561   0.028  53.814  1.00  0.00    -0.220 NA
HETATM    7  C12 UNL     1      21.283   0.916  53.163  1.00  0.00     0.158 A 
HETATM    8  H18 UNL     1      24.193  -0.430  53.768  1.00  0.00     0.189 HD
ENDROOT
BRANCH   7   9
HETATM    9  N5  UNL     1      20.462   1.868  52.498  1.00  0.00    -0.337 N 
HETATM   10  H20 UNL     1      20.908   2.850  52.612  1.00  0.00     0.167 HD
BRANCH   9  11
HETATM   11  C13 UNL     1      19.270   1.554  51.790  1.00  0.00     0.067 A 
HETATM   12  C14 UNL     1      18.973   0.504  51.052  1.00  0.00     0.034 A 
HETATM   13  C15 UNL     1      17.617   0.655  50.542  1.00  0.00     0.036 A 
HETATM   14  C16 UNL     1      17.085   1.789  50.964  1.00  0.00     0.086 A 
HETATM   15  C17 UNL     1      18.109   2.437  51.790  1.00  0.00     0.132 A 
HETATM   16  N7  UNL     1      16.216   2.881  51.213  1.00  0.00    -0.263 N 
HETATM   17  N6  UNL     1      17.256   3.407  51.976  1.00  0.00    -0.167 NA
BRANCH  16  18
HETATM   18  C18 UNL     1      14.869   3.273  50.847  1.00  0.00     0.190 C 
BRANCH  18  19
HETATM   19  C19 UNL     1      13.950   3.232  52.011  1.00  0.00    -0.035 A 
HETATM   20  C20 UNL     1      13.245   4.353  52.460  1.00  0.00     0.009 A 
HETATM   21  C21 UNL     1      12.408   4.212  53.556  1.00  0.00     0.004 A 
HETATM   22  C22 UNL     1      12.288   2.976  54.181  1.00  0.00     0.042 A 
HETATM   23  C23 UNL     1      12.985   1.876  53.734  1.00  0.00     0.117 A 
HETATM   24  F1  UNL     1      12.890   0.641  54.327  1.00  0.00    -0.206 F 
HETATM   25  C24 UNL     1      13.833   2.004  52.628  1.00  0.00     0.051 A 
ENDBRANCH  18  19
ENDBRANCH  16  18
ENDBRANCH   9  11
ENDBRANCH   7   9
BRANCH   1  26
HETATM   26  C2  UNL     1      22.961   2.973  51.586  1.00  0.00     0.034 C 
HETATM   27  C1  UNL     1      23.358   4.240  52.276  1.00  0.00     0.010 C 
ENDBRANCH   1  26
BRANCH   1  28
HETATM   28  C4  UNL     1      24.781   1.623  51.785  1.00  0.00     0.207 C 
BRANCH  28  29
HETATM   29  O1  UNL     1      25.653   0.670  51.905  1.00  0.00    -0.355 OA
BRANCH  29  30
HETATM   30  C5  UNL     1      26.739   0.557  52.648  1.00  0.00     0.292 C 
HETATM   31  O2  UNL     1      27.069   1.803  53.308  1.00  0.00    -0.357 OA
HETATM   32  C6  UNL     1      28.412   1.772  53.578  1.00  0.00     0.201 C 
HETATM   33  C7  UNL     1      29.080   0.451  53.586  1.00  0.00     0.296 C 
HETATM   34  N1  UNL     1      28.288  -0.685  53.941  1.00  0.00     0.094 N 
HETATM   35  C8  UNL     1      26.846  -0.417  53.765  1.00  0.00     0.271 C 
HETATM   36  H13 UNL     1      28.590  -1.522  53.403  1.00  0.00     0.316 HD
HETATM   37  C9  UNL     1      26.484   0.219  55.116  1.00  0.00     0.048 C 
ENDBRANCH  29  30
ENDBRANCH  28  29
ENDBRANCH   1  28
TORSDOF 8
ENDMDL
MODEL 7
REMARK VINA RESULT:      -8.2      6.720      9.995
REMARK  8 active torsions:
REMARK  status: ('A' for Active; 'I' for Inactive)
REMARK    1  A    between atoms: C2_2  and  C3_3 
REMARK    2  A    between atoms: C3_3  and  C4_4 
REMARK    3  A    between atoms: C4_4  and  O1_5 
REMARK    4  A    between atoms: O1_5  and  C5_6 
REMARK    5  A    between atoms: C12_18  and  N5_19 
REMARK    6  A    between atoms: N5_19  and  C13_20 
REMARK    7  A    between atoms: N7_26  and  C18_27 
REMARK    8  A    between atoms: C18_27  and  C19_28 
ROOT
HETATM    1  C3  UNL     1      26.036   5.794  48.860  1.00  0.00    -0.025 C 
HETATM    2  C10 UNL     1      24.879   6.338  48.649  1.00  0.00     0.100 A 
HETATM    3  N2  UNL     1      24.460   7.263  47.658  1.00  0.00    -0.273 N 
HETATM    4  N3  UNL     1      23.234   7.876  47.569  1.00  0.00    -0.167 NA
HETATM    5  C11 UNL     1      22.284   7.670  48.410  1.00  0.00     0.257 A 
HETATM    6  N4  UNL     1      22.569   6.759  49.460  1.00  0.00    -0.220 NA
HETATM    7  C12 UNL     1      23.734   6.158  49.577  1.00  0.00     0.158 A 
HETATM    8  H18 UNL     1      25.113   7.463  46.924  1.00  0.00     0.189 HD
ENDROOT
BRANCH   7   9
HETATM    9  N5  UNL     1      23.807   5.391  50.773  1.00  0.00    -0.337 N 
HETATM   10  H20 UNL     1      24.025   6.057  51.600  1.00  0.00     0.167 HD
BRANCH   9  11
HETATM   11  C13 UNL     1      23.603   3.985  50.845  1.00  0.00     0.067 A 
HETATM   12  C14 UNL     1      22.995   3.171  50.007  1.00  0.00     0.034 A 
HETATM   13  C15 UNL     1      23.056   1.817  50.537  1.00  0.00     0.036 A 
HETATM   14  C16 UNL     1      23.695   1.798  51.694  1.00  0.00     0.086 A 
HETATM   15  C17 UNL     1      24.087   3.185  51.965  1.00  0.00     0.132 A 
HETATM   16  N7  UNL     1      24.305   1.406  52.912  1.00  0.00    -0.263 N 
HETATM   17  N6  UNL     1      24.627   2.751  53.071  1.00  0.00    -0.167 NA
BRANCH  16  18
HETATM   18  C18 UNL     1      24.505   0.175  53.652  1.00  0.00     0.190 C 
BRANCH  18  19
HETATM   19  C19 UNL     1      25.915  -0.280  53.591  1.00  0.00    -0.035 A 
HETATM   20  C20 UNL     1      26.348  -1.294  52.731  1.00  0.00     0.009 A 
HETATM   21  C21 UNL     1      27.688  -1.648  52.747  1.00  0.00     0.004 A 
HETATM   22  C22 UNL     1      28.565  -0.997  53.607  1.00  0.00     0.042 A 
HETATM   23  C23 UNL     1      28.133   0.000  54.452  1.00  0.00     0.117 A 
HETATM   24  F1  UNL     1      28.972   0.664  55.314  1.00  0.00    -0.206 F 
HETATM   25  C24 UNL     1      26.783   0.368  54.445  1.00  0.00     0.051 A 
ENDBRANCH  18  19
ENDBRANCH  16  18
ENDBRANCH   9  11
ENDBRANCH   7   9
BRANCH   1  26
HETATM   26  C2  UNL     1      26.481   4.784  49.893  1.00  0.00     0.034 C 
HETATM   27  C1  UNL     1      26.727   3.419  49.331  1.00  0.00     0.010 C 
ENDBRANCH   1  26
BRANCH   1  28
HETATM   28  C4  UNL     1      27.331   6.138  48.273  1.00  0.00     0.207 C 
BRANCH  28  29
HETATM   29  O1  UNL     1      27.735   7.245  47.731  1.00  0.00    -0.355 OA
BRANCH  29  30
HETATM   30  C5  UNL     1      28.154   8.382  48.257  1.00  0.00     0.292 C 
HETATM   31  O2  UNL     1      27.878   9.508  47.389  1.00  0.00    -0.357 OA
HETATM   32  C6  UNL     1      28.776  10.491  47.708  1.00  0.00     0.201 C 
HETATM   33  C7  UNL     1      29.443  10.410  49.028  1.00  0.00     0.296 C 
HETATM   34  N1  UNL     1      28.728   9.771  50.088  1.00  0.00     0.094 N 
HETATM   35  C8  UNL     1      27.668   8.882  49.569  1.00  0.00     0.271 C 
HETATM   36  H13 UNL     1      29.383   9.261  50.714  1.00  0.00     0.316 HD
HETATM   37  C9  UNL     1      26.495   9.862  49.409  1.00  0.00     0.048 C 
ENDBRANCH  29  30
ENDBRANCH  28  29
ENDBRANCH   1  28
TORSDOF 8
ENDMDL
MODEL 8
REMARK VINA RESULT:      -8.2      6.423     10.553
REMARK  8 active torsions:
REMARK  status: ('A' for Active; 'I' for Inactive)
REMARK    1  A    between atoms: C2_2  and  C3_3 
REMARK    2  A    between atoms: C3_3  and  C4_4 
REMARK    3  A    between atoms: C4_4  and  O1_5 
REMARK    4  A    between atoms: O1_5  and  C5_6 
REMARK    5  A    between atoms: C12_18  and  N5_19 
REMARK    6  A    between atoms: N5_19  and  C13_20 
REMARK    7  A    between atoms: N7_26  and  C18_27 
REMARK    8  A    between atoms: C18_27  and  C19_28 
ROOT
HETATM    1  C3  UNL     1      23.130   2.497  51.878  1.00  0.00    -0.025 C 
HETATM    2  C10 UNL     1      22.813   2.406  50.625  1.00  0.00     0.100 A 
HETATM    3  N2  UNL     1      22.130   1.385  49.916  1.00  0.00    -0.273 N 
HETATM    4  N3  UNL     1      21.928   1.317  48.559  1.00  0.00    -0.167 NA
HETATM    5  C11 UNL     1      22.353   2.213  47.741  1.00  0.00     0.257 A 
HETATM    6  N4  UNL     1      23.059   3.299  48.320  1.00  0.00    -0.220 NA
HETATM    7  C12 UNL     1      23.273   3.393  49.615  1.00  0.00     0.158 A 
HETATM    8  H18 UNL     1      21.718   0.654  50.465  1.00  0.00     0.189 HD
ENDROOT
BRANCH   7   9
HETATM    9  N5  UNL     1      24.101   4.506  49.927  1.00  0.00    -0.337 N 
HETATM   10  H20 UNL     1      23.563   5.160  50.605  1.00  0.00     0.167 HD
BRANCH   9  11
HETATM   11  C13 UNL     1      25.422   4.695  49.434  1.00  0.00     0.067 A 
HETATM   12  C14 UNL     1      26.459   3.882  49.452  1.00  0.00     0.034 A 
HETATM   13  C15 UNL     1      27.588   4.546  48.818  1.00  0.00     0.036 A 
HETATM   14  C16 UNL     1      27.250   5.759  48.414  1.00  0.00     0.086 A 
HETATM   15  C17 UNL     1      25.840   5.931  48.783  1.00  0.00     0.132 A 
HETATM   16  N7  UNL     1      27.248   7.065  47.864  1.00  0.00    -0.263 N 
HETATM   17  N6  UNL     1      25.914   7.124  48.258  1.00  0.00    -0.167 NA
BRANCH  16  18
HETATM   18  C18 UNL     1      28.195   7.940  47.199  1.00  0.00     0.190 C 
BRANCH  18  19
HETATM   19  C19 UNL     1      29.547   7.844  47.800  1.00  0.00    -0.035 A 
HETATM   20  C20 UNL     1      29.924   8.565  48.937  1.00  0.00     0.009 A 
HETATM   21  C21 UNL     1      31.212   8.406  49.424  1.00  0.00     0.004 A 
HETATM   22  C22 UNL     1      32.094   7.544  48.780  1.00  0.00     0.042 A 
HETATM   23  C23 UNL     1      31.716   6.837  47.661  1.00  0.00     0.117 A 
HETATM   24  F1  UNL     1      32.561   5.978  47.001  1.00  0.00    -0.206 F 
HETATM   25  C24 UNL     1      30.419   6.988  47.160  1.00  0.00     0.051 A 
ENDBRANCH  18  19
ENDBRANCH  16  18
ENDBRANCH   9  11
ENDBRANCH   7   9
BRANCH   1  26
HETATM   26  C2  UNL     1      23.829   3.596  52.646  1.00  0.00     0.034 C 
HETATM   27  C1  UNL     1      22.937   4.744  52.998  1.00  0.00     0.010 C 
ENDBRANCH   1  26
BRANCH   1  28
HETATM   28  C4  UNL     1      23.074   1.466  52.914  1.00  0.00     0.207 C 
BRANCH  28  29
HETATM   29  O1  UNL     1      23.650   0.305  52.969  1.00  0.00    -0.355 OA
BRANCH  29  30
HETATM   30  C5  UNL     1      24.919  -0.046  53.076  1.00  0.00     0.292 C 
HETATM   31  O2  UNL     1      25.721   0.507  52.005  1.00  0.00    -0.357 OA
HETATM   32  C6  UNL     1      26.819  -0.299  51.868  1.00  0.00     0.201 C 
HETATM   33  C7  UNL     1      27.175  -1.175  53.007  1.00  0.00     0.296 C 
HETATM   34  N1  UNL     1      26.818  -0.728  54.317  1.00  0.00     0.094 N 
HETATM   35  C8  UNL     1      25.740   0.280  54.271  1.00  0.00     0.271 C 
HETATM   36  H13 UNL     1      26.562  -1.535  54.921  1.00  0.00     0.316 HD
HETATM   37  C9  UNL     1      26.540   1.578  54.078  1.00  0.00     0.048 C 
ENDBRANCH  29  30
ENDBRANCH  28  29
ENDBRANCH   1  28
TORSDOF 8
ENDMDL
MODEL 9
REMARK VINA RESULT:      -8.1      1.766      2.173
REMARK  8 active torsions:
REMARK  status: ('A' for Active; 'I' for Inactive)
REMARK    1  A    between atoms: C2_2  and  C3_3 
REMARK    2  A    between atoms: C3_3  and  C4_4 
REMARK    3  A    between atoms: C4_4  and  O1_5 
REMARK    4  A    between atoms: O1_5  and  C5_6 
REMARK    5  A    between atoms: C12_18  and  N5_19 
REMARK    6  A    between atoms: N5_19  and  C13_20 
REMARK    7  A    between atoms: N7_26  and  C18_27 
REMARK    8  A    between atoms: C18_27  and  C19_28 
ROOT
HETATM    1  C3  UNL     1      23.752   2.938  52.674  1.00  0.00    -0.025 C 
HETATM    2  C10 UNL     1      23.360   4.031  52.099  1.00  0.00     0.100 A 
HETATM    3  N2  UNL     1      24.095   5.167  51.674  1.00  0.00    -0.273 N 
HETATM    4  N3  UNL     1      23.584   6.336  51.167  1.00  0.00    -0.167 NA
HETATM    5  C11 UNL     1      22.325   6.542  51.010  1.00  0.00     0.257 A 
HETATM    6  N4  UNL     1      21.468   5.480  51.398  1.00  0.00    -0.220 NA
HETATM    7  C12 UNL     1      21.924   4.348  51.891  1.00  0.00     0.158 A 
HETATM    8  H18 UNL     1      25.094   5.097  51.713  1.00  0.00     0.189 HD
ENDROOT
BRANCH   7   9
HETATM    9  N5  UNL     1      20.864   3.497  52.309  1.00  0.00    -0.337 N 
HETATM   10  H20 UNL     1      20.963   3.317  53.374  1.00  0.00     0.167 HD
BRANCH   9  11
HETATM   11  C13 UNL     1      19.844   2.996  51.454  1.00  0.00     0.067 A 
HETATM   12  C14 UNL     1      19.915   2.130  50.465  1.00  0.00     0.034 A 
HETATM   13  C15 UNL     1      18.586   1.949  49.900  1.00  0.00     0.036 A 
HETATM   14  C16 UNL     1      17.703   2.699  50.537  1.00  0.00     0.086 A 
HETATM   15  C17 UNL     1      18.452   3.418  51.573  1.00  0.00     0.132 A 
HETATM   16  N7  UNL     1      16.518   3.344  50.971  1.00  0.00    -0.263 N 
HETATM   17  N6  UNL     1      17.322   3.973  51.917  1.00  0.00    -0.167 NA
BRANCH  16  18
HETATM   18  C18 UNL     1      15.115   3.349  50.604  1.00  0.00     0.190 C 
BRANCH  18  19
HETATM   19  C19 UNL     1      14.243   3.037  51.762  1.00  0.00    -0.035 A 
HETATM   20  C20 UNL     1      14.137   1.754  52.307  1.00  0.00     0.009 A 
HETATM   21  C21 UNL     1      13.295   1.564  53.392  1.00  0.00     0.004 A 
HETATM   22  C22 UNL     1      12.580   2.638  53.909  1.00  0.00     0.042 A 
HETATM   23  C23 UNL     1      12.688   3.899  53.368  1.00  0.00     0.117 A 
HETATM   24  F1  UNL     1      11.997   4.982  53.854  1.00  0.00    -0.206 F 
HETATM   25  C24 UNL     1      13.535   4.105  52.273  1.00  0.00     0.051 A 
ENDBRANCH  18  19
ENDBRANCH  16  18
ENDBRANCH   9  11
ENDBRANCH   7   9
BRANCH   1  26
HETATM   26  C2  UNL     1      22.980   1.711  53.101  1.00  0.00     0.034 C 
HETATM   27  C1  UNL     1      22.938   0.635  52.061  1.00  0.00     0.010 C 
ENDBRANCH   1  26
BRANCH   1  28
HETATM   28  C4  UNL     1      25.054   2.632  53.268  1.00  0.00     0.207 C 
BRANCH  28  29
HETATM   29  O1  UNL     1      26.074   2.005  52.767  1.00  0.00    -0.355 OA
BRANCH  29  30
HETATM   30  C5  UNL     1      26.788   0.987  53.213  1.00  0.00     0.292 C 
HETATM   31  O2  UNL     1      27.373   1.267  54.507  1.00  0.00    -0.357 OA
HETATM   32  C6  UNL     1      28.473   0.462  54.635  1.00  0.00     0.201 C 
HETATM   33  C7  UNL     1      28.559  -0.726  53.756  1.00  0.00     0.296 C 
HETATM   34  N1  UNL     1      27.331  -1.317  53.325  1.00  0.00     0.094 N 
HETATM   35  C8  UNL     1      26.207  -0.364  53.427  1.00  0.00     0.271 C 
HETATM   36  H13 UNL     1      27.427  -1.694  52.361  1.00  0.00     0.316 HD
HETATM   37  C9  UNL     1      25.760  -0.570  54.883  1.00  0.00     0.048 C 
ENDBRANCH  29  30
ENDBRANCH  28  29
ENDBRANCH   1  28
TORSDOF 8
ENDMDL
