MODEL 1
REMARK VINA RESULT:      -7.1      0.000      0.000
REMARK  4 active torsions:
REMARK  status: ('A' for Active; 'I' for Inactive)
REMARK    1  A    between atoms: O1_2  and  C2_3 
REMARK    2  A    between atoms: C2_3  and  O2_4 
REMARK    3  A    between atoms: O2_4  and  C3_5 
REMARK    4  A    between atoms: C14_19  and  O4_20 
ROOT
HETATM    1  C3  UNL     1      24.432   4.855  49.714  1.00  0.00     0.170 C 
HETATM    2  C4  UNL     1      23.641   3.766  49.176  1.00  0.00     0.003 C 
HETATM    3  C5  UNL     1      23.022   2.889  48.441  1.00  0.00    -0.024 C 
HETATM    4  C6  UNL     1      22.247   1.818  47.811  1.00  0.00     0.056 C 
HETATM    5  C7  UNL     1      21.436   1.029  48.819  1.00  0.00     0.001 C 
HETATM    6  C8  UNL     1      20.969   0.904  49.991  1.00  0.00     0.134 C 
HETATM    7  O3  UNL     1      20.377   0.670  51.340  1.00  0.00    -0.326 OA
HETATM    8  C9  UNL     1      21.527   0.958  52.242  1.00  0.00     0.206 A 
HETATM    9  N1  UNL     1      21.572  -0.348  52.430  1.00  0.00    -0.240 NA
HETATM   10  C10 UNL     1      22.522  -0.998  53.198  1.00  0.00     0.225 A 
HETATM   11  N2  UNL     1      23.079   0.245  53.452  1.00  0.00    -0.265 NA
HETATM   12  C11 UNL     1      22.519   1.260  52.929  1.00  0.00     0.135 A 
HETATM   13  C12 UNL     1      23.348   2.452  52.726  1.00  0.00     0.087 A 
HETATM   14  C13 UNL     1      22.963   3.655  52.194  1.00  0.00     0.134 A 
HETATM   15  C14 UNL     1      21.717   3.997  51.748  1.00  0.00     0.079 A 
HETATM   16  C16 UNL     1      20.870   2.943  51.895  1.00  0.00     0.029 A 
HETATM   17  C17 UNL     1      21.963   2.337  52.402  1.00  0.00     0.095 A 
HETATM   18  O5  UNL     1      23.958   4.603  52.095  1.00  0.00    -0.369 OA
HETATM   19  C18 UNL     1      24.936   4.646  51.088  1.00  0.00     0.205 C 
ENDROOT
BRANCH   1  20
HETATM   20  O2  UNL     1      25.566   4.982  48.838  1.00  0.00    -0.356 OA
BRANCH  20  21
HETATM   21  C2  UNL     1      26.611   4.196  49.312  1.00  0.00     0.338 C 
BRANCH  21  22
HETATM   22  O1  UNL     1      27.795   4.489  48.674  1.00  0.00    -0.372 OA
HETATM   23  C1  UNL     1      27.869   5.850  48.396  1.00  0.00     0.204 C 
ENDBRANCH  21  22
ENDBRANCH  20  21
ENDBRANCH   1  20
BRANCH  15  24
HETATM   24  O4  UNL     1      21.439   5.239  51.245  1.00  0.00    -0.357 OA
HETATM   25  C15 UNL     1      20.524   5.498  50.201  1.00  0.00     0.209 C 
ENDBRANCH  15  24
TORSDOF 4
ENDMDL
MODEL 2
REMARK VINA RESULT:      -6.9      2.575      3.828
REMARK  4 active torsions:
REMARK  status: ('A' for Active; 'I' for Inactive)
REMARK    1  A    between atoms: O1_2  and  C2_3 
REMARK    2  A    between atoms: C2_3  and  O2_4 
REMARK    3  A    between atoms: O2_4  and  C3_5 
REMARK    4  A    between atoms: C14_19  and  O4_20 
ROOT
HETATM    1  C3  UNL     1      23.161   3.470  49.106  1.00  0.00     0.170 C 
HETATM    2  C4  UNL     1      22.579   2.369  49.848  1.00  0.00     0.003 C 
HETATM    3  C5  UNL     1      21.835   1.424  50.342  1.00  0.00    -0.024 C 
HETATM    4  C6  UNL     1      21.169   0.322  51.040  1.00  0.00     0.056 C 
HETATM    5  C7  UNL     1      21.987  -0.194  52.207  1.00  0.00     0.001 C 
HETATM    6  C8  UNL     1      22.964  -0.058  53.004  1.00  0.00     0.134 C 
HETATM    7  O3  UNL     1      24.084   0.016  53.985  1.00  0.00    -0.326 OA
HETATM    8  C9  UNL     1      25.241   0.370  53.116  1.00  0.00     0.206 A 
HETATM    9  N1  UNL     1      25.632  -0.876  53.305  1.00  0.00    -0.240 NA
HETATM   10  C10 UNL     1      26.745  -1.447  52.714  1.00  0.00     0.225 A 
HETATM   11  N2  UNL     1      26.964  -0.229  52.091  1.00  0.00    -0.265 NA
HETATM   12  C11 UNL     1      26.145   0.712  52.333  1.00  0.00     0.135 A 
HETATM   13  C12 UNL     1      26.026   1.773  51.327  1.00  0.00     0.087 A 
HETATM   14  C13 UNL     1      25.223   2.882  51.376  1.00  0.00     0.134 A 
HETATM   15  C14 UNL     1      24.368   3.237  52.382  1.00  0.00     0.079 A 
HETATM   16  C16 UNL     1      24.407   2.303  53.370  1.00  0.00     0.029 A 
HETATM   17  C17 UNL     1      25.313   1.714  52.562  1.00  0.00     0.095 A 
HETATM   18  O5  UNL     1      25.290   3.709  50.275  1.00  0.00    -0.369 OA
HETATM   19  C18 UNL     1      24.638   3.481  49.052  1.00  0.00     0.205 C 
ENDROOT
BRANCH   1  20
HETATM   20  O2  UNL     1      22.667   3.336  47.761  1.00  0.00    -0.356 OA
BRANCH  20  21
HETATM   21  C2  UNL     1      21.871   4.431  47.446  1.00  0.00     0.338 C 
BRANCH  21  22
HETATM   22  O1  UNL     1      22.099   4.869  46.160  1.00  0.00    -0.372 OA
HETATM   23  C1  UNL     1      21.686   3.907  45.244  1.00  0.00     0.204 C 
ENDBRANCH  21  22
ENDBRANCH  20  21
ENDBRANCH   1  20
BRANCH  15  24
HETATM   24  O4  UNL     1      23.619   4.381  52.332  1.00  0.00    -0.357 OA
HETATM   25  C15 UNL     1      22.233   4.448  52.591  1.00  0.00     0.209 C 
ENDBRANCH  15  24
TORSDOF 4
ENDMDL
MODEL 3
REMARK VINA RESULT:      -6.9      3.148      6.155
REMARK  4 active torsions:
REMARK  status: ('A' for Active; 'I' for Inactive)
REMARK    1  A    between atoms: O1_2  and  C2_3 
REMARK    2  A    between atoms: C2_3  and  O2_4 
REMARK    3  A    between atoms: O2_4  and  C3_5 
REMARK    4  A    between atoms: C14_19  and  O4_20 
ROOT
HETATM    1  C3  UNL     1      18.338   3.308  51.239  1.00  0.00     0.170 C 
HETATM    2  C4  UNL     1      19.703   3.579  51.644  1.00  0.00     0.003 C 
HETATM    3  C5  UNL     1      20.852   4.095  51.970  1.00  0.00    -0.024 C 
HETATM    4  C6  UNL     1      22.213   4.460  52.367  1.00  0.00     0.056 C 
HETATM    5  C7  UNL     1      23.094   3.244  52.577  1.00  0.00     0.001 C 
HETATM    6  C8  UNL     1      23.286   1.997  52.455  1.00  0.00     0.134 C 
HETATM    7  O3  UNL     1      23.601   0.543  52.354  1.00  0.00    -0.326 OA
HETATM    8  C9  UNL     1      22.335  -0.086  52.824  1.00  0.00     0.206 A 
HETATM    9  N1  UNL     1      23.009  -0.382  53.920  1.00  0.00    -0.240 NA
HETATM   10  C10 UNL     1      22.468  -1.005  55.030  1.00  0.00     0.225 A 
HETATM   11  N2  UNL     1      21.260  -1.030  54.352  1.00  0.00    -0.265 NA
HETATM   12  C11 UNL     1      21.231  -0.536  53.181  1.00  0.00     0.135 A 
HETATM   13  C12 UNL     1      19.934  -0.065  52.684  1.00  0.00     0.087 A 
HETATM   14  C13 UNL     1      19.661   0.489  51.461  1.00  0.00     0.134 A 
HETATM   15  C14 UNL     1      20.545   0.713  50.442  1.00  0.00     0.079 A 
HETATM   16  C16 UNL     1      21.788   0.307  50.814  1.00  0.00     0.029 A 
HETATM   17  C17 UNL     1      21.164  -0.031  51.961  1.00  0.00     0.095 A 
HETATM   18  O5  UNL     1      18.351   0.868  51.264  1.00  0.00    -0.369 OA
HETATM   19  C18 UNL     1      17.767   2.047  51.757  1.00  0.00     0.205 C 
ENDROOT
BRANCH   1  20
HETATM   20  O2  UNL     1      17.554   4.398  51.760  1.00  0.00    -0.356 OA
BRANCH  20  21
HETATM   21  C2  UNL     1      16.249   3.970  51.977  1.00  0.00     0.338 C 
BRANCH  21  22
HETATM   22  O1  UNL     1      15.749   4.453  53.166  1.00  0.00    -0.372 OA
HETATM   23  C1  UNL     1      14.420   4.071  53.319  1.00  0.00     0.204 C 
ENDBRANCH  21  22
ENDBRANCH  20  21
ENDBRANCH   1  20
BRANCH  15  24
HETATM   24  O4  UNL     1      20.157   1.264  49.251  1.00  0.00    -0.357 OA
HETATM   25  C15 UNL     1      20.977   2.076  48.436  1.00  0.00     0.209 C 
ENDBRANCH  15  24
TORSDOF 4
ENDMDL
MODEL 4
REMARK VINA RESULT:      -6.4      3.311      5.170
REMARK  4 active torsions:
REMARK  status: ('A' for Active; 'I' for Inactive)
REMARK    1  A    between atoms: O1_2  and  C2_3 
REMARK    2  A    between atoms: C2_3  and  O2_4 
REMARK    3  A    between atoms: O2_4  and  C3_5 
REMARK    4  A    between atoms: C14_19  and  O4_20 
ROOT
HETATM    1  C3  UNL     1      24.571   0.850  53.466  1.00  0.00     0.170 C 
HETATM    2  C4  UNL     1      24.097   2.183  53.150  1.00  0.00     0.003 C 
HETATM    3  C5  UNL     1      23.898   3.461  53.018  1.00  0.00    -0.024 C 
HETATM    4  C6  UNL     1      23.490   4.842  52.749  1.00  0.00     0.056 C 
HETATM    5  C7  UNL     1      22.171   4.915  52.006  1.00  0.00     0.001 C 
HETATM    6  C8  UNL     1      21.120   4.346  51.582  1.00  0.00     0.134 C 
HETATM    7  O3  UNL     1      19.856   3.765  51.046  1.00  0.00    -0.326 OA
HETATM    8  C9  UNL     1      20.333   2.503  50.415  1.00  0.00     0.206 A 
HETATM    9  N1  UNL     1      20.117   3.117  49.266  1.00  0.00    -0.240 NA
HETATM   10  C10 UNL     1      20.398   2.579  48.023  1.00  0.00     0.225 A 
HETATM   11  N2  UNL     1      20.855   1.450  48.683  1.00  0.00    -0.265 NA
HETATM   12  C11 UNL     1      20.800   1.446  49.953  1.00  0.00     0.135 A 
HETATM   13  C12 UNL     1      21.731   0.562  50.662  1.00  0.00     0.087 A 
HETATM   14  C13 UNL     1      21.846   0.385  52.016  1.00  0.00     0.134 A 
HETATM   15  C14 UNL     1      21.108   0.996  52.992  1.00  0.00     0.079 A 
HETATM   16  C16 UNL     1      20.210   1.846  52.426  1.00  0.00     0.029 A 
HETATM   17  C17 UNL     1      20.758   1.408  51.274  1.00  0.00     0.095 A 
HETATM   18  O5  UNL     1      22.827  -0.495  52.416  1.00  0.00    -0.369 OA
HETATM   19  C18 UNL     1      24.198  -0.198  52.493  1.00  0.00     0.205 C 
ENDROOT
BRANCH   1  20
HETATM   20  O2  UNL     1      26.008   0.944  53.490  1.00  0.00    -0.356 OA
BRANCH  20  21
HETATM   21  C2  UNL     1      26.484   0.473  54.708  1.00  0.00     0.338 C 
BRANCH  21  22
HETATM   22  O1  UNL     1      27.457  -0.486  54.535  1.00  0.00    -0.372 OA
HETATM   23  C1  UNL     1      28.719   0.067  54.734  1.00  0.00     0.204 C 
ENDBRANCH  21  22
ENDBRANCH  20  21
ENDBRANCH   1  20
BRANCH  15  24
HETATM   24  O4  UNL     1      21.300   0.733  54.322  1.00  0.00    -0.357 OA
HETATM   25  C15 UNL     1      21.239  -0.551  54.905  1.00  0.00     0.209 C 
ENDBRANCH  15  24
TORSDOF 4
ENDMDL
MODEL 5
REMARK VINA RESULT:      -6.4      2.507      4.886
REMARK  4 active torsions:
REMARK  status: ('A' for Active; 'I' for Inactive)
REMARK    1  A    between atoms: O1_2  and  C2_3 
REMARK    2  A    between atoms: C2_3  and  O2_4 
REMARK    3  A    between atoms: O2_4  and  C3_5 
REMARK    4  A    between atoms: C14_19  and  O4_20 
ROOT
HETATM    1  C3  UNL     1      22.115   5.632  51.026  1.00  0.00     0.170 C 
HETATM    2  C4  UNL     1      23.411   5.535  50.385  1.00  0.00     0.003 C 
HETATM    3  C5  UNL     1      24.487   5.680  49.668  1.00  0.00    -0.024 C 
HETATM    4  C6  UNL     1      25.773   5.656  48.969  1.00  0.00     0.056 C 
HETATM    5  C7  UNL     1      26.603   4.443  49.338  1.00  0.00     0.001 C 
HETATM    6  C8  UNL     1      26.694   3.305  49.890  1.00  0.00     0.134 C 
HETATM    7  O3  UNL     1      26.898   1.965  50.511  1.00  0.00    -0.326 OA
HETATM    8  C9  UNL     1      26.251   2.134  51.842  1.00  0.00     0.206 A 
HETATM    9  N1  UNL     1      27.480   2.146  52.323  1.00  0.00    -0.240 NA
HETATM   10  C10 UNL     1      27.800   2.345  53.654  1.00  0.00     0.225 A 
HETATM   11  N2  UNL     1      26.442   2.460  53.901  1.00  0.00    -0.265 NA
HETATM   12  C11 UNL     1      25.651   2.338  52.913  1.00  0.00     0.135 A 
HETATM   13  C12 UNL     1      24.332   2.969  53.028  1.00  0.00     0.087 A 
HETATM   14  C13 UNL     1      23.320   2.962  52.103  1.00  0.00     0.134 A 
HETATM   15  C14 UNL     1      23.328   2.354  50.879  1.00  0.00     0.079 A 
HETATM   16  C16 UNL     1      24.524   1.737  50.678  1.00  0.00     0.029 A 
HETATM   17  C17 UNL     1      24.799   2.216  51.909  1.00  0.00     0.095 A 
HETATM   18  O5  UNL     1      22.188   3.660  52.461  1.00  0.00    -0.369 OA
HETATM   19  C18 UNL     1      22.040   5.055  52.385  1.00  0.00     0.205 C 
ENDROOT
BRANCH   1  20
HETATM   20  O2  UNL     1      21.835   7.041  51.125  1.00  0.00    -0.356 OA
BRANCH  20  21
HETATM   21  C2  UNL     1      21.197   7.471  49.967  1.00  0.00     0.338 C 
BRANCH  21  22
HETATM   22  O1  UNL     1      20.335   8.514  50.221  1.00  0.00    -0.372 OA
HETATM   23  C1  UNL     1      19.402   8.628  49.195  1.00  0.00     0.204 C 
ENDBRANCH  21  22
ENDBRANCH  20  21
ENDBRANCH   1  20
BRANCH  15  24
HETATM   24  O4  UNL     1      22.251   2.400  50.036  1.00  0.00    -0.357 OA
HETATM   25  C15 UNL     1      22.330   2.381  48.627  1.00  0.00     0.209 C 
ENDBRANCH  15  24
TORSDOF 4
ENDMDL
MODEL 6
REMARK VINA RESULT:      -6.4      2.753      5.863
REMARK  4 active torsions:
REMARK  status: ('A' for Active; 'I' for Inactive)
REMARK    1  A    between atoms: O1_2  and  C2_3 
REMARK    2  A    between atoms: C2_3  and  O2_4 
REMARK    3  A    between atoms: O2_4  and  C3_5 
REMARK    4  A    between atoms: C14_19  and  O4_20 
ROOT
HETATM    1  C3  UNL     1      22.518   0.733  52.038  1.00  0.00     0.170 C 
HETATM    2  C4  UNL     1      22.244   1.182  50.688  1.00  0.00     0.003 C 
HETATM    3  C5  UNL     1      21.905   1.319  49.440  1.00  0.00    -0.024 C 
HETATM    4  C6  UNL     1      21.598   1.686  48.055  1.00  0.00     0.056 C 
HETATM    5  C7  UNL     1      22.053   3.093  47.722  1.00  0.00     0.001 C 
HETATM    6  C8  UNL     1      22.717   4.130  48.025  1.00  0.00     0.134 C 
HETATM    7  O3  UNL     1      23.467   5.389  48.296  1.00  0.00    -0.326 OA
HETATM    8  C9  UNL     1      23.125   5.659  49.720  1.00  0.00     0.206 A 
HETATM    9  N1  UNL     1      22.369   6.633  49.247  1.00  0.00    -0.240 NA
HETATM   10  C10 UNL     1      21.559   7.444  50.021  1.00  0.00     0.225 A 
HETATM   11  N2  UNL     1      21.997   6.728  51.123  1.00  0.00    -0.265 NA
HETATM   12  C11 UNL     1      22.832   5.790  50.922  1.00  0.00     0.135 A 
HETATM   13  C12 UNL     1      22.886   4.716  51.920  1.00  0.00     0.087 A 
HETATM   14  C13 UNL     1      23.705   3.618  51.919  1.00  0.00     0.134 A 
HETATM   15  C14 UNL     1      24.653   3.298  50.987  1.00  0.00     0.079 A 
HETATM   16  C16 UNL     1      24.676   4.244  50.010  1.00  0.00     0.029 A 
HETATM   17  C17 UNL     1      23.700   4.808  50.751  1.00  0.00     0.095 A 
HETATM   18  O5  UNL     1      23.528   2.748  52.973  1.00  0.00    -0.369 OA
HETATM   19  C18 UNL     1      22.503   1.792  53.069  1.00  0.00     0.205 C 
ENDROOT
BRANCH   1  20
HETATM   20  O2  UNL     1      21.477  -0.210  52.353  1.00  0.00    -0.356 OA
BRANCH  20  21
HETATM   21  C2  UNL     1      21.143  -0.102  53.699  1.00  0.00     0.338 C 
BRANCH  21  22
HETATM   22  O1  UNL     1      21.222  -1.318  54.339  1.00  0.00    -0.372 OA
HETATM   23  C1  UNL     1      22.425  -1.421  55.031  1.00  0.00     0.204 C 
ENDBRANCH  21  22
ENDBRANCH  20  21
ENDBRANCH   1  20
BRANCH  15  24
HETATM   24  O4  UNL     1      25.429   2.175  51.094  1.00  0.00    -0.357 OA
HETATM   25  C15 UNL     1      26.766   2.162  51.546  1.00  0.00     0.209 C 
ENDBRANCH  15  24
TORSDOF 4
ENDMDL
MODEL 7
REMARK VINA RESULT:      -6.3      8.267     11.378
REMARK  4 active torsions:
REMARK  status: ('A' for Active; 'I' for Inactive)
REMARK    1  A    between atoms: O1_2  and  C2_3 
REMARK    2  A    between atoms: C2_3  and  O2_4 
REMARK    3  A    between atoms: O2_4  and  C3_5 
REMARK    4  A    between atoms: C14_19  and  O4_20 
ROOT
HETATM    1  C3  UNL     1      34.149   4.982  45.309  1.00  0.00     0.170 C 
HETATM    2  C4  UNL     1      33.762   6.358  45.547  1.00  0.00     0.003 C 
HETATM    3  C5  UNL     1      33.605   7.649  45.558  1.00  0.00    -0.024 C 
HETATM    4  C6  UNL     1      33.277   9.066  45.734  1.00  0.00     0.056 C 
HETATM    5  C7  UNL     1      32.310   9.290  46.879  1.00  0.00     0.001 C 
HETATM    6  C8  UNL     1      31.701   8.851  47.901  1.00  0.00     0.134 C 
HETATM    7  O3  UNL     1      30.943   8.424  49.112  1.00  0.00    -0.326 OA
HETATM    8  C9  UNL     1      30.399   7.102  48.693  1.00  0.00     0.206 A 
HETATM    9  N1  UNL     1      29.235   7.720  48.622  1.00  0.00    -0.240 NA
HETATM   10  C10 UNL     1      28.059   7.131  48.194  1.00  0.00     0.225 A 
HETATM   11  N2  UNL     1      28.782   5.964  48.007  1.00  0.00    -0.265 NA
HETATM   12  C11 UNL     1      30.022   5.988  48.287  1.00  0.00     0.135 A 
HETATM   13  C12 UNL     1      30.879   5.006  47.617  1.00  0.00     0.087 A 
HETATM   14  C13 UNL     1      32.231   4.838  47.768  1.00  0.00     0.134 A 
HETATM   15  C14 UNL     1      33.063   5.551  48.586  1.00  0.00     0.079 A 
HETATM   16  C16 UNL     1      32.352   6.497  49.254  1.00  0.00     0.029 A 
HETATM   17  C17 UNL     1      31.313   5.977  48.569  1.00  0.00     0.095 A 
HETATM   18  O5  UNL     1      32.794   3.848  46.992  1.00  0.00    -0.369 OA
HETATM   19  C18 UNL     1      33.117   3.973  45.631  1.00  0.00     0.205 C 
ENDROOT
BRANCH   1  20
HETATM   20  O2  UNL     1      34.430   4.896  43.899  1.00  0.00    -0.356 OA
BRANCH  20  21
HETATM   21  C2  UNL     1      33.238   4.781  43.193  1.00  0.00     0.338 C 
BRANCH  21  22
HETATM   22  O1  UNL     1      33.437   4.223  41.950  1.00  0.00    -0.372 OA
HETATM   23  C1  UNL     1      32.654   4.872  41.000  1.00  0.00     0.204 C 
ENDBRANCH  21  22
ENDBRANCH  20  21
ENDBRANCH   1  20
BRANCH  15  24
HETATM   24  O4  UNL     1      34.404   5.288  48.668  1.00  0.00    -0.357 OA
HETATM   25  C15 UNL     1      35.409   6.268  48.818  1.00  0.00     0.209 C 
ENDBRANCH  15  24
TORSDOF 4
ENDMDL
MODEL 8
REMARK VINA RESULT:      -6.1      3.461      5.969
REMARK  4 active torsions:
REMARK  status: ('A' for Active; 'I' for Inactive)
REMARK    1  A    between atoms: O1_2  and  C2_3 
REMARK    2  A    between atoms: C2_3  and  O2_4 
REMARK    3  A    between atoms: O2_4  and  C3_5 
REMARK    4  A    between atoms: C14_19  and  O4_20 
ROOT
HETATM    1  C3  UNL     1      24.872   1.965  51.771  1.00  0.00     0.170 C 
HETATM    2  C4  UNL     1      23.862   2.988  51.954  1.00  0.00     0.003 C 
HETATM    3  C5  UNL     1      22.855   3.728  52.317  1.00  0.00    -0.024 C 
HETATM    4  C6  UNL     1      21.795   4.707  52.567  1.00  0.00     0.056 C 
HETATM    5  C7  UNL     1      21.849   5.870  51.596  1.00  0.00     0.001 C 
HETATM    6  C8  UNL     1      22.306   6.388  50.534  1.00  0.00     0.134 C 
HETATM    7  O3  UNL     1      22.787   7.079  49.303  1.00  0.00    -0.326 OA
HETATM    8  C9  UNL     1      24.257   6.849  49.367  1.00  0.00     0.206 A 
HETATM    9  N1  UNL     1      24.339   8.128  49.684  1.00  0.00    -0.240 NA
HETATM   10  C10 UNL     1      25.514   8.784  50.004  1.00  0.00     0.225 A 
HETATM   11  N2  UNL     1      26.169   7.579  49.809  1.00  0.00    -0.265 NA
HETATM   12  C11 UNL     1      25.467   6.576  49.467  1.00  0.00     0.135 A 
HETATM   13  C12 UNL     1      26.003   5.246  49.778  1.00  0.00     0.087 A 
HETATM   14  C13 UNL     1      25.432   4.031  49.499  1.00  0.00     0.134 A 
HETATM   15  C14 UNL     1      24.243   3.806  48.863  1.00  0.00     0.079 A 
HETATM   16  C16 UNL     1      23.665   4.992  48.535  1.00  0.00     0.029 A 
HETATM   17  C17 UNL     1      24.769   5.511  49.112  1.00  0.00     0.095 A 
HETATM   18  O5  UNL     1      26.145   2.932  49.928  1.00  0.00    -0.369 OA
HETATM   19  C18 UNL     1      26.166   2.447  51.246  1.00  0.00     0.205 C 
ENDROOT
BRANCH   1  20
HETATM   20  O2  UNL     1      25.101   1.408  53.079  1.00  0.00    -0.356 OA
BRANCH  20  21
HETATM   21  C2  UNL     1      26.134   2.097  53.703  1.00  0.00     0.338 C 
BRANCH  21  22
HETATM   22  O1  UNL     1      26.585   1.431  54.821  1.00  0.00    -0.372 OA
HETATM   23  C1  UNL     1      27.334   0.318  54.448  1.00  0.00     0.204 C 
ENDBRANCH  21  22
ENDBRANCH  20  21
ENDBRANCH   1  20
BRANCH  15  24
HETATM   24  O4  UNL     1      23.774   2.543  48.624  1.00  0.00    -0.357 OA
HETATM   25  C15 UNL     1      22.408   2.185  48.593  1.00  0.00     0.209 C 
ENDBRANCH  15  24
TORSDOF 4
ENDMDL
MODEL 9
REMARK VINA RESULT:      -6.1      2.749      6.240
REMARK  4 active torsions:
REMARK  status: ('A' for Active; 'I' for Inactive)
REMARK    1  A    between atoms: O1_2  and  C2_3 
REMARK    2  A    between atoms: C2_3  and  O2_4 
REMARK    3  A    between atoms: O2_4  and  C3_5 
REMARK    4  A    between atoms: C14_19  and  O4_20 
ROOT
HETATM    1  C3  UNL     1      19.170   1.338  51.026  1.00  0.00     0.170 C 
HETATM    2  C4  UNL     1      20.211   1.511  50.033  1.00  0.00     0.003 C 
HETATM    3  C5  UNL     1      21.012   1.451  49.010  1.00  0.00    -0.024 C 
HETATM    4  C6  UNL     1      22.027   1.554  47.959  1.00  0.00     0.056 C 
HETATM    5  C7  UNL     1      23.099   2.570  48.296  1.00  0.00     0.001 C 
HETATM    6  C8  UNL     1      23.658   3.334  49.141  1.00  0.00     0.134 C 
HETATM    7  O3  UNL     1      24.378   4.259  50.061  1.00  0.00    -0.326 OA
HETATM    8  C9  UNL     1      23.256   4.975  50.730  1.00  0.00     0.206 A 
HETATM    9  N1  UNL     1      23.612   6.009  49.990  1.00  0.00    -0.240 NA
HETATM   10  C10 UNL     1      22.948   7.223  49.968  1.00  0.00     0.225 A 
HETATM   11  N2  UNL     1      22.066   6.690  50.893  1.00  0.00    -0.265 NA
HETATM   12  C11 UNL     1      22.265   5.494  51.276  1.00  0.00     0.135 A 
HETATM   13  C12 UNL     1      21.109   4.754  51.792  1.00  0.00     0.087 A 
HETATM   14  C13 UNL     1      21.086   3.468  52.266  1.00  0.00     0.134 A 
HETATM   15  C14 UNL     1      22.143   2.607  52.364  1.00  0.00     0.079 A 
HETATM   16  C16 UNL     1      23.272   3.209  51.902  1.00  0.00     0.029 A 
HETATM   17  C17 UNL     1      22.443   4.253  51.697  1.00  0.00     0.095 A 
HETATM   18  O5  UNL     1      19.851   3.009  52.668  1.00  0.00    -0.369 OA
HETATM   19  C18 UNL     1      18.840   2.547  51.809  1.00  0.00     0.205 C 
ENDROOT
BRANCH   1  20
HETATM   20  O2  UNL     1      17.994   0.948  50.293  1.00  0.00    -0.356 OA
BRANCH  20  21
HETATM   21  C2  UNL     1      17.534  -0.275  50.769  1.00  0.00     0.338 C 
BRANCH  21  22
HETATM   22  O1  UNL     1      18.191  -0.651  51.919  1.00  0.00    -0.372 OA
HETATM   23  C1  UNL     1      17.310  -1.283  52.792  1.00  0.00     0.204 C 
ENDBRANCH  21  22
ENDBRANCH  20  21
ENDBRANCH   1  20
BRANCH  15  24
HETATM   24  O4  UNL     1      22.008   1.342  52.868  1.00  0.00    -0.357 OA
HETATM   25  C15 UNL     1      22.963   0.312  52.725  1.00  0.00     0.209 C 
ENDBRANCH  15  24
TORSDOF 4
ENDMDL
