MODEL 1
REMARK VINA RESULT:      -6.2      0.000      0.000
REMARK  8 active torsions:
REMARK  status: ('A' for Active; 'I' for Inactive)
REMARK    1  A    between atoms: O1_2  and  C2_3 
REMARK    2  A    between atoms: C3_4  and  C4_5 
REMARK    3  A    between atoms: C5_6  and  C6_7 
REMARK    4  A    between atoms: C6_7  and  O2_8 
REMARK    5  A    between atoms: C9_13  and  N3_14 
REMARK    6  A    between atoms: C11_16  and  O3_17 
REMARK    7  A    between atoms: C13_19  and  O4_20 
REMARK    8  A    between atoms: C15_22  and  O5_23 
ROOT
HETATM    1  C4  UNL     1      24.041   0.785  52.616  1.00  0.00     0.039 A 
HETATM    2  C5  UNL     1      24.521  -0.155  53.461  1.00  0.00     0.073 A 
HETATM    3  N1  UNL     1      23.592  -0.710  54.304  1.00  0.00    -0.243 NA
HETATM    4  C8  UNL     1      22.310  -0.305  54.241  1.00  0.00     0.235 A 
HETATM    5  N2  UNL     1      21.906   0.635  53.371  1.00  0.00    -0.223 NA
HETATM    6  C9  UNL     1      22.753   1.228  52.513  1.00  0.00     0.148 A 
ENDROOT
BRANCH   6   7
HETATM    7  N3  UNL     1      22.398   2.230  51.570  1.00  0.00    -0.305 N 
HETATM    8  C10 UNL     1      22.747   3.522  52.077  1.00  0.00     0.134 A 
HETATM    9  C11 UNL     1      22.503   4.629  51.352  1.00  0.00     0.097 A 
HETATM   10  C13 UNL     1      21.871   4.582  50.017  1.00  0.00     0.237 A 
HETATM   11  C15 UNL     1      21.558   3.203  49.603  1.00  0.00     0.103 A 
HETATM   12  C17 UNL     1      21.788   2.105  50.294  1.00  0.00     0.046 A 
HETATM   13  C18 UNL     1      21.489   0.724  49.910  1.00  0.00     0.071 C 
BRANCH   9  14
HETATM   14  O3  UNL     1      22.788   5.950  51.718  1.00  0.00    -0.356 OA
HETATM   15  C12 UNL     1      23.971   6.568  51.209  1.00  0.00     0.209 C 
ENDBRANCH   9  14
BRANCH  10  16
HETATM   16  O4  UNL     1      20.724   5.384  49.949  1.00  0.00    -0.377 OA
HETATM   17  C14 UNL     1      20.876   6.383  48.976  1.00  0.00     0.203 C 
ENDBRANCH  10  16
BRANCH  11  18
HETATM   18  O5  UNL     1      20.959   3.019  48.362  1.00  0.00    -0.355 OA
HETATM   19  C16 UNL     1      21.832   3.209  47.237  1.00  0.00     0.209 C 
ENDBRANCH  11  18
ENDBRANCH   6   7
BRANCH   1  20
HETATM   20  C3  UNL     1      25.019   1.432  51.805  1.00  0.00     0.041 C 
HETATM   21  C2  UNL     1      26.050   2.209  51.665  1.00  0.00     0.135 C 
BRANCH  21  22
HETATM   22  O1  UNL     1      26.987   2.829  50.883  1.00  0.00    -0.368 OA
HETATM   23  C1  UNL     1      26.681   3.623  49.730  1.00  0.00     0.208 C 
ENDBRANCH  21  22
ENDBRANCH   1  20
BRANCH   2  24
HETATM   24  C6  UNL     1      25.815  -0.818  53.671  1.00  0.00     0.227 C 
BRANCH  24  25
HETATM   25  O2  UNL     1      26.403  -0.496  54.837  1.00  0.00    -0.390 OA
HETATM   26  C7  UNL     1      27.546   0.234  54.790  1.00  0.00     0.201 C 
ENDBRANCH  24  25
ENDBRANCH   2  24
TORSDOF 8
ENDMDL
MODEL 2
REMARK VINA RESULT:      -6.1      1.079      2.678
REMARK  8 active torsions:
REMARK  status: ('A' for Active; 'I' for Inactive)
REMARK    1  A    between atoms: O1_2  and  C2_3 
REMARK    2  A    between atoms: C3_4  and  C4_5 
REMARK    3  A    between atoms: C5_6  and  C6_7 
REMARK    4  A    between atoms: C6_7  and  O2_8 
REMARK    5  A    between atoms: C9_13  and  N3_14 
REMARK    6  A    between atoms: C11_16  and  O3_17 
REMARK    7  A    between atoms: C13_19  and  O4_20 
REMARK    8  A    between atoms: C15_22  and  O5_23 
ROOT
HETATM    1  C4  UNL     1      24.228   1.084  52.292  1.00  0.00     0.039 A 
HETATM    2  C5  UNL     1      24.604   0.062  53.092  1.00  0.00     0.073 A 
HETATM    3  N1  UNL     1      23.620  -0.430  53.911  1.00  0.00    -0.243 NA
HETATM    4  C8  UNL     1      22.388   0.110  53.869  1.00  0.00     0.235 A 
HETATM    5  N2  UNL     1      22.087   1.126  53.044  1.00  0.00    -0.223 NA
HETATM    6  C9  UNL     1      22.994   1.664  52.212  1.00  0.00     0.148 A 
ENDROOT
BRANCH   6   7
HETATM    7  N3  UNL     1      22.750   2.740  51.316  1.00  0.00    -0.305 N 
HETATM    8  C10 UNL     1      22.285   2.234  50.061  1.00  0.00     0.134 A 
HETATM    9  C11 UNL     1      21.989   3.074  49.053  1.00  0.00     0.097 A 
HETATM   10  C13 UNL     1      22.123   4.541  49.175  1.00  0.00     0.237 A 
HETATM   11  C15 UNL     1      22.607   4.942  50.506  1.00  0.00     0.103 A 
HETATM   12  C17 UNL     1      22.903   4.139  51.508  1.00  0.00     0.046 A 
HETATM   13  C18 UNL     1      23.386   4.507  52.841  1.00  0.00     0.071 C 
BRANCH   9  14
HETATM   14  O3  UNL     1      21.527   2.724  47.778  1.00  0.00    -0.356 OA
HETATM   15  C12 UNL     1      20.142   2.893  47.474  1.00  0.00     0.209 C 
ENDBRANCH   9  14
BRANCH  10  16
HETATM   16  O4  UNL     1      22.943   5.079  48.174  1.00  0.00    -0.377 OA
HETATM   17  C14 UNL     1      22.223   5.980  47.376  1.00  0.00     0.203 C 
ENDBRANCH  10  16
BRANCH  11  18
HETATM   18  O5  UNL     1      22.777   6.300  50.753  1.00  0.00    -0.355 OA
HETATM   19  C16 UNL     1      21.557   7.056  50.824  1.00  0.00     0.209 C 
ENDBRANCH  11  18
ENDBRANCH   6   7
BRANCH   1  20
HETATM   20  C3  UNL     1      25.271   1.661  51.509  1.00  0.00     0.041 C 
HETATM   21  C2  UNL     1      26.123   2.611  51.268  1.00  0.00     0.135 C 
BRANCH  21  22
HETATM   22  O1  UNL     1      27.124   3.162  50.515  1.00  0.00    -0.368 OA
HETATM   23  C1  UNL     1      26.908   3.995  49.369  1.00  0.00     0.208 C 
ENDBRANCH  21  22
ENDBRANCH   1  20
BRANCH   2  24
HETATM   24  C6  UNL     1      25.821  -0.743  53.269  1.00  0.00     0.227 C 
BRANCH  24  25
HETATM   25  O2  UNL     1      26.372  -0.625  54.490  1.00  0.00    -0.390 OA
HETATM   26  C7  UNL     1      27.386   0.263  54.643  1.00  0.00     0.201 C 
ENDBRANCH  24  25
ENDBRANCH   2  24
TORSDOF 8
ENDMDL
MODEL 3
REMARK VINA RESULT:      -5.9      2.514      4.378
REMARK  8 active torsions:
REMARK  status: ('A' for Active; 'I' for Inactive)
REMARK    1  A    between atoms: O1_2  and  C2_3 
REMARK    2  A    between atoms: C3_4  and  C4_5 
REMARK    3  A    between atoms: C5_6  and  C6_7 
REMARK    4  A    between atoms: C6_7  and  O2_8 
REMARK    5  A    between atoms: C9_13  and  N3_14 
REMARK    6  A    between atoms: C11_16  and  O3_17 
REMARK    7  A    between atoms: C13_19  and  O4_20 
REMARK    8  A    between atoms: C15_22  and  O5_23 
ROOT
HETATM    1  C4  UNL     1      24.216   1.364  53.063  1.00  0.00     0.039 A 
HETATM    2  C5  UNL     1      25.511   1.486  53.429  1.00  0.00     0.073 A 
HETATM    3  N1  UNL     1      26.143   0.308  53.740  1.00  0.00    -0.243 NA
HETATM    4  C8  UNL     1      25.464  -0.851  53.661  1.00  0.00     0.235 A 
HETATM    5  N2  UNL     1      24.175  -0.894  53.286  1.00  0.00    -0.223 NA
HETATM    6  C9  UNL     1      23.486   0.214  52.967  1.00  0.00     0.148 A 
ENDROOT
BRANCH   6   7
HETATM    7  N3  UNL     1      22.123   0.246  52.566  1.00  0.00    -0.305 N 
HETATM    8  C10 UNL     1      22.030   0.591  51.180  1.00  0.00     0.134 A 
HETATM    9  C11 UNL     1      20.830   0.683  50.578  1.00  0.00     0.097 A 
HETATM   10  C13 UNL     1      19.560   0.440  51.294  1.00  0.00     0.237 A 
HETATM   11  C15 UNL     1      19.781   0.094  52.709  1.00  0.00     0.103 A 
HETATM   12  C17 UNL     1      20.945  -0.002  53.320  1.00  0.00     0.046 A 
HETATM   13  C18 UNL     1      21.196  -0.344  54.721  1.00  0.00     0.071 C 
BRANCH   9  14
HETATM   14  O3  UNL     1      20.588   1.009  49.238  1.00  0.00    -0.356 OA
HETATM   15  C12 UNL     1      21.680   1.433  48.422  1.00  0.00     0.209 C 
ENDBRANCH   9  14
BRANCH  10  16
HETATM   16  O4  UNL     1      18.682   1.526  51.189  1.00  0.00    -0.377 OA
HETATM   17  C14 UNL     1      17.505   1.148  50.524  1.00  0.00     0.203 C 
ENDBRANCH  10  16
BRANCH  11  18
HETATM   18  O5  UNL     1      18.664  -0.160  53.497  1.00  0.00    -0.355 OA
HETATM   19  C16 UNL     1      17.990  -1.394  53.206  1.00  0.00     0.209 C 
ENDBRANCH  11  18
ENDBRANCH   6   7
BRANCH   1  20
HETATM   20  C3  UNL     1      23.530   2.592  52.832  1.00  0.00     0.041 C 
HETATM   21  C2  UNL     1      23.525   3.862  52.559  1.00  0.00     0.135 C 
BRANCH  21  22
HETATM   22  O1  UNL     1      22.863   5.039  52.338  1.00  0.00    -0.368 OA
HETATM   23  C1  UNL     1      21.757   5.187  51.439  1.00  0.00     0.208 C 
ENDBRANCH  21  22
ENDBRANCH   1  20
BRANCH   2  24
HETATM   24  C6  UNL     1      26.482   2.586  53.515  1.00  0.00     0.227 C 
BRANCH  24  25
HETATM   25  O2  UNL     1      27.570   2.289  54.247  1.00  0.00    -0.390 OA
HETATM   26  C7  UNL     1      28.786   2.442  53.664  1.00  0.00     0.201 C 
ENDBRANCH  24  25
ENDBRANCH   2  24
TORSDOF 8
ENDMDL
MODEL 4
REMARK VINA RESULT:      -5.7      2.338      4.575
REMARK  8 active torsions:
REMARK  status: ('A' for Active; 'I' for Inactive)
REMARK    1  A    between atoms: O1_2  and  C2_3 
REMARK    2  A    between atoms: C3_4  and  C4_5 
REMARK    3  A    between atoms: C5_6  and  C6_7 
REMARK    4  A    between atoms: C6_7  and  O2_8 
REMARK    5  A    between atoms: C9_13  and  N3_14 
REMARK    6  A    between atoms: C11_16  and  O3_17 
REMARK    7  A    between atoms: C13_19  and  O4_20 
REMARK    8  A    between atoms: C15_22  and  O5_23 
ROOT
HETATM    1  C4  UNL     1      22.303   1.345  52.724  1.00  0.00     0.039 A 
HETATM    2  C5  UNL     1      22.289   0.298  53.578  1.00  0.00     0.073 A 
HETATM    3  N1  UNL     1      23.504  -0.305  53.782  1.00  0.00    -0.243 NA
HETATM    4  C8  UNL     1      24.594   0.164  53.147  1.00  0.00     0.235 A 
HETATM    5  N2  UNL     1      24.531   1.214  52.311  1.00  0.00    -0.223 NA
HETATM    6  C9  UNL     1      23.379   1.858  52.058  1.00  0.00     0.148 A 
ENDROOT
BRANCH   6   7
HETATM    7  N3  UNL     1      23.236   2.970  51.185  1.00  0.00    -0.305 N 
HETATM    8  C10 UNL     1      22.976   2.516  49.854  1.00  0.00     0.134 A 
HETATM    9  C11 UNL     1      22.805   3.398  48.852  1.00  0.00     0.097 A 
HETATM   10  C13 UNL     1      22.875   4.860  49.058  1.00  0.00     0.237 A 
HETATM   11  C15 UNL     1      23.148   5.206  50.464  1.00  0.00     0.103 A 
HETATM   12  C17 UNL     1      23.318   4.361  51.461  1.00  0.00     0.046 A 
HETATM   13  C18 UNL     1      23.589   4.675  52.866  1.00  0.00     0.071 C 
BRANCH   9  14
HETATM   14  O3  UNL     1      22.545   3.100  47.508  1.00  0.00    -0.356 OA
HETATM   15  C12 UNL     1      21.215   3.250  47.012  1.00  0.00     0.209 C 
ENDBRANCH   9  14
BRANCH  10  16
HETATM   16  O4  UNL     1      23.816   5.464  48.215  1.00  0.00    -0.377 OA
HETATM   17  C14 UNL     1      23.202   6.423  47.395  1.00  0.00     0.203 C 
ENDBRANCH  10  16
BRANCH  11  18
HETATM   18  O5  UNL     1      23.239   6.554  50.794  1.00  0.00    -0.355 OA
HETATM   19  C16 UNL     1      21.995   7.271  50.746  1.00  0.00     0.209 C 
ENDBRANCH  11  18
ENDBRANCH   6   7
BRANCH   1  20
HETATM   20  C3  UNL     1      21.028   1.914  52.435  1.00  0.00     0.041 C 
HETATM   21  C2  UNL     1      20.132   2.843  52.588  1.00  0.00     0.135 C 
BRANCH  21  22
HETATM   22  O1  UNL     1      18.908   3.386  52.307  1.00  0.00    -0.368 OA
HETATM   23  C1  UNL     1      18.243   3.270  51.044  1.00  0.00     0.208 C 
ENDBRANCH  21  22
ENDBRANCH   1  20
BRANCH   2  24
HETATM   24  C6  UNL     1      21.286  -0.345  54.439  1.00  0.00     0.227 C 
BRANCH  24  25
HETATM   25  O2  UNL     1      20.574  -1.300  53.815  1.00  0.00    -0.390 OA
HETATM   26  C7  UNL     1      19.283  -1.024  53.500  1.00  0.00     0.201 C 
ENDBRANCH  24  25
ENDBRANCH   2  24
TORSDOF 8
ENDMDL
MODEL 5
REMARK VINA RESULT:      -5.6      2.969      6.557
REMARK  8 active torsions:
REMARK  status: ('A' for Active; 'I' for Inactive)
REMARK    1  A    between atoms: O1_2  and  C2_3 
REMARK    2  A    between atoms: C3_4  and  C4_5 
REMARK    3  A    between atoms: C5_6  and  C6_7 
REMARK    4  A    between atoms: C6_7  and  O2_8 
REMARK    5  A    between atoms: C9_13  and  N3_14 
REMARK    6  A    between atoms: C11_16  and  O3_17 
REMARK    7  A    between atoms: C13_19  and  O4_20 
REMARK    8  A    between atoms: C15_22  and  O5_23 
ROOT
HETATM    1  C4  UNL     1      25.658   5.478  49.752  1.00  0.00     0.039 A 
HETATM    2  C5  UNL     1      26.341   6.449  49.108  1.00  0.00     0.073 A 
HETATM    3  N1  UNL     1      27.501   6.042  48.499  1.00  0.00    -0.243 NA
HETATM    4  C8  UNL     1      27.873   4.750  48.574  1.00  0.00     0.235 A 
HETATM    5  N2  UNL     1      27.139   3.838  49.233  1.00  0.00    -0.223 NA
HETATM    6  C9  UNL     1      25.992   4.158  49.856  1.00  0.00     0.148 A 
ENDROOT
BRANCH   6   7
HETATM    7  N3  UNL     1      25.168   3.249  50.573  1.00  0.00    -0.305 N 
HETATM    8  C10 UNL     1      25.752   2.963  51.848  1.00  0.00     0.134 A 
HETATM    9  C11 UNL     1      25.144   2.121  52.704  1.00  0.00     0.097 A 
HETATM   10  C13 UNL     1      23.863   1.453  52.388  1.00  0.00     0.237 A 
HETATM   11  C15 UNL     1      23.362   1.824  51.054  1.00  0.00     0.103 A 
HETATM   12  C17 UNL     1      23.938   2.645  50.200  1.00  0.00     0.046 A 
HETATM   13  C18 UNL     1      23.464   3.033  48.869  1.00  0.00     0.071 C 
BRANCH   9  14
HETATM   14  O3  UNL     1      25.595   1.749  53.977  1.00  0.00    -0.356 OA
HETATM   15  C12 UNL     1      26.848   1.076  54.096  1.00  0.00     0.209 C 
ENDBRANCH   9  14
BRANCH  10  16
HETATM   16  O4  UNL     1      23.955   0.060  52.506  1.00  0.00    -0.377 OA
HETATM   17  C14 UNL     1      23.089  -0.410  53.505  1.00  0.00     0.203 C 
ENDBRANCH  10  16
BRANCH  11  18
HETATM   18  O5  UNL     1      22.161   1.263  50.634  1.00  0.00    -0.355 OA
HETATM   19  C16 UNL     1      20.996   1.751  51.318  1.00  0.00     0.209 C 
ENDBRANCH  11  18
ENDBRANCH   6   7
BRANCH   1  20
HETATM   20  C3  UNL     1      24.504   5.915  50.466  1.00  0.00     0.041 C 
HETATM   21  C2  UNL     1      23.301   6.405  50.499  1.00  0.00     0.135 C 
BRANCH  21  22
HETATM   22  O1  UNL     1      22.195   6.823  51.188  1.00  0.00    -0.368 OA
HETATM   23  C1  UNL     1      21.124   7.580  50.612  1.00  0.00     0.208 C 
ENDBRANCH  21  22
ENDBRANCH   1  20
BRANCH   2  24
HETATM   24  C6  UNL     1      26.121   7.872  48.813  1.00  0.00     0.227 C 
BRANCH  24  25
HETATM   25  O2  UNL     1      27.219   8.632  48.975  1.00  0.00    -0.390 OA
HETATM   26  C7  UNL     1      27.383   9.262  50.165  1.00  0.00     0.201 C 
ENDBRANCH  24  25
ENDBRANCH   2  24
TORSDOF 8
ENDMDL
MODEL 6
REMARK VINA RESULT:      -5.6      2.086      5.755
REMARK  8 active torsions:
REMARK  status: ('A' for Active; 'I' for Inactive)
REMARK    1  A    between atoms: O1_2  and  C2_3 
REMARK    2  A    between atoms: C3_4  and  C4_5 
REMARK    3  A    between atoms: C5_6  and  C6_7 
REMARK    4  A    between atoms: C6_7  and  O2_8 
REMARK    5  A    between atoms: C9_13  and  N3_14 
REMARK    6  A    between atoms: C11_16  and  O3_17 
REMARK    7  A    between atoms: C13_19  and  O4_20 
REMARK    8  A    between atoms: C15_22  and  O5_23 
ROOT
HETATM    1  C4  UNL     1      21.399   0.555  51.960  1.00  0.00     0.039 A 
HETATM    2  C5  UNL     1      20.160   0.112  52.269  1.00  0.00     0.073 A 
HETATM    3  N1  UNL     1      19.928  -0.086  53.606  1.00  0.00    -0.243 NA
HETATM    4  C8  UNL     1      20.906   0.166  54.495  1.00  0.00     0.235 A 
HETATM    5  N2  UNL     1      22.116   0.607  54.113  1.00  0.00    -0.223 NA
HETATM    6  C9  UNL     1      22.422   0.825  52.823  1.00  0.00     0.148 A 
ENDROOT
BRANCH   6   7
HETATM    7  N3  UNL     1      23.678   1.287  52.345  1.00  0.00    -0.305 N 
HETATM    8  C10 UNL     1      24.621   0.211  52.332  1.00  0.00     0.134 A 
HETATM    9  C11 UNL     1      25.885   0.415  51.916  1.00  0.00     0.097 A 
HETATM   10  C13 UNL     1      26.368   1.735  51.458  1.00  0.00     0.237 A 
HETATM   11  C15 UNL     1      25.312   2.760  51.516  1.00  0.00     0.103 A 
HETATM   12  C17 UNL     1      24.070   2.584  51.919  1.00  0.00     0.046 A 
HETATM   13  C18 UNL     1      23.000   3.582  51.988  1.00  0.00     0.071 C 
BRANCH   9  14
HETATM   14  O3  UNL     1      26.909  -0.538  51.849  1.00  0.00    -0.356 OA
HETATM   15  C12 UNL     1      26.962  -1.566  52.838  1.00  0.00     0.209 C 
ENDBRANCH   9  14
BRANCH  10  16
HETATM   16  O4  UNL     1      27.498   2.156  52.170  1.00  0.00    -0.377 OA
HETATM   17  C14 UNL     1      27.234   2.179  53.548  1.00  0.00     0.203 C 
ENDBRANCH  10  16
BRANCH  11  18
HETATM   18  O5  UNL     1      25.637   4.049  51.111  1.00  0.00    -0.355 OA
HETATM   19  C16 UNL     1      25.981   4.176  49.722  1.00  0.00     0.209 C 
ENDBRANCH  11  18
ENDBRANCH   6   7
BRANCH   1  20
HETATM   20  C3  UNL     1      21.676   0.671  50.566  1.00  0.00     0.041 C 
HETATM   21  C2  UNL     1      21.664   1.340  49.453  1.00  0.00     0.135 C 
BRANCH  21  22
HETATM   22  O1  UNL     1      21.932   1.448  48.115  1.00  0.00    -0.368 OA
HETATM   23  C1  UNL     1      21.788   2.655  47.357  1.00  0.00     0.208 C 
ENDBRANCH  21  22
ENDBRANCH   1  20
BRANCH   2  24
HETATM   24  C6  UNL     1      18.921  -0.154  51.524  1.00  0.00     0.227 C 
BRANCH  24  25
HETATM   25  O2  UNL     1      18.083   0.896  51.480  1.00  0.00    -0.390 OA
HETATM   26  C7  UNL     1      16.756   0.654  51.627  1.00  0.00     0.201 C 
ENDBRANCH  24  25
ENDBRANCH   2  24
TORSDOF 8
ENDMDL
MODEL 7
REMARK VINA RESULT:      -5.5      2.360      4.409
REMARK  8 active torsions:
REMARK  status: ('A' for Active; 'I' for Inactive)
REMARK    1  A    between atoms: O1_2  and  C2_3 
REMARK    2  A    between atoms: C3_4  and  C4_5 
REMARK    3  A    between atoms: C5_6  and  C6_7 
REMARK    4  A    between atoms: C6_7  and  O2_8 
REMARK    5  A    between atoms: C9_13  and  N3_14 
REMARK    6  A    between atoms: C11_16  and  O3_17 
REMARK    7  A    between atoms: C13_19  and  O4_20 
REMARK    8  A    between atoms: C15_22  and  O5_23 
ROOT
HETATM    1  C4  UNL     1      23.345   2.205  51.252  1.00  0.00     0.039 A 
HETATM    2  C5  UNL     1      22.939   1.081  51.882  1.00  0.00     0.073 A 
HETATM    3  N1  UNL     1      23.628   0.773  53.027  1.00  0.00    -0.243 NA
HETATM    4  C8  UNL     1      24.625   1.576  53.439  1.00  0.00     0.235 A 
HETATM    5  N2  UNL     1      24.973   2.682  52.759  1.00  0.00    -0.223 NA
HETATM    6  C9  UNL     1      24.347   3.052  51.629  1.00  0.00     0.148 A 
ENDROOT
BRANCH   6   7
HETATM    7  N3  UNL     1      24.661   4.203  50.857  1.00  0.00    -0.305 N 
HETATM    8  C10 UNL     1      23.779   5.276  51.201  1.00  0.00     0.134 A 
HETATM    9  C11 UNL     1      23.889   6.472  50.593  1.00  0.00     0.097 A 
HETATM   10  C13 UNL     1      24.905   6.746  49.554  1.00  0.00     0.237 A 
HETATM   11  C15 UNL     1      25.751   5.571  49.287  1.00  0.00     0.103 A 
HETATM   12  C17 UNL     1      25.663   4.392  49.869  1.00  0.00     0.046 A 
HETATM   13  C18 UNL     1      26.489   3.207  49.624  1.00  0.00     0.071 C 
BRANCH   9  14
HETATM   14  O3  UNL     1      23.101   7.606  50.826  1.00  0.00    -0.356 OA
HETATM   15  C12 UNL     1      21.680   7.488  50.746  1.00  0.00     0.209 C 
ENDBRANCH   9  14
BRANCH  10  16
HETATM   16  O4  UNL     1      24.328   7.213  48.367  1.00  0.00    -0.377 OA
HETATM   17  C14 UNL     1      23.476   6.244  47.816  1.00  0.00     0.203 C 
ENDBRANCH  10  16
BRANCH  11  18
HETATM   18  O5  UNL     1      26.750   5.696  48.327  1.00  0.00    -0.355 OA
HETATM   19  C16 UNL     1      27.690   6.755  48.571  1.00  0.00     0.209 C 
ENDBRANCH  11  18
ENDBRANCH   6   7
BRANCH   1  20
HETATM   20  C3  UNL     1      22.696   2.478  50.011  1.00  0.00     0.041 C 
HETATM   21  C2  UNL     1      22.585   2.330  48.726  1.00  0.00     0.135 C 
BRANCH  21  22
HETATM   22  O1  UNL     1      21.959   2.593  47.537  1.00  0.00    -0.368 OA
HETATM   23  C1  UNL     1      20.840   3.476  47.392  1.00  0.00     0.208 C 
ENDBRANCH  21  22
ENDBRANCH   1  20
BRANCH   2  24
HETATM   24  C6  UNL     1      21.859   0.102  51.695  1.00  0.00     0.227 C 
BRANCH  24  25
HETATM   25  O2  UNL     1      20.691   0.477  52.244  1.00  0.00    -0.390 OA
HETATM   26  C7  UNL     1      20.140  -0.338  53.179  1.00  0.00     0.201 C 
ENDBRANCH  24  25
ENDBRANCH   2  24
TORSDOF 8
ENDMDL
MODEL 8
REMARK VINA RESULT:      -5.4      2.197      3.644
REMARK  8 active torsions:
REMARK  status: ('A' for Active; 'I' for Inactive)
REMARK    1  A    between atoms: O1_2  and  C2_3 
REMARK    2  A    between atoms: C3_4  and  C4_5 
REMARK    3  A    between atoms: C5_6  and  C6_7 
REMARK    4  A    between atoms: C6_7  and  O2_8 
REMARK    5  A    between atoms: C9_13  and  N3_14 
REMARK    6  A    between atoms: C11_16  and  O3_17 
REMARK    7  A    between atoms: C13_19  and  O4_20 
REMARK    8  A    between atoms: C15_22  and  O5_23 
ROOT
HETATM    1  C4  UNL     1      24.546   2.630  51.305  1.00  0.00     0.039 A 
HETATM    2  C5  UNL     1      25.774   2.208  51.682  1.00  0.00     0.073 A 
HETATM    3  N1  UNL     1      26.793   2.538  50.825  1.00  0.00    -0.243 NA
HETATM    4  C8  UNL     1      26.521   3.236  49.707  1.00  0.00     0.235 A 
HETATM    5  N2  UNL     1      25.272   3.623  49.398  1.00  0.00    -0.223 NA
HETATM    6  C9  UNL     1      24.221   3.339  50.185  1.00  0.00     0.148 A 
ENDROOT
BRANCH   6   7
HETATM    7  N3  UNL     1      22.875   3.711  49.921  1.00  0.00    -0.305 N 
HETATM    8  C10 UNL     1      22.597   4.986  50.511  1.00  0.00     0.134 A 
HETATM    9  C11 UNL     1      21.378   5.542  50.391  1.00  0.00     0.097 A 
HETATM   10  C13 UNL     1      20.272   4.887  49.661  1.00  0.00     0.237 A 
HETATM   11  C15 UNL     1      20.676   3.586  49.101  1.00  0.00     0.103 A 
HETATM   12  C17 UNL     1      21.862   3.021  49.204  1.00  0.00     0.046 A 
HETATM   13  C18 UNL     1      22.292   1.732  48.658  1.00  0.00     0.071 C 
BRANCH   9  14
HETATM   14  O3  UNL     1      20.965   6.775  50.912  1.00  0.00    -0.356 OA
HETATM   15  C12 UNL     1      20.982   7.924  50.064  1.00  0.00     0.209 C 
ENDBRANCH   9  14
BRANCH  10  16
HETATM   16  O4  UNL     1      19.130   4.742  50.458  1.00  0.00    -0.377 OA
HETATM   17  C14 UNL     1      19.369   3.841  51.507  1.00  0.00     0.203 C 
ENDBRANCH  10  16
BRANCH  11  18
HETATM   18  O5  UNL     1      19.725   2.864  48.387  1.00  0.00    -0.355 OA
HETATM   19  C16 UNL     1      19.391   3.414  47.103  1.00  0.00     0.209 C 
ENDBRANCH  11  18
ENDBRANCH   6   7
BRANCH   1  20
HETATM   20  C3  UNL     1      23.473   2.207  52.143  1.00  0.00     0.041 C 
HETATM   21  C2  UNL     1      22.699   1.282  52.625  1.00  0.00     0.135 C 
BRANCH  21  22
HETATM   22  O1  UNL     1      21.668   0.880  53.431  1.00  0.00    -0.368 OA
HETATM   23  C1  UNL     1      20.387   0.453  52.951  1.00  0.00     0.208 C 
ENDBRANCH  21  22
ENDBRANCH   1  20
BRANCH   2  24
HETATM   24  C6  UNL     1      26.338   1.525  52.855  1.00  0.00     0.227 C 
BRANCH  24  25
HETATM   25  O2  UNL     1      26.762   0.276  52.599  1.00  0.00    -0.390 OA
HETATM   26  C7  UNL     1      26.023  -0.755  53.079  1.00  0.00     0.201 C 
ENDBRANCH  24  25
ENDBRANCH   2  24
TORSDOF 8
ENDMDL
MODEL 9
REMARK VINA RESULT:      -5.4      2.828      6.320
REMARK  8 active torsions:
REMARK  status: ('A' for Active; 'I' for Inactive)
REMARK    1  A    between atoms: O1_2  and  C2_3 
REMARK    2  A    between atoms: C3_4  and  C4_5 
REMARK    3  A    between atoms: C5_6  and  C6_7 
REMARK    4  A    between atoms: C6_7  and  O2_8 
REMARK    5  A    between atoms: C9_13  and  N3_14 
REMARK    6  A    between atoms: C11_16  and  O3_17 
REMARK    7  A    between atoms: C13_19  and  O4_20 
REMARK    8  A    between atoms: C15_22  and  O5_23 
ROOT
HETATM    1  C4  UNL     1      25.039   5.242  49.517  1.00  0.00     0.039 A 
HETATM    2  C5  UNL     1      25.950   6.152  49.105  1.00  0.00     0.073 A 
HETATM    3  N1  UNL     1      27.186   5.643  48.798  1.00  0.00    -0.243 NA
HETATM    4  C8  UNL     1      27.409   4.321  48.918  1.00  0.00     0.235 A 
HETATM    5  N2  UNL     1      26.451   3.475  49.333  1.00  0.00    -0.223 NA
HETATM    6  C9  UNL     1      25.216   3.895  49.653  1.00  0.00     0.148 A 
ENDROOT
BRANCH   6   7
HETATM    7  N3  UNL     1      24.157   3.061  50.101  1.00  0.00    -0.305 N 
HETATM    8  C10 UNL     1      23.263   2.782  49.019  1.00  0.00     0.134 A 
HETATM    9  C11 UNL     1      22.179   2.008  49.209  1.00  0.00     0.097 A 
HETATM   10  C13 UNL     1      21.849   1.410  50.521  1.00  0.00     0.237 A 
HETATM   11  C15 UNL     1      22.837   1.766  51.553  1.00  0.00     0.103 A 
HETATM   12  C17 UNL     1      23.905   2.521  51.391  1.00  0.00     0.046 A 
HETATM   13  C18 UNL     1      24.903   2.891  52.396  1.00  0.00     0.071 C 
BRANCH   9  14
HETATM   14  O3  UNL     1      21.224   1.652  48.249  1.00  0.00    -0.356 OA
HETATM   15  C12 UNL     1      20.524   2.686  47.556  1.00  0.00     0.209 C 
ENDBRANCH   9  14
BRANCH  10  16
HETATM   16  O4  UNL     1      20.557   1.751  50.942  1.00  0.00    -0.377 OA
HETATM   17  C14 UNL     1      19.761   0.603  51.072  1.00  0.00     0.203 C 
ENDBRANCH  10  16
BRANCH  11  18
HETATM   18  O5  UNL     1      22.642   1.266  52.836  1.00  0.00    -0.355 OA
HETATM   19  C16 UNL     1      22.884  -0.143  52.977  1.00  0.00     0.209 C 
ENDBRANCH  11  18
ENDBRANCH   6   7
BRANCH   1  20
HETATM   20  C3  UNL     1      23.784   5.778  49.928  1.00  0.00     0.041 C 
HETATM   21  C2  UNL     1      23.028   6.370  50.803  1.00  0.00     0.135 C 
BRANCH  21  22
HETATM   22  O1  UNL     1      21.822   6.885  51.194  1.00  0.00    -0.368 OA
HETATM   23  C1  UNL     1      21.024   7.768  50.397  1.00  0.00     0.208 C 
ENDBRANCH  21  22
ENDBRANCH   1  20
BRANCH   2  24
HETATM   24  C6  UNL     1      25.941   7.593  48.817  1.00  0.00     0.227 C 
BRANCH  24  25
HETATM   25  O2  UNL     1      27.107   8.204  49.089  1.00  0.00    -0.390 OA
HETATM   26  C7  UNL     1      27.111   9.160  50.052  1.00  0.00     0.201 C 
ENDBRANCH  24  25
ENDBRANCH   2  24
TORSDOF 8
ENDMDL
