MODEL 1
REMARK VINA RESULT:      -7.6      0.000      0.000
REMARK  4 active torsions:
REMARK  status: ('A' for Active; 'I' for Inactive)
REMARK    1  A    between atoms: C12_15  and  S1_16 
REMARK    2  A    between atoms: C16_20  and  C17_21 
REMARK    3  A    between atoms: C17_21  and  C18_22 
REMARK    4  A    between atoms: C18_22  and  C19_23 
ROOT
HETATM    1  C1  UNL     1      19.771  -0.218  53.259  1.00  0.00     0.036 C 
HETATM    2  C2  UNL     1      20.734   0.878  53.182  1.00  0.00    -0.023 C 
HETATM    3  C3  UNL     1      21.977   0.449  53.091  1.00  0.00    -0.049 A 
HETATM    4  C4  UNL     1      22.265  -1.043  53.075  1.00  0.00     0.066 A 
HETATM    5  C5  UNL     1      23.721  -0.935  52.974  1.00  0.00    -0.014 A 
HETATM    6  C6  UNL     1      24.316   0.275  52.922  1.00  0.00    -0.048 A 
HETATM    7  C7  UNL     1      23.236   1.243  52.990  1.00  0.00    -0.014 A 
HETATM    8  C8  UNL     1      22.606   2.425  53.014  1.00  0.00     0.189 C 
HETATM    9  O1  UNL     1      23.090   3.752  52.956  1.00  0.00    -0.368 OA
HETATM   10  C9  UNL     1      22.302   4.718  52.238  1.00  0.00     0.279 C 
HETATM   11  C10 UNL     1      23.152   5.139  51.071  1.00  0.00     0.282 C 
HETATM   12  O2  UNL     1      22.641   5.891  50.224  1.00  0.00    -0.263 OA
HETATM   13  O3  UNL     1      24.444   4.770  50.846  1.00  0.00    -0.319 OA
HETATM   14  C11 UNL     1      25.281   5.088  49.790  1.00  0.00     0.193 C 
HETATM   15  C12 UNL     1      26.660   4.545  49.983  1.00  0.00     0.068 C 
HETATM   16  C13 UNL     1      26.705   3.082  50.195  1.00  0.00     0.017 C 
HETATM   17  C14 UNL     1      25.925   2.584  51.392  1.00  0.00     0.002 C 
HETATM   18  C15 UNL     1      26.298   1.155  51.630  1.00  0.00     0.009 C 
HETATM   19  C16 UNL     1      25.767   0.471  52.828  1.00  0.00     0.019 C 
ENDROOT
BRANCH  19  20
HETATM   20  C17 UNL     1      26.185   1.100  54.139  1.00  0.00     0.009 C 
BRANCH  20  21
HETATM   21  C18 UNL     1      27.235   0.322  54.885  1.00  0.00     0.000 C 
BRANCH  21  22
HETATM   22  C19 UNL     1      28.620   0.762  54.477  1.00  0.00    -0.005 C 
HETATM   23  C20 UNL     1      29.349  -0.379  53.785  1.00  0.00     0.005 C 
ENDBRANCH  21  22
ENDBRANCH  20  21
ENDBRANCH  19  20
BRANCH  15  24
HETATM   24  S1  UNL     1      27.604   5.013  48.476  1.00  0.00    -0.175 SA
HETATM   25  H14 UNL     1      27.769   6.392  48.374  1.00  0.00     0.102 HD
ENDBRANCH  15  24
TORSDOF 4
ENDMDL
MODEL 2
REMARK VINA RESULT:      -7.4      2.379      5.237
REMARK  4 active torsions:
REMARK  status: ('A' for Active; 'I' for Inactive)
REMARK    1  A    between atoms: C12_15  and  S1_16 
REMARK    2  A    between atoms: C16_20  and  C17_21 
REMARK    3  A    between atoms: C17_21  and  C18_22 
REMARK    4  A    between atoms: C18_22  and  C19_23 
ROOT
HETATM    1  C1  UNL     1      27.893  -0.062  53.590  1.00  0.00     0.036 C 
HETATM    2  C2  UNL     1      27.167   0.701  52.576  1.00  0.00    -0.023 C 
HETATM    3  C3  UNL     1      25.864   0.687  52.775  1.00  0.00    -0.049 A 
HETATM    4  C4  UNL     1      25.286  -0.069  53.960  1.00  0.00     0.066 A 
HETATM    5  C5  UNL     1      23.880   0.238  53.690  1.00  0.00    -0.014 A 
HETATM    6  C6  UNL     1      23.538   0.998  52.630  1.00  0.00    -0.048 A 
HETATM    7  C7  UNL     1      24.788   1.339  51.975  1.00  0.00    -0.014 A 
HETATM    8  C8  UNL     1      25.640   1.883  51.095  1.00  0.00     0.189 C 
HETATM    9  O1  UNL     1      25.429   2.699  49.960  1.00  0.00    -0.368 OA
HETATM   10  C9  UNL     1      26.396   3.729  49.691  1.00  0.00     0.279 C 
HETATM   11  C10 UNL     1      25.652   5.027  49.847  1.00  0.00     0.282 C 
HETATM   12  O2  UNL     1      26.306   6.081  49.779  1.00  0.00    -0.263 OA
HETATM   13  O3  UNL     1      24.314   5.163  50.062  1.00  0.00    -0.319 OA
HETATM   14  C11 UNL     1      23.561   6.311  50.245  1.00  0.00     0.193 C 
HETATM   15  C12 UNL     1      22.101   6.013  50.360  1.00  0.00     0.068 C 
HETATM   16  C13 UNL     1      21.766   5.055  51.435  1.00  0.00     0.017 C 
HETATM   17  C14 UNL     1      22.426   3.699  51.314  1.00  0.00     0.002 C 
HETATM   18  C15 UNL     1      21.776   2.775  52.294  1.00  0.00     0.009 C 
HETATM   19  C16 UNL     1      22.154   1.346  52.283  1.00  0.00     0.019 C 
ENDROOT
BRANCH  19  20
HETATM   20  C17 UNL     1      21.863   0.636  50.980  1.00  0.00     0.009 C 
BRANCH  20  21
HETATM   21  C18 UNL     1      20.424   0.717  50.546  1.00  0.00     0.000 C 
BRANCH  21  22
HETATM   22  C19 UNL     1      20.307   1.403  49.207  1.00  0.00    -0.005 C 
HETATM   23  C20 UNL     1      21.635   1.344  48.470  1.00  0.00     0.005 C 
ENDBRANCH  21  22
ENDBRANCH  20  21
ENDBRANCH  19  20
BRANCH  15  24
HETATM   24  S1  UNL     1      21.276   7.631  50.649  1.00  0.00    -0.175 SA
HETATM   25  H14 UNL     1      21.898   8.663  49.951  1.00  0.00     0.102 HD
ENDBRANCH  15  24
TORSDOF 4
ENDMDL
MODEL 3
REMARK VINA RESULT:      -7.1      3.428      6.408
REMARK  4 active torsions:
REMARK  status: ('A' for Active; 'I' for Inactive)
REMARK    1  A    between atoms: C12_15  and  S1_16 
REMARK    2  A    between atoms: C16_20  and  C17_21 
REMARK    3  A    between atoms: C17_21  and  C18_22 
REMARK    4  A    between atoms: C18_22  and  C19_23 
ROOT
HETATM    1  C1  UNL     1      27.307  -1.363  53.097  1.00  0.00     0.036 C 
HETATM    2  C2  UNL     1      25.973  -0.855  53.412  1.00  0.00    -0.023 C 
HETATM    3  C3  UNL     1      25.633   0.168  52.653  1.00  0.00    -0.049 A 
HETATM    4  C4  UNL     1      26.597   0.681  51.597  1.00  0.00     0.066 A 
HETATM    5  C5  UNL     1      25.745   1.763  51.098  1.00  0.00    -0.014 A 
HETATM    6  C6  UNL     1      24.522   1.969  51.629  1.00  0.00    -0.048 A 
HETATM    7  C7  UNL     1      24.368   0.958  52.659  1.00  0.00    -0.014 A 
HETATM    8  C8  UNL     1      23.810   0.237  53.640  1.00  0.00     0.189 C 
HETATM    9  O1  UNL     1      22.552   0.329  54.279  1.00  0.00    -0.368 OA
HETATM   10  C9  UNL     1      21.908  -0.899  54.662  1.00  0.00     0.279 C 
HETATM   11  C10 UNL     1      20.656  -0.971  53.832  1.00  0.00     0.282 C 
HETATM   12  O2  UNL     1      19.978  -2.009  53.896  1.00  0.00    -0.263 OA
HETATM   13  O3  UNL     1      20.188   0.002  53.002  1.00  0.00    -0.319 OA
HETATM   14  C11 UNL     1      19.069   0.004  52.187  1.00  0.00     0.193 C 
HETATM   15  C12 UNL     1      18.871   1.320  51.505  1.00  0.00     0.068 C 
HETATM   16  C13 UNL     1      20.035   1.764  50.708  1.00  0.00     0.017 C 
HETATM   17  C14 UNL     1      21.322   1.924  51.487  1.00  0.00     0.002 C 
HETATM   18  C15 UNL     1      22.308   2.638  50.618  1.00  0.00     0.009 C 
HETATM   19  C16 UNL     1      23.609   3.034  51.195  1.00  0.00     0.019 C 
ENDROOT
BRANCH  19  20
HETATM   20  C17 UNL     1      23.507   3.992  52.360  1.00  0.00     0.009 C 
BRANCH  20  21
HETATM   21  C18 UNL     1      23.059   5.377  51.978  1.00  0.00     0.000 C 
BRANCH  21  22
HETATM   22  C19 UNL     1      24.114   6.072  51.151  1.00  0.00    -0.005 C 
HETATM   23  C20 UNL     1      23.666   7.485  50.813  1.00  0.00     0.005 C 
ENDBRANCH  21  22
ENDBRANCH  20  21
ENDBRANCH  19  20
BRANCH  15  24
HETATM   24  S1  UNL     1      17.389   1.119  50.437  1.00  0.00    -0.175 SA
HETATM   25  H14 UNL     1      16.765   2.338  50.180  1.00  0.00     0.102 HD
ENDBRANCH  15  24
TORSDOF 4
ENDMDL
MODEL 4
REMARK VINA RESULT:      -6.9      3.048      5.844
REMARK  4 active torsions:
REMARK  status: ('A' for Active; 'I' for Inactive)
REMARK    1  A    between atoms: C12_15  and  S1_16 
REMARK    2  A    between atoms: C16_20  and  C17_21 
REMARK    3  A    between atoms: C17_21  and  C18_22 
REMARK    4  A    between atoms: C18_22  and  C19_23 
ROOT
HETATM    1  C1  UNL     1      26.465  -0.533  53.314  1.00  0.00     0.036 C 
HETATM    2  C2  UNL     1      25.242   0.227  53.062  1.00  0.00    -0.023 C 
HETATM    3  C3  UNL     1      25.428   1.208  52.202  1.00  0.00    -0.049 A 
HETATM    4  C4  UNL     1      26.804   1.435  51.599  1.00  0.00     0.066 A 
HETATM    5  C5  UNL     1      26.442   2.590  50.774  1.00  0.00    -0.014 A 
HETATM    6  C6  UNL     1      25.176   3.057  50.772  1.00  0.00    -0.048 A 
HETATM    7  C7  UNL     1      24.442   2.200  51.684  1.00  0.00    -0.014 A 
HETATM    8  C8  UNL     1      23.419   1.691  52.385  1.00  0.00     0.189 C 
HETATM    9  O1  UNL     1      22.058   2.064  52.471  1.00  0.00    -0.368 OA
HETATM   10  C9  UNL     1      21.086   1.011  52.603  1.00  0.00     0.279 C 
HETATM   11  C10 UNL     1      20.261   1.070  51.348  1.00  0.00     0.282 C 
HETATM   12  O2  UNL     1      19.418   0.176  51.168  1.00  0.00    -0.263 OA
HETATM   13  O3  UNL     1      20.349   2.017  50.373  1.00  0.00    -0.319 OA
HETATM   14  C11 UNL     1      19.652   2.126  49.182  1.00  0.00     0.193 C 
HETATM   15  C12 UNL     1      19.996   3.378  48.442  1.00  0.00     0.068 C 
HETATM   16  C13 UNL     1      21.439   3.530  48.158  1.00  0.00     0.017 C 
HETATM   17  C14 UNL     1      22.334   3.548  49.377  1.00  0.00     0.002 C 
HETATM   18  C15 UNL     1      23.698   3.987  48.949  1.00  0.00     0.009 C 
HETATM   19  C16 UNL     1      24.730   4.212  49.982  1.00  0.00     0.019 C 
ENDROOT
BRANCH  19  20
HETATM   20  C17 UNL     1      24.382   5.289  50.985  1.00  0.00     0.009 C 
BRANCH  20  21
HETATM   21  C18 UNL     1      24.879   6.659  50.610  1.00  0.00     0.000 C 
BRANCH  21  22
HETATM   22  C19 UNL     1      23.819   7.703  50.869  1.00  0.00    -0.005 C 
HETATM   23  C20 UNL     1      22.436   7.102  50.680  1.00  0.00     0.005 C 
ENDBRANCH  21  22
ENDBRANCH  20  21
ENDBRANCH  19  20
BRANCH  15  24
HETATM   24  S1  UNL     1      19.027   3.325  46.880  1.00  0.00    -0.175 SA
HETATM   25  H14 UNL     1      18.754   2.019  46.483  1.00  0.00     0.102 HD
ENDBRANCH  15  24
TORSDOF 4
ENDMDL
MODEL 5
REMARK VINA RESULT:      -6.9      3.369      5.815
REMARK  4 active torsions:
REMARK  status: ('A' for Active; 'I' for Inactive)
REMARK    1  A    between atoms: C12_15  and  S1_16 
REMARK    2  A    between atoms: C16_20  and  C17_21 
REMARK    3  A    between atoms: C17_21  and  C18_22 
REMARK    4  A    between atoms: C18_22  and  C19_23 
ROOT
HETATM    1  C1  UNL     1      23.164   6.747  47.377  1.00  0.00     0.036 C 
HETATM    2  C2  UNL     1      23.030   5.355  47.803  1.00  0.00    -0.023 C 
HETATM    3  C3  UNL     1      23.776   5.077  48.853  1.00  0.00    -0.049 A 
HETATM    4  C4  UNL     1      24.642   6.160  49.475  1.00  0.00     0.066 A 
HETATM    5  C5  UNL     1      25.218   5.331  50.536  1.00  0.00    -0.014 A 
HETATM    6  C6  UNL     1      24.869   4.033  50.655  1.00  0.00    -0.048 A 
HETATM    7  C7  UNL     1      23.918   3.786  49.586  1.00  0.00    -0.014 A 
HETATM    8  C8  UNL     1      23.046   3.136  48.803  1.00  0.00     0.189 C 
HETATM    9  O1  UNL     1      22.582   1.801  48.816  1.00  0.00    -0.368 OA
HETATM   10  C9  UNL     1      21.204   1.572  48.469  1.00  0.00     0.279 C 
HETATM   11  C10 UNL     1      20.563   1.030  49.717  1.00  0.00     0.282 C 
HETATM   12  O2  UNL     1      19.333   0.859  49.708  1.00  0.00    -0.263 OA
HETATM   13  O3  UNL     1      21.206   0.706  50.873  1.00  0.00    -0.319 OA
HETATM   14  C11 UNL     1      20.690   0.232  52.067  1.00  0.00     0.193 C 
HETATM   15  C12 UNL     1      21.763  -0.083  53.059  1.00  0.00     0.068 C 
HETATM   16  C13 UNL     1      22.662   1.054  53.352  1.00  0.00     0.017 C 
HETATM   17  C14 UNL     1      23.397   1.616  52.155  1.00  0.00     0.002 C 
HETATM   18  C15 UNL     1      24.456   2.547  52.653  1.00  0.00     0.009 C 
HETATM   19  C16 UNL     1      25.404   3.131  51.681  1.00  0.00     0.019 C 
ENDROOT
BRANCH  19  20
HETATM   20  C17 UNL     1      26.242   2.113  50.941  1.00  0.00     0.009 C 
BRANCH  20  21
HETATM   21  C18 UNL     1      27.150   1.304  51.829  1.00  0.00     0.000 C 
BRANCH  21  22
HETATM   22  C19 UNL     1      26.680  -0.128  51.914  1.00  0.00    -0.005 C 
HETATM   23  C20 UNL     1      27.194  -0.773  53.191  1.00  0.00     0.005 C 
ENDBRANCH  21  22
ENDBRANCH  20  21
ENDBRANCH  19  20
BRANCH  15  24
HETATM   24  S1  UNL     1      20.898  -0.639  54.582  1.00  0.00    -0.175 SA
HETATM   25  H14 UNL     1      19.540  -0.331  54.550  1.00  0.00     0.102 HD
ENDBRANCH  15  24
TORSDOF 4
ENDMDL
MODEL 6
REMARK VINA RESULT:      -6.9      3.732      5.899
REMARK  4 active torsions:
REMARK  status: ('A' for Active; 'I' for Inactive)
REMARK    1  A    between atoms: C12_15  and  S1_16 
REMARK    2  A    between atoms: C16_20  and  C17_21 
REMARK    3  A    between atoms: C17_21  and  C18_22 
REMARK    4  A    between atoms: C18_22  and  C19_23 
ROOT
HETATM    1  C1  UNL     1      24.712   5.544  50.415  1.00  0.00     0.036 C 
HETATM    2  C2  UNL     1      23.940   4.319  50.222  1.00  0.00    -0.023 C 
HETATM    3  C3  UNL     1      23.976   3.530  51.277  1.00  0.00    -0.049 A 
HETATM    4  C4  UNL     1      24.765   3.946  52.507  1.00  0.00     0.066 A 
HETATM    5  C5  UNL     1      24.472   2.756  53.308  1.00  0.00    -0.014 A 
HETATM    6  C6  UNL     1      23.695   1.771  52.812  1.00  0.00    -0.048 A 
HETATM    7  C7  UNL     1      23.322   2.204  51.477  1.00  0.00    -0.014 A 
HETATM    8  C8  UNL     1      22.748   2.198  50.267  1.00  0.00     0.189 C 
HETATM    9  O1  UNL     1      21.911   1.255  49.626  1.00  0.00    -0.368 OA
HETATM   10  C9  UNL     1      20.862   1.760  48.782  1.00  0.00     0.279 C 
HETATM   11  C10 UNL     1      19.579   1.345  49.448  1.00  0.00     0.282 C 
HETATM   12  O2  UNL     1      18.515   1.768  48.967  1.00  0.00    -0.263 OA
HETATM   13  O3  UNL     1      19.467   0.543  50.542  1.00  0.00    -0.319 OA
HETATM   14  C11 UNL     1      18.334   0.140  51.229  1.00  0.00     0.193 C 
HETATM   15  C12 UNL     1      18.654  -0.822  52.327  1.00  0.00     0.068 C 
HETATM   16  C13 UNL     1      19.639  -0.310  53.304  1.00  0.00     0.017 C 
HETATM   17  C14 UNL     1      20.983   0.068  52.721  1.00  0.00     0.002 C 
HETATM   18  C15 UNL     1      21.937   0.288  53.852  1.00  0.00     0.009 C 
HETATM   19  C16 UNL     1      23.360   0.544  53.544  1.00  0.00     0.019 C 
ENDROOT
BRANCH  19  20
HETATM   20  C17 UNL     1      24.047  -0.581  52.802  1.00  0.00     0.009 C 
BRANCH  20  21
HETATM   21  C18 UNL     1      25.457  -0.844  53.257  1.00  0.00     0.000 C 
BRANCH  21  22
HETATM   22  C19 UNL     1      26.447  -0.439  52.192  1.00  0.00    -0.005 C 
HETATM   23  C20 UNL     1      27.429   0.580  52.751  1.00  0.00     0.005 C 
ENDBRANCH  21  22
ENDBRANCH  20  21
ENDBRANCH  19  20
BRANCH  15  24
HETATM   24  S1  UNL     1      17.055  -1.200  53.152  1.00  0.00    -0.175 SA
HETATM   25  H14 UNL     1      16.151  -0.147  53.038  1.00  0.00     0.102 HD
ENDBRANCH  15  24
TORSDOF 4
ENDMDL
MODEL 7
REMARK VINA RESULT:      -6.8      3.351      5.321
REMARK  4 active torsions:
REMARK  status: ('A' for Active; 'I' for Inactive)
REMARK    1  A    between atoms: C12_15  and  S1_16 
REMARK    2  A    between atoms: C16_20  and  C17_21 
REMARK    3  A    between atoms: C17_21  and  C18_22 
REMARK    4  A    between atoms: C18_22  and  C19_23 
ROOT
HETATM    1  C1  UNL     1      20.079   3.811  46.358  1.00  0.00     0.036 C 
HETATM    2  C2  UNL     1      21.105   4.672  46.943  1.00  0.00    -0.023 C 
HETATM    3  C3  UNL     1      21.971   3.998  47.673  1.00  0.00    -0.049 A 
HETATM    4  C4  UNL     1      21.826   2.493  47.822  1.00  0.00     0.066 A 
HETATM    5  C5  UNL     1      22.987   2.294  48.692  1.00  0.00    -0.014 A 
HETATM    6  C6  UNL     1      23.753   3.342  49.059  1.00  0.00    -0.048 A 
HETATM    7  C7  UNL     1      23.154   4.504  48.427  1.00  0.00    -0.014 A 
HETATM    8  C8  UNL     1      22.966   5.777  48.056  1.00  0.00     0.189 C 
HETATM    9  O1  UNL     1      23.684   6.960  48.348  1.00  0.00    -0.368 OA
HETATM   10  C9  UNL     1      23.796   7.946  47.307  1.00  0.00     0.279 C 
HETATM   11  C10 UNL     1      25.262   8.015  46.979  1.00  0.00     0.282 C 
HETATM   12  O2  UNL     1      25.606   8.720  46.016  1.00  0.00    -0.263 OA
HETATM   13  O3  UNL     1      26.263   7.370  47.639  1.00  0.00    -0.319 OA
HETATM   14  C11 UNL     1      27.624   7.357  47.385  1.00  0.00     0.193 C 
HETATM   15  C12 UNL     1      28.382   6.587  48.417  1.00  0.00     0.068 C 
HETATM   16  C13 UNL     1      27.922   5.191  48.582  1.00  0.00     0.017 C 
HETATM   17  C14 UNL     1      26.469   5.038  48.979  1.00  0.00     0.002 C 
HETATM   18  C15 UNL     1      26.242   3.615  49.378  1.00  0.00     0.009 C 
HETATM   19  C16 UNL     1      24.927   3.233  49.933  1.00  0.00     0.019 C 
ENDROOT
BRANCH  19  20
HETATM   20  C17 UNL     1      24.560   3.952  51.212  1.00  0.00     0.009 C 
BRANCH  20  21
HETATM   21  C18 UNL     1      24.451   3.051  52.413  1.00  0.00     0.000 C 
BRANCH  21  22
HETATM   22  C19 UNL     1      23.064   2.469  52.523  1.00  0.00    -0.005 C 
HETATM   23  C20 UNL     1      23.101   0.972  52.256  1.00  0.00     0.005 C 
ENDBRANCH  21  22
ENDBRANCH  20  21
ENDBRANCH  19  20
BRANCH  15  24
HETATM   24  S1  UNL     1      30.143   6.633  47.892  1.00  0.00    -0.175 SA
HETATM   25  H14 UNL     1      30.994   6.928  48.954  1.00  0.00     0.102 HD
ENDBRANCH  15  24
TORSDOF 4
ENDMDL
MODEL 8
REMARK VINA RESULT:      -6.8      2.019      2.742
REMARK  4 active torsions:
REMARK  status: ('A' for Active; 'I' for Inactive)
REMARK    1  A    between atoms: C12_15  and  S1_16 
REMARK    2  A    between atoms: C16_20  and  C17_21 
REMARK    3  A    between atoms: C17_21  and  C18_22 
REMARK    4  A    between atoms: C18_22  and  C19_23 
ROOT
HETATM    1  C1  UNL     1      18.395   2.211  50.741  1.00  0.00     0.036 C 
HETATM    2  C2  UNL     1      19.478   3.162  50.987  1.00  0.00    -0.023 C 
HETATM    3  C3  UNL     1      20.660   2.580  51.019  1.00  0.00    -0.049 A 
HETATM    4  C4  UNL     1      20.772   1.079  50.810  1.00  0.00     0.066 A 
HETATM    5  C5  UNL     1      22.227   0.994  50.950  1.00  0.00    -0.014 A 
HETATM    6  C6  UNL     1      22.957   2.105  51.183  1.00  0.00    -0.048 A 
HETATM    7  C7  UNL     1      22.001   3.196  51.239  1.00  0.00    -0.014 A 
HETATM    8  C8  UNL     1      21.516   4.439  51.354  1.00  0.00     0.189 C 
HETATM    9  O1  UNL     1      22.153   5.681  51.582  1.00  0.00    -0.368 OA
HETATM   10  C9  UNL     1      21.617   6.837  50.915  1.00  0.00     0.279 C 
HETATM   11  C10 UNL     1      22.698   7.292  49.973  1.00  0.00     0.282 C 
HETATM   12  O2  UNL     1      22.430   8.218  49.189  1.00  0.00    -0.263 OA
HETATM   13  O3  UNL     1      23.957   6.781  49.892  1.00  0.00    -0.319 OA
HETATM   14  C11 UNL     1      24.995   7.121  49.040  1.00  0.00     0.193 C 
HETATM   15  C12 UNL     1      26.248   6.369  49.351  1.00  0.00     0.068 C 
HETATM   16  C13 UNL     1      26.086   4.899  49.333  1.00  0.00     0.017 C 
HETATM   17  C14 UNL     1      25.061   4.355  50.303  1.00  0.00     0.002 C 
HETATM   18  C15 UNL     1      25.220   2.869  50.365  1.00  0.00     0.009 C 
HETATM   19  C16 UNL     1      24.416   2.107  51.344  1.00  0.00     0.019 C 
ENDROOT
BRANCH  19  20
HETATM   20  C17 UNL     1      24.673   2.485  52.786  1.00  0.00     0.009 C 
BRANCH  20  21
HETATM   21  C18 UNL     1      25.671   1.600  53.483  1.00  0.00     0.000 C 
BRANCH  21  22
HETATM   22  C19 UNL     1      25.489   0.160  53.073  1.00  0.00    -0.005 C 
HETATM   23  C20 UNL     1      26.793  -0.396  52.521  1.00  0.00     0.005 C 
ENDBRANCH  21  22
ENDBRANCH  20  21
ENDBRANCH  19  20
BRANCH  15  24
HETATM   24  S1  UNL     1      27.484   6.903  48.100  1.00  0.00    -0.175 SA
HETATM   25  H14 UNL     1      27.578   6.000  47.044  1.00  0.00     0.102 HD
ENDBRANCH  15  24
TORSDOF 4
ENDMDL
MODEL 9
REMARK VINA RESULT:      -6.8      5.102      8.928
REMARK  4 active torsions:
REMARK  status: ('A' for Active; 'I' for Inactive)
REMARK    1  A    between atoms: C12_15  and  S1_16 
REMARK    2  A    between atoms: C16_20  and  C17_21 
REMARK    3  A    between atoms: C17_21  and  C18_22 
REMARK    4  A    between atoms: C18_22  and  C19_23 
ROOT
HETATM    1  C1  UNL     1      25.944   2.876  50.305  1.00  0.00     0.036 C 
HETATM    2  C2  UNL     1      26.793   3.824  49.586  1.00  0.00    -0.023 C 
HETATM    3  C3  UNL     1      26.150   4.928  49.262  1.00  0.00    -0.049 A 
HETATM    4  C4  UNL     1      24.689   5.094  49.645  1.00  0.00     0.066 A 
HETATM    5  C5  UNL     1      24.508   6.424  49.059  1.00  0.00    -0.014 A 
HETATM    6  C6  UNL     1      25.535   7.044  48.442  1.00  0.00    -0.048 A 
HETATM    7  C7  UNL     1      26.657   6.127  48.534  1.00  0.00    -0.014 A 
HETATM    8  C8  UNL     1      27.897   5.638  48.397  1.00  0.00     0.189 C 
HETATM    9  O1  UNL     1      29.059   6.172  47.794  1.00  0.00    -0.368 OA
HETATM   10  C9  UNL     1      30.324   5.888  48.418  1.00  0.00     0.279 C 
HETATM   11  C10 UNL     1      30.847   7.219  48.883  1.00  0.00     0.282 C 
HETATM   12  O2  UNL     1      31.886   7.226  49.565  1.00  0.00    -0.263 OA
HETATM   13  O3  UNL     1      30.286   8.434  48.631  1.00  0.00    -0.319 OA
HETATM   14  C11 UNL     1      30.686   9.694  49.043  1.00  0.00     0.193 C 
HETATM   15  C12 UNL     1      29.832  10.774  48.461  1.00  0.00     0.068 C 
HETATM   16  C13 UNL     1      28.389  10.619  48.750  1.00  0.00     0.017 C 
HETATM   17  C14 UNL     1      27.771   9.331  48.253  1.00  0.00     0.002 C 
HETATM   18  C15 UNL     1      26.284   9.453  48.365  1.00  0.00     0.009 C 
HETATM   19  C16 UNL     1      25.438   8.371  47.822  1.00  0.00     0.019 C 
ENDROOT
BRANCH  19  20
HETATM   20  C17 UNL     1      25.597   8.146  46.335  1.00  0.00     0.009 C 
BRANCH  20  21
HETATM   21  C18 UNL     1      25.412   9.386  45.503  1.00  0.00     0.000 C 
BRANCH  21  22
HETATM   22  C19 UNL     1      26.501   9.504  44.465  1.00  0.00    -0.005 C 
HETATM   23  C20 UNL     1      27.611   8.506  44.757  1.00  0.00     0.005 C 
ENDBRANCH  21  22
ENDBRANCH  20  21
ENDBRANCH  19  20
BRANCH  15  24
HETATM   24  S1  UNL     1      30.469  12.353  49.155  1.00  0.00    -0.175 SA
HETATM   25  H14 UNL     1      30.823  12.225  50.495  1.00  0.00     0.102 HD
ENDBRANCH  15  24
TORSDOF 4
ENDMDL
