MODEL 1
REMARK VINA RESULT:      -6.6      0.000      0.000
REMARK  5 active torsions:
REMARK  status: ('A' for Active; 'I' for Inactive)
REMARK    1  A    between atoms: C2_3  and  C3_4 
REMARK    2  A    between atoms: C3_4  and  C4_5 
REMARK    3  A    between atoms: C4_5  and  S1_6 
REMARK    4  A    between atoms: S1_6  and  C5_7 
REMARK    5  A    between atoms: C9_11  and  C10_12 
ROOT
HETATM    1  O1  UNL     1      28.634   2.702  54.192  1.00  0.00    -0.430 OA
HETATM    2  C1  UNL     1      28.980   1.608  53.833  1.00  0.00     0.391 C 
HETATM    3  C2  UNL     1      29.322   0.207  53.461  1.00  0.00     0.037 C 
ENDROOT
BRANCH   3   4
HETATM    4  C3  UNL     1      28.013  -0.554  53.177  1.00  0.00     0.013 C 
BRANCH   4   5
HETATM    5  C4  UNL     1      27.108  -0.274  54.355  1.00  0.00     0.079 C 
BRANCH   5   6
HETATM    6  S1  UNL     1      25.380  -0.453  54.112  1.00  0.00    -0.132 SA
BRANCH   6   7
HETATM    7  C5  UNL     1      24.676   0.662  52.920  1.00  0.00     0.007 A 
HETATM    8  C6  UNL     1      23.359   0.354  52.883  1.00  0.00     0.017 A 
HETATM    9  C7  UNL     1      22.702   1.252  51.911  1.00  0.00     0.013 A 
HETATM   10  C8  UNL     1      23.575   2.071  51.378  1.00  0.00     0.004 A 
HETATM   11  C9  UNL     1      24.063   3.145  50.523  1.00  0.00     0.114 C 
HETATM   12  C15 UNL     1      24.941   1.690  51.932  1.00  0.00     0.176 A 
HETATM   13  N2  UNL     1      25.074   3.649  51.124  1.00  0.00    -0.176 NA
HETATM   14  N3  UNL     1      25.335   2.998  52.369  1.00  0.00    -0.299 N 
HETATM   15  H14 UNL     1      25.692   3.433  53.237  1.00  0.00     0.183 HD
BRANCH  11  16
HETATM   16  C10 UNL     1      23.381   3.457  49.239  1.00  0.00     0.087 A 
HETATM   17  C11 UNL     1      22.749   2.478  48.485  1.00  0.00     0.034 A 
HETATM   18  C12 UNL     1      22.107   2.822  47.294  1.00  0.00     0.004 A 
HETATM   19  C13 UNL     1      22.091   4.121  46.853  1.00  0.00     0.019 A 
HETATM   20  C14 UNL     1      22.719   5.080  47.608  1.00  0.00     0.117 A 
HETATM   21  N1  UNL     1      23.316   4.717  48.728  1.00  0.00    -0.259 NA
ENDBRANCH  11  16
ENDBRANCH   6   7
ENDBRANCH   5   6
ENDBRANCH   4   5
ENDBRANCH   3   4
TORSDOF 5
ENDMDL
MODEL 2
REMARK VINA RESULT:      -6.6      3.877      5.123
REMARK  5 active torsions:
REMARK  status: ('A' for Active; 'I' for Inactive)
REMARK    1  A    between atoms: C2_3  and  C3_4 
REMARK    2  A    between atoms: C3_4  and  C4_5 
REMARK    3  A    between atoms: C4_5  and  S1_6 
REMARK    4  A    between atoms: S1_6  and  C5_7 
REMARK    5  A    between atoms: C9_11  and  C10_12 
ROOT
HETATM    1  O1  UNL     1      27.087   3.104  50.763  1.00  0.00    -0.430 OA
HETATM    2  C1  UNL     1      26.699   2.288  51.558  1.00  0.00     0.391 C 
HETATM    3  C2  UNL     1      26.200   1.203  52.448  1.00  0.00     0.037 C 
ENDROOT
BRANCH   3   4
HETATM    4  C3  UNL     1      26.847  -0.124  52.008  1.00  0.00     0.013 C 
BRANCH   4   5
HETATM    5  C4  UNL     1      26.221  -1.196  52.869  1.00  0.00     0.079 C 
BRANCH   5   6
HETATM    6  S1  UNL     1      25.263  -0.677  54.243  1.00  0.00    -0.132 SA
BRANCH   6   7
HETATM    7  C5  UNL     1      23.529  -0.473  53.909  1.00  0.00     0.007 A 
HETATM    8  C6  UNL     1      22.897  -1.077  54.941  1.00  0.00     0.017 A 
HETATM    9  C7  UNL     1      21.440  -0.940  54.733  1.00  0.00     0.013 A 
HETATM   10  C8  UNL     1      21.193  -0.283  53.626  1.00  0.00     0.004 A 
HETATM   11  C9  UNL     1      20.387   0.341  52.586  1.00  0.00     0.114 C 
HETATM   12  C15 UNL     1      22.535  -0.005  52.963  1.00  0.00     0.176 A 
HETATM   13  N2  UNL     1      21.090   1.302  52.118  1.00  0.00    -0.176 NA
HETATM   14  N3  UNL     1      22.357   1.405  52.771  1.00  0.00    -0.299 N 
HETATM   15  H14 UNL     1      22.881   2.272  52.983  1.00  0.00     0.183 HD
BRANCH  11  16
HETATM   16  C10 UNL     1      19.026  -0.172  52.274  1.00  0.00     0.087 A 
HETATM   17  C11 UNL     1      18.332  -0.995  53.150  1.00  0.00     0.034 A 
HETATM   18  C12 UNL     1      17.049  -1.437  52.821  1.00  0.00     0.004 A 
HETATM   19  C13 UNL     1      16.459  -1.070  51.638  1.00  0.00     0.019 A 
HETATM   20  C14 UNL     1      17.156  -0.254  50.781  1.00  0.00     0.117 A 
HETATM   21  N1  UNL     1      18.367   0.144  51.126  1.00  0.00    -0.259 NA
ENDBRANCH  11  16
ENDBRANCH   6   7
ENDBRANCH   5   6
ENDBRANCH   4   5
ENDBRANCH   3   4
TORSDOF 5
ENDMDL
MODEL 3
REMARK VINA RESULT:      -6.4      4.506      7.750
REMARK  5 active torsions:
REMARK  status: ('A' for Active; 'I' for Inactive)
REMARK    1  A    between atoms: C2_3  and  C3_4 
REMARK    2  A    between atoms: C3_4  and  C4_5 
REMARK    3  A    between atoms: C4_5  and  S1_6 
REMARK    4  A    between atoms: S1_6  and  C5_7 
REMARK    5  A    between atoms: C9_11  and  C10_12 
ROOT
HETATM    1  O1  UNL     1      19.384   3.687  52.126  1.00  0.00    -0.430 OA
HETATM    2  C1  UNL     1      18.661   3.076  51.384  1.00  0.00     0.391 C 
HETATM    3  C2  UNL     1      17.860   2.247  50.441  1.00  0.00     0.037 C 
ENDROOT
BRANCH   3   4
HETATM    4  C3  UNL     1      18.151   0.762  50.731  1.00  0.00     0.013 C 
BRANCH   4   5
HETATM    5  C4  UNL     1      19.606   0.697  51.136  1.00  0.00     0.079 C 
BRANCH   5   6
HETATM    6  S1  UNL     1      20.007  -0.221  52.575  1.00  0.00    -0.132 SA
BRANCH   6   7
HETATM    7  C5  UNL     1      21.712  -0.126  53.069  1.00  0.00     0.007 A 
HETATM    8  C6  UNL     1      22.174   1.024  52.526  1.00  0.00     0.017 A 
HETATM    9  C7  UNL     1      23.594   1.174  52.903  1.00  0.00     0.013 A 
HETATM   10  C8  UNL     1      23.985   0.164  53.641  1.00  0.00     0.004 A 
HETATM   11  C9  UNL     1      24.898  -0.648  54.434  1.00  0.00     0.114 C 
HETATM   12  C15 UNL     1      22.811  -0.802  53.732  1.00  0.00     0.176 A 
HETATM   13  N2  UNL     1      24.177  -1.265  55.291  1.00  0.00    -0.176 NA
HETATM   14  N3  UNL     1      22.792  -0.936  55.160  1.00  0.00    -0.299 N 
HETATM   15  H14 UNL     1      22.097  -0.851  55.921  1.00  0.00     0.183 HD
BRANCH  11  16
HETATM   16  C10 UNL     1      26.360  -0.626  54.159  1.00  0.00     0.087 A 
HETATM   17  C11 UNL     1      27.218   0.251  54.810  1.00  0.00     0.034 A 
HETATM   18  C12 UNL     1      28.586   0.222  54.532  1.00  0.00     0.004 A 
HETATM   19  C13 UNL     1      29.100  -0.664  53.619  1.00  0.00     0.019 A 
HETATM   20  C14 UNL     1      28.241  -1.526  52.983  1.00  0.00     0.117 A 
HETATM   21  N1  UNL     1      26.954  -1.470  53.272  1.00  0.00    -0.259 NA
ENDBRANCH  11  16
ENDBRANCH   6   7
ENDBRANCH   5   6
ENDBRANCH   4   5
ENDBRANCH   3   4
TORSDOF 5
ENDMDL
MODEL 4
REMARK VINA RESULT:      -6.2      3.974      7.215
REMARK  5 active torsions:
REMARK  status: ('A' for Active; 'I' for Inactive)
REMARK    1  A    between atoms: C2_3  and  C3_4 
REMARK    2  A    between atoms: C3_4  and  C4_5 
REMARK    3  A    between atoms: C4_5  and  S1_6 
REMARK    4  A    between atoms: S1_6  and  C5_7 
REMARK    5  A    between atoms: C9_11  and  C10_12 
ROOT
HETATM    1  O1  UNL     1      19.396   3.605  51.977  1.00  0.00    -0.430 OA
HETATM    2  C1  UNL     1      18.535   2.846  51.617  1.00  0.00     0.391 C 
HETATM    3  C2  UNL     1      17.557   1.824  51.149  1.00  0.00     0.037 C 
ENDROOT
BRANCH   3   4
HETATM    4  C3  UNL     1      17.918   0.474  51.798  1.00  0.00     0.013 C 
BRANCH   4   5
HETATM    5  C4  UNL     1      19.428   0.409  51.806  1.00  0.00     0.079 C 
BRANCH   5   6
HETATM    6  S1  UNL     1      20.226   0.285  53.362  1.00  0.00    -0.132 SA
BRANCH   6   7
HETATM    7  C5  UNL     1      22.002   0.343  53.296  1.00  0.00     0.007 A 
HETATM    8  C6  UNL     1      22.415  -0.801  53.889  1.00  0.00     0.017 A 
HETATM    9  C7  UNL     1      23.892  -0.826  53.865  1.00  0.00     0.013 A 
HETATM   10  C8  UNL     1      24.361   0.252  53.284  1.00  0.00     0.004 A 
HETATM   11  C9  UNL     1      25.366   1.172  52.771  1.00  0.00     0.114 C 
HETATM   12  C15 UNL     1      23.166   1.134  52.948  1.00  0.00     0.176 A 
HETATM   13  N2  UNL     1      24.822   1.785  51.789  1.00  0.00    -0.176 NA
HETATM   14  N3  UNL     1      23.479   1.349  51.565  1.00  0.00    -0.299 N 
HETATM   15  H14 UNL     1      22.997   1.259  50.654  1.00  0.00     0.183 HD
BRANCH  11  16
HETATM   16  C10 UNL     1      26.716   1.240  53.393  1.00  0.00     0.087 A 
HETATM   17  C11 UNL     1      27.181   0.253  54.251  1.00  0.00     0.034 A 
HETATM   18  C12 UNL     1      28.463   0.351  54.797  1.00  0.00     0.004 A 
HETATM   19  C13 UNL     1      29.275   1.415  54.497  1.00  0.00     0.019 A 
HETATM   20  C14 UNL     1      28.804   2.384  53.646  1.00  0.00     0.117 A 
HETATM   21  N1  UNL     1      27.587   2.257  53.149  1.00  0.00    -0.259 NA
ENDBRANCH  11  16
ENDBRANCH   6   7
ENDBRANCH   5   6
ENDBRANCH   4   5
ENDBRANCH   3   4
TORSDOF 5
ENDMDL
MODEL 5
REMARK VINA RESULT:      -6.2      3.745      5.038
REMARK  5 active torsions:
REMARK  status: ('A' for Active; 'I' for Inactive)
REMARK    1  A    between atoms: C2_3  and  C3_4 
REMARK    2  A    between atoms: C3_4  and  C4_5 
REMARK    3  A    between atoms: C4_5  and  S1_6 
REMARK    4  A    between atoms: S1_6  and  C5_7 
REMARK    5  A    between atoms: C9_11  and  C10_12 
ROOT
HETATM    1  O1  UNL     1      21.931  -1.587  55.315  1.00  0.00    -0.430 OA
HETATM    2  C1  UNL     1      22.809  -1.244  54.569  1.00  0.00     0.391 C 
HETATM    3  C2  UNL     1      23.812  -0.767  53.576  1.00  0.00     0.037 C 
ENDROOT
BRANCH   3   4
HETATM    4  C3  UNL     1      23.490   0.698  53.226  1.00  0.00     0.013 C 
BRANCH   4   5
HETATM    5  C4  UNL     1      22.221   0.659  52.405  1.00  0.00     0.079 C 
BRANCH   5   6
HETATM    6  S1  UNL     1      21.907   2.007  51.330  1.00  0.00    -0.132 SA
BRANCH   6   7
HETATM    7  C5  UNL     1      23.344   2.953  50.881  1.00  0.00     0.007 A 
HETATM    8  C6  UNL     1      23.026   4.236  51.167  1.00  0.00     0.017 A 
HETATM    9  C7  UNL     1      24.184   5.087  50.823  1.00  0.00     0.013 A 
HETATM   10  C8  UNL     1      25.165   4.359  50.349  1.00  0.00     0.004 A 
HETATM   11  C9  UNL     1      26.485   4.074  49.801  1.00  0.00     0.114 C 
HETATM   12  C15 UNL     1      24.659   2.925  50.271  1.00  0.00     0.176 A 
HETATM   13  N2  UNL     1      26.781   2.888  50.179  1.00  0.00    -0.176 NA
HETATM   14  N3  UNL     1      25.745   2.307  50.975  1.00  0.00    -0.299 N 
HETATM   15  H14 UNL     1      25.863   1.662  51.775  1.00  0.00     0.183 HD
BRANCH  11  16
HETATM   16  C10 UNL     1      27.202   5.094  48.990  1.00  0.00     0.087 A 
HETATM   17  C11 UNL     1      26.570   6.238  48.522  1.00  0.00     0.034 A 
HETATM   18  C12 UNL     1      27.290   7.176  47.779  1.00  0.00     0.004 A 
HETATM   19  C13 UNL     1      28.619   6.985  47.502  1.00  0.00     0.019 A 
HETATM   20  C14 UNL     1      29.233   5.850  47.972  1.00  0.00     0.117 A 
HETATM   21  N1  UNL     1      28.520   4.985  48.671  1.00  0.00    -0.259 NA
ENDBRANCH  11  16
ENDBRANCH   6   7
ENDBRANCH   5   6
ENDBRANCH   4   5
ENDBRANCH   3   4
TORSDOF 5
ENDMDL
MODEL 6
REMARK VINA RESULT:      -6.1      3.702      7.588
REMARK  5 active torsions:
REMARK  status: ('A' for Active; 'I' for Inactive)
REMARK    1  A    between atoms: C2_3  and  C3_4 
REMARK    2  A    between atoms: C3_4  and  C4_5 
REMARK    3  A    between atoms: C4_5  and  S1_6 
REMARK    4  A    between atoms: S1_6  and  C5_7 
REMARK    5  A    between atoms: C9_11  and  C10_12 
ROOT
HETATM    1  O1  UNL     1      21.611   7.799  46.945  1.00  0.00    -0.430 OA
HETATM    2  C1  UNL     1      22.249   7.106  47.694  1.00  0.00     0.391 C 
HETATM    3  C2  UNL     1      23.079   6.351  48.673  1.00  0.00     0.037 C 
ENDROOT
BRANCH   3   4
HETATM    4  C3  UNL     1      22.863   6.966  50.069  1.00  0.00     0.013 C 
BRANCH   4   5
HETATM    5  C4  UNL     1      22.715   5.799  51.018  1.00  0.00     0.079 C 
BRANCH   5   6
HETATM    6  S1  UNL     1      23.021   4.193  50.383  1.00  0.00    -0.132 SA
BRANCH   6   7
HETATM    7  C5  UNL     1      24.423   3.364  51.096  1.00  0.00     0.007 A 
HETATM    8  C6  UNL     1      25.383   3.411  50.145  1.00  0.00     0.017 A 
HETATM    9  C7  UNL     1      26.589   2.742  50.674  1.00  0.00     0.013 A 
HETATM   10  C8  UNL     1      26.378   2.305  51.891  1.00  0.00     0.004 A 
HETATM   11  C9  UNL     1      26.684   1.657  53.159  1.00  0.00     0.114 C 
HETATM   12  C15 UNL     1      24.922   2.601  52.225  1.00  0.00     0.176 A 
HETATM   13  N2  UNL     1      25.959   2.234  54.041  1.00  0.00    -0.176 NA
HETATM   14  N3  UNL     1      25.151   3.267  53.474  1.00  0.00    -0.299 N 
HETATM   15  H14 UNL     1      24.883   4.163  53.918  1.00  0.00     0.183 HD
BRANCH  11  16
HETATM   16  C10 UNL     1      27.686   0.558  53.223  1.00  0.00     0.087 A 
HETATM   17  C11 UNL     1      29.027   0.800  53.491  1.00  0.00     0.034 A 
HETATM   18  C12 UNL     1      29.926  -0.266  53.558  1.00  0.00     0.004 A 
HETATM   19  C13 UNL     1      29.504  -1.556  53.362  1.00  0.00     0.019 A 
HETATM   20  C14 UNL     1      28.176  -1.782  53.099  1.00  0.00     0.117 A 
HETATM   21  N1  UNL     1      27.354  -0.749  53.043  1.00  0.00    -0.259 NA
ENDBRANCH  11  16
ENDBRANCH   6   7
ENDBRANCH   5   6
ENDBRANCH   4   5
ENDBRANCH   3   4
TORSDOF 5
ENDMDL
MODEL 7
REMARK VINA RESULT:      -5.9      2.945      6.886
REMARK  5 active torsions:
REMARK  status: ('A' for Active; 'I' for Inactive)
REMARK    1  A    between atoms: C2_3  and  C3_4 
REMARK    2  A    between atoms: C3_4  and  C4_5 
REMARK    3  A    between atoms: C4_5  and  S1_6 
REMARK    4  A    between atoms: S1_6  and  C5_7 
REMARK    5  A    between atoms: C9_11  and  C10_12 
ROOT
HETATM    1  O1  UNL     1      22.680   5.307  47.396  1.00  0.00    -0.430 OA
HETATM    2  C1  UNL     1      22.094   4.414  47.949  1.00  0.00     0.391 C 
HETATM    3  C2  UNL     1      21.382   3.371  48.739  1.00  0.00     0.037 C 
ENDROOT
BRANCH   3   4
HETATM    4  C3  UNL     1      20.395   4.072  49.692  1.00  0.00     0.013 C 
BRANCH   4   5
HETATM    5  C4  UNL     1      20.158   3.104  50.828  1.00  0.00     0.079 C 
BRANCH   5   6
HETATM    6  S1  UNL     1      21.116   3.310  52.283  1.00  0.00    -0.132 SA
BRANCH   6   7
HETATM    7  C5  UNL     1      22.682   2.469  52.270  1.00  0.00     0.007 A 
HETATM    8  C6  UNL     1      22.410   1.210  52.685  1.00  0.00     0.017 A 
HETATM    9  C7  UNL     1      23.674   0.445  52.693  1.00  0.00     0.013 A 
HETATM   10  C8  UNL     1      24.672   1.199  52.302  1.00  0.00     0.004 A 
HETATM   11  C9  UNL     1      26.048   1.540  51.965  1.00  0.00     0.114 C 
HETATM   12  C15 UNL     1      24.114   2.598  52.080  1.00  0.00     0.176 A 
HETATM   13  N2  UNL     1      25.982   2.460  51.080  1.00  0.00    -0.176 NA
HETATM   14  N3  UNL     1      24.630   2.795  50.757  1.00  0.00    -0.299 N 
HETATM   15  H14 UNL     1      24.262   3.075  49.832  1.00  0.00     0.183 HD
BRANCH  11  16
HETATM   16  C10 UNL     1      27.182   0.838  52.623  1.00  0.00     0.087 A 
HETATM   17  C11 UNL     1      27.267  -0.548  52.661  1.00  0.00     0.034 A 
HETATM   18  C12 UNL     1      28.361  -1.162  53.274  1.00  0.00     0.004 A 
HETATM   19  C13 UNL     1      29.359  -0.414  53.844  1.00  0.00     0.019 A 
HETATM   20  C14 UNL     1      29.264   0.955  53.800  1.00  0.00     0.117 A 
HETATM   21  N1  UNL     1      28.215   1.500  53.211  1.00  0.00    -0.259 NA
ENDBRANCH  11  16
ENDBRANCH   6   7
ENDBRANCH   5   6
ENDBRANCH   4   5
ENDBRANCH   3   4
TORSDOF 5
ENDMDL
MODEL 8
REMARK VINA RESULT:      -5.8      3.847      4.997
REMARK  5 active torsions:
REMARK  status: ('A' for Active; 'I' for Inactive)
REMARK    1  A    between atoms: C2_3  and  C3_4 
REMARK    2  A    between atoms: C3_4  and  C4_5 
REMARK    3  A    between atoms: C4_5  and  S1_6 
REMARK    4  A    between atoms: S1_6  and  C5_7 
REMARK    5  A    between atoms: C9_11  and  C10_12 
ROOT
HETATM    1  O1  UNL     1      22.152  -2.011  55.310  1.00  0.00    -0.430 OA
HETATM    2  C1  UNL     1      21.882  -0.988  54.738  1.00  0.00     0.391 C 
HETATM    3  C2  UNL     1      21.624   0.244  53.942  1.00  0.00     0.037 C 
ENDROOT
BRANCH   3   4
HETATM    4  C3  UNL     1      21.433  -0.160  52.468  1.00  0.00     0.013 C 
BRANCH   4   5
HETATM    5  C4  UNL     1      22.243   0.827  51.660  1.00  0.00     0.079 C 
BRANCH   5   6
HETATM    6  S1  UNL     1      23.498   1.723  52.494  1.00  0.00    -0.132 SA
BRANCH   6   7
HETATM    7  C5  UNL     1      24.164   3.097  51.584  1.00  0.00     0.007 A 
HETATM    8  C6  UNL     1      23.450   4.171  51.992  1.00  0.00     0.017 A 
HETATM    9  C7  UNL     1      23.956   5.361  51.277  1.00  0.00     0.013 A 
HETATM   10  C8  UNL     1      24.934   5.031  50.469  1.00  0.00     0.004 A 
HETATM   11  C9  UNL     1      25.986   5.229  49.482  1.00  0.00     0.114 C 
HETATM   12  C15 UNL     1      25.085   3.518  50.545  1.00  0.00     0.176 A 
HETATM   13  N2  UNL     1      26.861   4.323  49.704  1.00  0.00    -0.176 NA
HETATM   14  N3  UNL     1      26.495   3.486  50.803  1.00  0.00    -0.299 N 
HETATM   15  H14 UNL     1      27.131   3.053  51.495  1.00  0.00     0.183 HD
BRANCH  11  16
HETATM   16  C10 UNL     1      25.894   6.335  48.491  1.00  0.00     0.087 A 
HETATM   17  C11 UNL     1      27.021   6.983  48.003  1.00  0.00     0.034 A 
HETATM   18  C12 UNL     1      26.884   8.003  47.060  1.00  0.00     0.004 A 
HETATM   19  C13 UNL     1      25.646   8.379  46.605  1.00  0.00     0.019 A 
HETATM   20  C14 UNL     1      24.540   7.731  47.094  1.00  0.00     0.117 A 
HETATM   21  N1  UNL     1      24.708   6.770  47.985  1.00  0.00    -0.259 NA
ENDBRANCH  11  16
ENDBRANCH   6   7
ENDBRANCH   5   6
ENDBRANCH   4   5
ENDBRANCH   3   4
TORSDOF 5
ENDMDL
MODEL 9
REMARK VINA RESULT:      -5.7      3.583      6.547
REMARK  5 active torsions:
REMARK  status: ('A' for Active; 'I' for Inactive)
REMARK    1  A    between atoms: C2_3  and  C3_4 
REMARK    2  A    between atoms: C3_4  and  C4_5 
REMARK    3  A    between atoms: C4_5  and  S1_6 
REMARK    4  A    between atoms: S1_6  and  C5_7 
REMARK    5  A    between atoms: C9_11  and  C10_12 
ROOT
HETATM    1  O1  UNL     1      24.696   6.926  51.202  1.00  0.00    -0.430 OA
HETATM    2  C1  UNL     1      25.063   6.706  50.077  1.00  0.00     0.391 C 
HETATM    3  C2  UNL     1      25.403   6.395  48.661  1.00  0.00     0.037 C 
ENDROOT
BRANCH   3   4
HETATM    4  C3  UNL     1      24.277   6.937  47.760  1.00  0.00     0.013 C 
BRANCH   4   5
HETATM    5  C4  UNL     1      22.994   6.354  48.305  1.00  0.00     0.079 C 
BRANCH   5   6
HETATM    6  S1  UNL     1      22.549   4.740  47.785  1.00  0.00    -0.132 SA
BRANCH   6   7
HETATM    7  C5  UNL     1      22.698   3.486  49.036  1.00  0.00     0.007 A 
HETATM    8  C6  UNL     1      21.909   2.471  48.614  1.00  0.00     0.017 A 
HETATM    9  C7  UNL     1      21.989   1.381  49.608  1.00  0.00     0.013 A 
HETATM   10  C8  UNL     1      22.788   1.713  50.593  1.00  0.00     0.004 A 
HETATM   11  C9  UNL     1      23.513   1.556  51.846  1.00  0.00     0.114 C 
HETATM   12  C15 UNL     1      23.242   3.143  50.336  1.00  0.00     0.176 A 
HETATM   13  N2  UNL     1      24.573   2.263  51.737  1.00  0.00    -0.176 NA
HETATM   14  N3  UNL     1      24.652   2.916  50.467  1.00  0.00    -0.299 N 
HETATM   15  H14 UNL     1      25.507   3.107  49.917  1.00  0.00     0.183 HD
BRANCH  11  16
HETATM   16  C10 UNL     1      22.973   0.690  52.928  1.00  0.00     0.087 A 
HETATM   17  C11 UNL     1      21.631   0.710  53.285  1.00  0.00     0.034 A 
HETATM   18  C12 UNL     1      21.167  -0.134  54.296  1.00  0.00     0.004 A 
HETATM   19  C13 UNL     1      22.021  -0.989  54.946  1.00  0.00     0.019 A 
HETATM   20  C14 UNL     1      23.345  -0.999  54.583  1.00  0.00     0.117 A 
HETATM   21  N1  UNL     1      23.747  -0.187  53.623  1.00  0.00    -0.259 NA
ENDBRANCH  11  16
ENDBRANCH   6   7
ENDBRANCH   5   6
ENDBRANCH   4   5
ENDBRANCH   3   4
TORSDOF 5
ENDMDL
