MODEL 1
REMARK VINA RESULT:      -8.1      0.000      0.000
REMARK  8 active torsions:
REMARK  status: ('A' for Active; 'I' for Inactive)
REMARK    1  A    between atoms: O1_2  and  C2_3 
REMARK    2  A    between atoms: C2_3  and  C3_4 
REMARK    3  A    between atoms: C3_4  and  C4_5 
REMARK    4  A    between atoms: C4_5  and  C5_7 
REMARK    5  A    between atoms: C10_12  and  N1_13 
REMARK    6  A    between atoms: C12_16  and  O3_17 
REMARK    7  A    between atoms: O3_17  and  C13_18 
REMARK    8  A    between atoms: C13_18  and  C14_19 
ROOT
HETATM    1  N1  UNL     1      23.685   2.901  50.936  1.00  0.00    -0.271 N 
HETATM    2  C11 UNL     1      23.668   2.889  49.574  1.00  0.00     0.221 A 
HETATM    3  N2  UNL     1      23.816   4.024  48.880  1.00  0.00    -0.218 NA
HETATM    4  C12 UNL     1      23.985   5.203  49.501  1.00  0.00     0.193 A 
HETATM    5  C19 UNL     1      24.006   5.242  50.895  1.00  0.00     0.155 A 
HETATM    6 CL1  UNL     1      24.227   6.793  51.691  1.00  0.00    -0.074 Cl
HETATM    7  C20 UNL     1      23.852   4.062  51.590  1.00  0.00     0.279 A 
HETATM    8  O4  UNL     1      23.885   4.199  52.852  1.00  0.00    -0.266 OA
ENDROOT
BRANCH   1   9
HETATM    9  C10 UNL     1      23.550   1.783  51.801  1.00  0.00     0.050 A 
HETATM   10  C8  UNL     1      22.208   1.518  52.085  1.00  0.00    -0.035 A 
HETATM   11  C7  UNL     1      21.908   0.448  52.920  1.00  0.00     0.010 A 
HETATM   12  C9  UNL     1      21.058   2.304  51.555  1.00  0.00     0.050 C 
HETATM   13  C6  UNL     1      22.959  -0.290  53.420  1.00  0.00     0.016 A 
HETATM   14  C5  UNL     1      24.309  -0.060  53.164  1.00  0.00     0.012 A 
HETATM   15  C21 UNL     1      24.556   1.009  52.331  1.00  0.00     0.045 A 
BRANCH  14  16
HETATM   16  C4  UNL     1      25.385  -0.857  53.718  1.00  0.00     0.161 C 
HETATM   17  O2  UNL     1      25.334  -1.083  54.978  1.00  0.00    -0.292 OA
BRANCH  16  18
HETATM   18  C3  UNL     1      26.489  -1.401  52.953  1.00  0.00     0.110 C 
BRANCH  18  19
HETATM   19  C2  UNL     1      27.827  -0.793  53.049  1.00  0.00     0.174 C 
BRANCH  19  20
HETATM   20  O1  UNL     1      28.542  -0.805  54.184  1.00  0.00    -0.396 OA
HETATM   21  C1  UNL     1      28.701   0.351  54.898  1.00  0.00     0.201 C 
ENDBRANCH  19  20
ENDBRANCH  18  19
ENDBRANCH  16  18
ENDBRANCH  14  16
ENDBRANCH   1   9
BRANCH   4  22
HETATM   22  O3  UNL     1      24.141   6.394  48.814  1.00  0.00    -0.332 OA
BRANCH  22  23
HETATM   23  C13 UNL     1      25.278   6.728  48.067  1.00  0.00     0.193 C 
BRANCH  23  24
HETATM   24  C14 UNL     1      26.514   6.725  48.945  1.00  0.00     0.098 A 
HETATM   25  C15 UNL     1      27.349   7.923  48.732  1.00  0.00     0.029 A 
HETATM   26  C16 UNL     1      28.544   7.586  48.278  1.00  0.00     0.116 A 
HETATM   27  F1  UNL     1      29.647   8.331  47.936  1.00  0.00    -0.206 F 
HETATM   28  C17 UNL     1      28.623   6.123  48.145  1.00  0.00     0.080 A 
HETATM   29  C18 UNL     1      27.456   5.636  48.528  1.00  0.00     0.106 A 
HETATM   30  F2  UNL     1      27.015   4.340  48.594  1.00  0.00    -0.210 F 
ENDBRANCH  23  24
ENDBRANCH  22  23
ENDBRANCH   4  22
TORSDOF 8
ENDMDL
MODEL 2
REMARK VINA RESULT:      -8.0      1.952      3.798
REMARK  8 active torsions:
REMARK  status: ('A' for Active; 'I' for Inactive)
REMARK    1  A    between atoms: O1_2  and  C2_3 
REMARK    2  A    between atoms: C2_3  and  C3_4 
REMARK    3  A    between atoms: C3_4  and  C4_5 
REMARK    4  A    between atoms: C4_5  and  C5_7 
REMARK    5  A    between atoms: C10_12  and  N1_13 
REMARK    6  A    between atoms: C12_16  and  O3_17 
REMARK    7  A    between atoms: O3_17  and  C13_18 
REMARK    8  A    between atoms: C13_18  and  C14_19 
ROOT
HETATM    1  N1  UNL     1      23.916   2.626  51.209  1.00  0.00    -0.271 N 
HETATM    2  C11 UNL     1      23.919   2.562  49.849  1.00  0.00     0.221 A 
HETATM    3  N2  UNL     1      23.997   3.678  49.114  1.00  0.00    -0.218 NA
HETATM    4  C12 UNL     1      24.076   4.889  49.691  1.00  0.00     0.193 A 
HETATM    5  C19 UNL     1      24.074   4.980  51.083  1.00  0.00     0.155 A 
HETATM    6 CL1  UNL     1      24.177   6.571  51.822  1.00  0.00    -0.074 Cl
HETATM    7  C20 UNL     1      23.993   3.818  51.820  1.00  0.00     0.279 A 
HETATM    8  O4  UNL     1      23.999   4.005  53.076  1.00  0.00    -0.266 OA
ENDROOT
BRANCH   1   9
HETATM    9  C10 UNL     1      23.847   1.534  52.115  1.00  0.00     0.050 A 
HETATM   10  C8  UNL     1      25.102   0.956  52.313  1.00  0.00    -0.035 A 
HETATM   11  C7  UNL     1      25.202  -0.127  53.179  1.00  0.00     0.010 A 
HETATM   12  C9  UNL     1      26.361   1.416  51.660  1.00  0.00     0.050 C 
HETATM   13  C6  UNL     1      24.049  -0.567  53.792  1.00  0.00     0.016 A 
HETATM   14  C5  UNL     1      22.779  -0.021  53.622  1.00  0.00     0.012 A 
HETATM   15  C21 UNL     1      22.731   1.050  52.757  1.00  0.00     0.045 A 
BRANCH  14  16
HETATM   16  C4  UNL     1      21.589  -0.520  54.281  1.00  0.00     0.161 C 
HETATM   17  O2  UNL     1      21.754  -1.510  55.077  1.00  0.00    -0.292 OA
BRANCH  16  18
HETATM   18  C3  UNL     1      20.256   0.018  54.100  1.00  0.00     0.110 C 
BRANCH  18  19
HETATM   19  C2  UNL     1      19.358  -0.552  53.080  1.00  0.00     0.174 C 
BRANCH  19  20
HETATM   20  O1  UNL     1      18.143  -1.032  53.382  1.00  0.00    -0.396 OA
HETATM   21  C1  UNL     1      17.986  -2.364  53.652  1.00  0.00     0.201 C 
ENDBRANCH  19  20
ENDBRANCH  18  19
ENDBRANCH  16  18
ENDBRANCH  14  16
ENDBRANCH   1   9
BRANCH   4  22
HETATM   22  O3  UNL     1      24.157   6.061  48.962  1.00  0.00    -0.332 OA
BRANCH  22  23
HETATM   23  C13 UNL     1      25.258   6.421  48.173  1.00  0.00     0.193 C 
BRANCH  23  24
HETATM   24  C14 UNL     1      26.517   6.495  49.014  1.00  0.00     0.098 A 
HETATM   25  C15 UNL     1      27.272   7.741  48.774  1.00  0.00     0.029 A 
HETATM   26  C16 UNL     1      28.472   7.474  48.287  1.00  0.00     0.116 A 
HETATM   27  F1  UNL     1      29.518   8.283  47.912  1.00  0.00    -0.206 F 
HETATM   28  C17 UNL     1      28.634   6.018  48.155  1.00  0.00     0.080 A 
HETATM   29  C18 UNL     1      27.510   5.463  48.573  1.00  0.00     0.106 A 
HETATM   30  F2  UNL     1      27.151   4.143  48.655  1.00  0.00    -0.210 F 
ENDBRANCH  23  24
ENDBRANCH  22  23
ENDBRANCH   4  22
TORSDOF 8
ENDMDL
MODEL 3
REMARK VINA RESULT:      -7.8      2.051      2.478
REMARK  8 active torsions:
REMARK  status: ('A' for Active; 'I' for Inactive)
REMARK    1  A    between atoms: O1_2  and  C2_3 
REMARK    2  A    between atoms: C2_3  and  C3_4 
REMARK    3  A    between atoms: C3_4  and  C4_5 
REMARK    4  A    between atoms: C4_5  and  C5_7 
REMARK    5  A    between atoms: C10_12  and  N1_13 
REMARK    6  A    between atoms: C12_16  and  O3_17 
REMARK    7  A    between atoms: O3_17  and  C13_18 
REMARK    8  A    between atoms: C13_18  and  C14_19 
ROOT
HETATM    1  N1  UNL     1      24.343   3.642  51.831  1.00  0.00    -0.271 N 
HETATM    2  C11 UNL     1      23.627   4.722  52.249  1.00  0.00     0.221 A 
HETATM    3  N2  UNL     1      23.742   5.900  51.624  1.00  0.00    -0.218 NA
HETATM    4  C12 UNL     1      24.563   6.053  50.571  1.00  0.00     0.193 A 
HETATM    5  C19 UNL     1      25.307   4.962  50.124  1.00  0.00     0.155 A 
HETATM    6 CL1  UNL     1      26.375   5.180  48.746  1.00  0.00    -0.074 Cl
HETATM    7  C20 UNL     1      25.173   3.758  50.782  1.00  0.00     0.279 A 
HETATM    8  O4  UNL     1      25.889   2.826  50.301  1.00  0.00    -0.266 OA
ENDROOT
BRANCH   1   9
HETATM    9  C10 UNL     1      24.318   2.335  52.385  1.00  0.00     0.050 A 
HETATM   10  C8  UNL     1      23.131   1.670  52.071  1.00  0.00    -0.035 A 
HETATM   11  C7  UNL     1      22.955   0.373  52.541  1.00  0.00     0.010 A 
HETATM   12  C9  UNL     1      22.023   2.250  51.261  1.00  0.00     0.050 C 
HETATM   13  C6  UNL     1      23.969  -0.180  53.292  1.00  0.00     0.016 A 
HETATM   14  C5  UNL     1      25.167   0.447  53.629  1.00  0.00     0.012 A 
HETATM   15  C21 UNL     1      25.295   1.728  53.140  1.00  0.00     0.045 A 
BRANCH  14  16
HETATM   16  C4  UNL     1      26.205  -0.170  54.430  1.00  0.00     0.161 C 
HETATM   17  O2  UNL     1      25.852  -0.604  55.582  1.00  0.00    -0.292 OA
BRANCH  16  18
HETATM   18  C3  UNL     1      27.586  -0.321  54.018  1.00  0.00     0.110 C 
BRANCH  18  19
HETATM   19  C2  UNL     1      28.660   0.364  54.759  1.00  0.00     0.174 C 
BRANCH  19  20
HETATM   20  O1  UNL     1      28.733   1.700  54.846  1.00  0.00    -0.396 OA
HETATM   21  C1  UNL     1      28.820   2.451  53.705  1.00  0.00     0.201 C 
ENDBRANCH  19  20
ENDBRANCH  18  19
ENDBRANCH  16  18
ENDBRANCH  14  16
ENDBRANCH   1   9
BRANCH   4  22
HETATM   22  O3  UNL     1      24.706   7.256  49.904  1.00  0.00    -0.332 OA
BRANCH  22  23
HETATM   23  C13 UNL     1      25.585   8.274  50.297  1.00  0.00     0.193 C 
BRANCH  23  24
HETATM   24  C14 UNL     1      25.970   9.136  49.112  1.00  0.00     0.098 A 
HETATM   25  C15 UNL     1      25.186   8.803  47.906  1.00  0.00     0.029 A 
HETATM   26  C16 UNL     1      25.976   8.372  46.938  1.00  0.00     0.116 A 
HETATM   27  F1  UNL     1      25.721   7.951  45.655  1.00  0.00    -0.206 F 
HETATM   28  C17 UNL     1      27.371   8.375  47.406  1.00  0.00     0.080 A 
HETATM   29  C18 UNL     1      27.360   8.814  48.652  1.00  0.00     0.106 A 
HETATM   30  F2  UNL     1      28.393   9.004  49.533  1.00  0.00    -0.210 F 
ENDBRANCH  23  24
ENDBRANCH  22  23
ENDBRANCH   4  22
TORSDOF 8
ENDMDL
MODEL 4
REMARK VINA RESULT:      -7.7      2.083      2.517
REMARK  8 active torsions:
REMARK  status: ('A' for Active; 'I' for Inactive)
REMARK    1  A    between atoms: O1_2  and  C2_3 
REMARK    2  A    between atoms: C2_3  and  C3_4 
REMARK    3  A    between atoms: C3_4  and  C4_5 
REMARK    4  A    between atoms: C4_5  and  C5_7 
REMARK    5  A    between atoms: C10_12  and  N1_13 
REMARK    6  A    between atoms: C12_16  and  O3_17 
REMARK    7  A    between atoms: O3_17  and  C13_18 
REMARK    8  A    between atoms: C13_18  and  C14_19 
ROOT
HETATM    1  N1  UNL     1      22.830   3.213  51.967  1.00  0.00    -0.271 N 
HETATM    2  C11 UNL     1      22.644   4.399  52.609  1.00  0.00     0.221 A 
HETATM    3  N2  UNL     1      22.576   5.545  51.921  1.00  0.00    -0.218 NA
HETATM    4  C12 UNL     1      22.688   5.561  50.582  1.00  0.00     0.193 A 
HETATM    5  C19 UNL     1      22.880   4.360  49.901  1.00  0.00     0.155 A 
HETATM    6 CL1  UNL     1      23.025   4.399  48.150  1.00  0.00    -0.074 Cl
HETATM    7  C20 UNL     1      22.947   3.191  50.629  1.00  0.00     0.279 A 
HETATM    8  O4  UNL     1      23.122   2.152  49.921  1.00  0.00    -0.266 OA
ENDROOT
BRANCH   1   9
HETATM    9  C10 UNL     1      22.914   1.925  52.559  1.00  0.00     0.050 A 
HETATM   10  C8  UNL     1      21.646   1.389  52.794  1.00  0.00    -0.035 A 
HETATM   11  C7  UNL     1      21.559   0.126  53.369  1.00  0.00     0.010 A 
HETATM   12  C9  UNL     1      20.362   2.074  52.472  1.00  0.00     0.050 C 
HETATM   13  C6  UNL     1      22.736  -0.522  53.675  1.00  0.00     0.016 A 
HETATM   14  C5  UNL     1      24.019  -0.025  53.458  1.00  0.00     0.012 A 
HETATM   15  C21 UNL     1      24.054   1.228  52.885  1.00  0.00     0.045 A 
BRANCH  14  16
HETATM   16  C4  UNL     1      25.232  -0.738  53.802  1.00  0.00     0.161 C 
HETATM   17  O2  UNL     1      25.382  -1.040  55.038  1.00  0.00    -0.292 OA
BRANCH  16  18
HETATM   18  C3  UNL     1      26.261  -1.121  52.857  1.00  0.00     0.110 C 
BRANCH  18  19
HETATM   19  C2  UNL     1      27.629  -0.590  52.995  1.00  0.00     0.174 C 
BRANCH  19  20
HETATM   20  O1  UNL     1      28.364  -0.777  54.101  1.00  0.00    -0.396 OA
HETATM   21  C1  UNL     1      28.758   0.301  54.845  1.00  0.00     0.201 C 
ENDBRANCH  19  20
ENDBRANCH  18  19
ENDBRANCH  16  18
ENDBRANCH  14  16
ENDBRANCH   1   9
BRANCH   4  22
HETATM   22  O3  UNL     1      22.623   6.727  49.840  1.00  0.00    -0.332 OA
BRANCH  22  23
HETATM   23  C13 UNL     1      23.039   7.981  50.308  1.00  0.00     0.193 C 
BRANCH  23  24
HETATM   24  C14 UNL     1      24.185   8.510  49.470  1.00  0.00     0.098 A 
HETATM   25  C15 UNL     1      23.825   8.620  48.043  1.00  0.00     0.029 A 
HETATM   26  C16 UNL     1      24.590   7.835  47.305  1.00  0.00     0.116 A 
HETATM   27  F1  UNL     1      24.637   7.595  45.953  1.00  0.00    -0.206 F 
HETATM   28  C17 UNL     1      25.541   7.122  48.172  1.00  0.00     0.080 A 
HETATM   29  C18 UNL     1      25.303   7.513  49.412  1.00  0.00     0.106 A 
HETATM   30  F2  UNL     1      25.908   7.152  50.587  1.00  0.00    -0.210 F 
ENDBRANCH  23  24
ENDBRANCH  22  23
ENDBRANCH   4  22
TORSDOF 8
ENDMDL
MODEL 5
REMARK VINA RESULT:      -7.7      2.743      4.594
REMARK  8 active torsions:
REMARK  status: ('A' for Active; 'I' for Inactive)
REMARK    1  A    between atoms: O1_2  and  C2_3 
REMARK    2  A    between atoms: C2_3  and  C3_4 
REMARK    3  A    between atoms: C3_4  and  C4_5 
REMARK    4  A    between atoms: C4_5  and  C5_7 
REMARK    5  A    between atoms: C10_12  and  N1_13 
REMARK    6  A    between atoms: C12_16  and  O3_17 
REMARK    7  A    between atoms: O3_17  and  C13_18 
REMARK    8  A    between atoms: C13_18  and  C14_19 
ROOT
HETATM    1  N1  UNL     1      23.420   2.913  51.991  1.00  0.00    -0.271 N 
HETATM    2  C11 UNL     1      23.737   4.075  52.625  1.00  0.00     0.221 A 
HETATM    3  N2  UNL     1      23.832   5.222  51.942  1.00  0.00    -0.218 NA
HETATM    4  C12 UNL     1      23.620   5.262  50.615  1.00  0.00     0.193 A 
HETATM    5  C19 UNL     1      23.295   4.085  49.942  1.00  0.00     0.155 A 
HETATM    6 CL1  UNL     1      23.022   4.155  48.208  1.00  0.00    -0.074 Cl
HETATM    7  C20 UNL     1      23.201   2.915  50.666  1.00  0.00     0.279 A 
HETATM    8  O4  UNL     1      22.901   1.899  49.966  1.00  0.00    -0.266 OA
ENDROOT
BRANCH   1   9
HETATM    9  C10 UNL     1      23.275   1.629  52.581  1.00  0.00     0.050 A 
HETATM   10  C8  UNL     1      24.511   1.001  52.744  1.00  0.00    -0.035 A 
HETATM   11  C7  UNL     1      24.539  -0.267  53.314  1.00  0.00     0.010 A 
HETATM   12  C9  UNL     1      25.822   1.592  52.348  1.00  0.00     0.050 C 
HETATM   13  C6  UNL     1      23.337  -0.829  53.685  1.00  0.00     0.016 A 
HETATM   14  C5  UNL     1      22.083  -0.239  53.540  1.00  0.00     0.012 A 
HETATM   15  C21 UNL     1      22.107   1.015  52.972  1.00  0.00     0.045 A 
BRANCH  14  16
HETATM   16  C4  UNL     1      20.841  -0.871  53.938  1.00  0.00     0.161 C 
HETATM   17  O2  UNL     1      20.938  -1.846  54.762  1.00  0.00    -0.292 OA
BRANCH  16  18
HETATM   18  C3  UNL     1      19.528  -0.476  53.471  1.00  0.00     0.110 C 
BRANCH  18  19
HETATM   19  C2  UNL     1      18.425  -1.453  53.449  1.00  0.00     0.174 C 
BRANCH  19  20
HETATM   20  O1  UNL     1      17.138  -1.085  53.543  1.00  0.00    -0.396 OA
HETATM   21  C1  UNL     1      16.519  -0.499  52.473  1.00  0.00     0.201 C 
ENDBRANCH  19  20
ENDBRANCH  18  19
ENDBRANCH  16  18
ENDBRANCH  14  16
ENDBRANCH   1   9
BRANCH   4  22
HETATM   22  O3  UNL     1      23.711   6.429  49.879  1.00  0.00    -0.332 OA
BRANCH  22  23
HETATM   23  C13 UNL     1      24.912   7.106  49.624  1.00  0.00     0.193 C 
BRANCH  23  24
HETATM   24  C14 UNL     1      25.611   6.516  48.416  1.00  0.00     0.098 A 
HETATM   25  C15 UNL     1      26.635   5.523  48.796  1.00  0.00     0.029 A 
HETATM   26  C16 UNL     1      27.836   5.916  48.407  1.00  0.00     0.116 A 
HETATM   27  F1  UNL     1      29.079   5.344  48.528  1.00  0.00    -0.206 F 
HETATM   28  C17 UNL     1      27.729   7.214  47.724  1.00  0.00     0.080 A 
HETATM   29  C18 UNL     1      26.452   7.553  47.733  1.00  0.00     0.106 A 
HETATM   30  F2  UNL     1      25.826   8.663  47.228  1.00  0.00    -0.210 F 
ENDBRANCH  23  24
ENDBRANCH  22  23
ENDBRANCH   4  22
TORSDOF 8
ENDMDL
MODEL 6
REMARK VINA RESULT:      -7.5      2.239      3.979
REMARK  8 active torsions:
REMARK  status: ('A' for Active; 'I' for Inactive)
REMARK    1  A    between atoms: O1_2  and  C2_3 
REMARK    2  A    between atoms: C2_3  and  C3_4 
REMARK    3  A    between atoms: C3_4  and  C4_5 
REMARK    4  A    between atoms: C4_5  and  C5_7 
REMARK    5  A    between atoms: C10_12  and  N1_13 
REMARK    6  A    between atoms: C12_16  and  O3_17 
REMARK    7  A    between atoms: O3_17  and  C13_18 
REMARK    8  A    between atoms: C13_18  and  C14_19 
ROOT
HETATM    1  N1  UNL     1      25.600   2.084  51.909  1.00  0.00    -0.271 N 
HETATM    2  C11 UNL     1      26.530   1.972  50.922  1.00  0.00     0.221 A 
HETATM    3  N2  UNL     1      26.655   2.925  49.991  1.00  0.00    -0.218 NA
HETATM    4  C12 UNL     1      25.870   4.015  50.001  1.00  0.00     0.193 A 
HETATM    5  C19 UNL     1      24.909   4.153  51.001  1.00  0.00     0.155 A 
HETATM    6 CL1  UNL     1      23.890   5.585  50.998  1.00  0.00    -0.074 Cl
HETATM    7  C20 UNL     1      24.798   3.160  51.950  1.00  0.00     0.279 A 
HETATM    8  O4  UNL     1      23.896   3.375  52.818  1.00  0.00    -0.266 OA
ENDROOT
BRANCH   1   9
HETATM    9  C10 UNL     1      25.358   1.163  52.964  1.00  0.00     0.050 A 
HETATM   10  C8  UNL     1      26.474   1.033  53.793  1.00  0.00    -0.035 A 
HETATM   11  C7  UNL     1      26.395   0.168  54.878  1.00  0.00     0.010 A 
HETATM   12  C9  UNL     1      27.761   1.761  53.602  1.00  0.00     0.050 C 
HETATM   13  C6  UNL     1      25.213  -0.514  55.069  1.00  0.00     0.016 A 
HETATM   14  C5  UNL     1      24.078  -0.415  54.268  1.00  0.00     0.012 A 
HETATM   15  C21 UNL     1      24.204   0.455  53.207  1.00  0.00     0.045 A 
BRANCH  14  16
HETATM   16  C4  UNL     1      22.856  -1.158  54.501  1.00  0.00     0.161 C 
HETATM   17  O2  UNL     1      22.788  -1.809  55.602  1.00  0.00    -0.292 OA
BRANCH  16  18
HETATM   18  C3  UNL     1      21.732  -1.208  53.588  1.00  0.00     0.110 C 
BRANCH  18  19
HETATM   19  C2  UNL     1      20.573  -0.322  53.789  1.00  0.00     0.174 C 
BRANCH  19  20
HETATM   20  O1  UNL     1      19.349  -0.626  53.332  1.00  0.00    -0.396 OA
HETATM   21  C1  UNL     1      18.905  -0.077  52.160  1.00  0.00     0.201 C 
ENDBRANCH  19  20
ENDBRANCH  18  19
ENDBRANCH  16  18
ENDBRANCH  14  16
ENDBRANCH   1   9
BRANCH   4  22
HETATM   22  O3  UNL     1      25.973   5.018  49.053  1.00  0.00    -0.332 OA
BRANCH  22  23
HETATM   23  C13 UNL     1      27.186   5.562  48.611  1.00  0.00     0.193 C 
BRANCH  23  24
HETATM   24  C14 UNL     1      27.002   7.004  48.184  1.00  0.00     0.098 A 
HETATM   25  C15 UNL     1      28.106   7.473  47.322  1.00  0.00     0.029 A 
HETATM   26  C16 UNL     1      28.753   8.473  47.894  1.00  0.00     0.116 A 
HETATM   27  F1  UNL     1      29.829   9.227  47.492  1.00  0.00    -0.206 F 
HETATM   28  C17 UNL     1      28.141   8.772  49.197  1.00  0.00     0.080 A 
HETATM   29  C18 UNL     1      27.138   7.926  49.358  1.00  0.00     0.106 A 
HETATM   30  F2  UNL     1      26.254   7.786  50.395  1.00  0.00    -0.210 F 
ENDBRANCH  23  24
ENDBRANCH  22  23
ENDBRANCH   4  22
TORSDOF 8
ENDMDL
MODEL 7
REMARK VINA RESULT:      -7.4      2.094      2.665
REMARK  8 active torsions:
REMARK  status: ('A' for Active; 'I' for Inactive)
REMARK    1  A    between atoms: O1_2  and  C2_3 
REMARK    2  A    between atoms: C2_3  and  C3_4 
REMARK    3  A    between atoms: C3_4  and  C4_5 
REMARK    4  A    between atoms: C4_5  and  C5_7 
REMARK    5  A    between atoms: C10_12  and  N1_13 
REMARK    6  A    between atoms: C12_16  and  O3_17 
REMARK    7  A    between atoms: O3_17  and  C13_18 
REMARK    8  A    between atoms: C13_18  and  C14_19 
ROOT
HETATM    1  N1  UNL     1      24.787   4.252  50.755  1.00  0.00    -0.271 N 
HETATM    2  C11 UNL     1      24.231   5.475  50.976  1.00  0.00     0.221 A 
HETATM    3  N2  UNL     1      24.750   6.572  50.411  1.00  0.00    -0.218 NA
HETATM    4  C12 UNL     1      25.829   6.501  49.613  1.00  0.00     0.193 A 
HETATM    5  C19 UNL     1      26.417   5.260  49.373  1.00  0.00     0.155 A 
HETATM    6 CL1  UNL     1      27.828   5.185  48.328  1.00  0.00    -0.074 Cl
HETATM    7  C20 UNL     1      25.866   4.143  49.965  1.00  0.00     0.279 A 
HETATM    8  O4  UNL     1      26.471   3.062  49.685  1.00  0.00    -0.266 OA
ENDROOT
BRANCH   1   9
HETATM    9  C10 UNL     1      24.345   3.006  51.276  1.00  0.00     0.050 A 
HETATM   10  C8  UNL     1      23.178   2.574  50.642  1.00  0.00    -0.035 A 
HETATM   11  C7  UNL     1      22.620   1.364  51.039  1.00  0.00     0.010 A 
HETATM   12  C9  UNL     1      22.477   3.318  49.558  1.00  0.00     0.050 C 
HETATM   13  C6  UNL     1      23.254   0.663  52.041  1.00  0.00     0.016 A 
HETATM   14  C5  UNL     1      24.417   1.057  52.699  1.00  0.00     0.012 A 
HETATM   15  C21 UNL     1      24.933   2.260  52.271  1.00  0.00     0.045 A 
BRANCH  14  16
HETATM   16  C4  UNL     1      25.048   0.291  53.755  1.00  0.00     0.161 C 
HETATM   17  O2  UNL     1      24.314  -0.579  54.343  1.00  0.00    -0.292 OA
BRANCH  16  18
HETATM   18  C3  UNL     1      26.426   0.444  54.177  1.00  0.00     0.110 C 
BRANCH  18  19
HETATM   19  C2  UNL     1      27.502  -0.271  53.469  1.00  0.00     0.174 C 
BRANCH  19  20
HETATM   20  O1  UNL     1      28.451  -0.963  54.116  1.00  0.00    -0.396 OA
HETATM   21  C1  UNL     1      29.760  -0.838  53.737  1.00  0.00     0.201 C 
ENDBRANCH  19  20
ENDBRANCH  18  19
ENDBRANCH  16  18
ENDBRANCH  14  16
ENDBRANCH   1   9
BRANCH   4  22
HETATM   22  O3  UNL     1      26.390   7.614  49.014  1.00  0.00    -0.332 OA
BRANCH  22  23
HETATM   23  C13 UNL     1      27.370   8.418  49.612  1.00  0.00     0.193 C 
BRANCH  23  24
HETATM   24  C14 UNL     1      28.199   9.123  48.557  1.00  0.00     0.098 A 
HETATM   25  C15 UNL     1      27.675   8.896  47.196  1.00  0.00     0.029 A 
HETATM   26  C16 UNL     1      28.566   8.265  46.451  1.00  0.00     0.116 A 
HETATM   27  F1  UNL     1      28.543   7.841  45.144  1.00  0.00    -0.206 F 
HETATM   28  C17 UNL     1      29.776   8.010  47.245  1.00  0.00     0.080 A 
HETATM   29  C18 UNL     1      29.560   8.503  48.452  1.00  0.00     0.106 A 
HETATM   30  F2  UNL     1      30.367   8.525  49.559  1.00  0.00    -0.210 F 
ENDBRANCH  23  24
ENDBRANCH  22  23
ENDBRANCH   4  22
TORSDOF 8
ENDMDL
MODEL 8
REMARK VINA RESULT:      -7.3      3.715      8.352
REMARK  8 active torsions:
REMARK  status: ('A' for Active; 'I' for Inactive)
REMARK    1  A    between atoms: O1_2  and  C2_3 
REMARK    2  A    between atoms: C2_3  and  C3_4 
REMARK    3  A    between atoms: C3_4  and  C4_5 
REMARK    4  A    between atoms: C4_5  and  C5_7 
REMARK    5  A    between atoms: C10_12  and  N1_13 
REMARK    6  A    between atoms: C12_16  and  O3_17 
REMARK    7  A    between atoms: O3_17  and  C13_18 
REMARK    8  A    between atoms: C13_18  and  C14_19 
ROOT
HETATM    1  N1  UNL     1      23.560   4.054  50.428  1.00  0.00    -0.271 N 
HETATM    2  C11 UNL     1      22.690   3.558  51.351  1.00  0.00     0.221 A 
HETATM    3  N2  UNL     1      23.102   2.686  52.278  1.00  0.00    -0.218 NA
HETATM    4  C12 UNL     1      24.380   2.274  52.328  1.00  0.00     0.193 A 
HETATM    5  C19 UNL     1      25.291   2.766  51.393  1.00  0.00     0.155 A 
HETATM    6 CL1  UNL     1      26.957   2.216  51.472  1.00  0.00    -0.074 Cl
HETATM    7  C20 UNL     1      24.844   3.664  50.447  1.00  0.00     0.279 A 
HETATM    8  O4  UNL     1      25.746   4.054  49.642  1.00  0.00    -0.266 OA
ENDROOT
BRANCH   1   9
HETATM    9  C10 UNL     1      23.271   4.986  49.396  1.00  0.00     0.050 A 
HETATM   10  C8  UNL     1      23.424   6.301  49.840  1.00  0.00    -0.035 A 
HETATM   11  C7  UNL     1      23.180   7.334  48.942  1.00  0.00     0.010 A 
HETATM   12  C9  UNL     1      23.834   6.688  51.220  1.00  0.00     0.050 C 
HETATM   13  C6  UNL     1      22.800   6.995  47.662  1.00  0.00     0.016 A 
HETATM   14  C5  UNL     1      22.635   5.699  47.179  1.00  0.00     0.012 A 
HETATM   15  C21 UNL     1      22.889   4.711  48.103  1.00  0.00     0.045 A 
BRANCH  14  16
HETATM   16  C4  UNL     1      22.225   5.387  45.825  1.00  0.00     0.161 C 
HETATM   17  O2  UNL     1      22.202   6.365  44.998  1.00  0.00    -0.292 OA
BRANCH  16  18
HETATM   18  C3  UNL     1      21.847   4.068  45.359  1.00  0.00     0.110 C 
BRANCH  18  19
HETATM   19  C2  UNL     1      20.679   3.899  44.477  1.00  0.00     0.174 C 
BRANCH  19  20
HETATM   20  O1  UNL     1      20.797   3.559  43.185  1.00  0.00    -0.396 OA
HETATM   21  C1  UNL     1      19.684   3.505  42.393  1.00  0.00     0.201 C 
ENDBRANCH  19  20
ENDBRANCH  18  19
ENDBRANCH  16  18
ENDBRANCH  14  16
ENDBRANCH   1   9
BRANCH   4  22
HETATM   22  O3  UNL     1      24.839   1.373  53.272  1.00  0.00    -0.332 OA
BRANCH  22  23
HETATM   23  C13 UNL     1      24.665  -0.014  53.185  1.00  0.00     0.193 C 
BRANCH  23  24
HETATM   24  C14 UNL     1      25.738  -0.738  53.973  1.00  0.00     0.098 A 
HETATM   25  C15 UNL     1      26.487   0.175  54.860  1.00  0.00     0.029 A 
HETATM   26  C16 UNL     1      27.764   0.211  54.523  1.00  0.00     0.116 A 
HETATM   27  F1  UNL     1      28.837   0.898  55.038  1.00  0.00    -0.206 F 
HETATM   28  C17 UNL     1      27.994  -0.679  53.374  1.00  0.00     0.080 A 
HETATM   29  C18 UNL     1      26.829  -1.219  53.064  1.00  0.00     0.106 A 
HETATM   30  F2  UNL     1      26.501  -2.113  52.078  1.00  0.00    -0.210 F 
ENDBRANCH  23  24
ENDBRANCH  22  23
ENDBRANCH   4  22
TORSDOF 8
ENDMDL
MODEL 9
REMARK VINA RESULT:      -7.3      2.147      3.111
REMARK  8 active torsions:
REMARK  status: ('A' for Active; 'I' for Inactive)
REMARK    1  A    between atoms: O1_2  and  C2_3 
REMARK    2  A    between atoms: C2_3  and  C3_4 
REMARK    3  A    between atoms: C3_4  and  C4_5 
REMARK    4  A    between atoms: C4_5  and  C5_7 
REMARK    5  A    between atoms: C10_12  and  N1_13 
REMARK    6  A    between atoms: C12_16  and  O3_17 
REMARK    7  A    between atoms: O3_17  and  C13_18 
REMARK    8  A    between atoms: C13_18  and  C14_19 
ROOT
HETATM    1  N1  UNL     1      25.803   4.621  49.942  1.00  0.00    -0.271 N 
HETATM    2  C11 UNL     1      26.755   4.590  48.970  1.00  0.00     0.221 A 
HETATM    3  N2  UNL     1      27.177   5.720  48.391  1.00  0.00    -0.218 NA
HETATM    4  C12 UNL     1      26.676   6.915  48.748  1.00  0.00     0.193 A 
HETATM    5  C19 UNL     1      25.699   6.974  49.741  1.00  0.00     0.155 A 
HETATM    6 CL1  UNL     1      25.054   8.544  50.196  1.00  0.00    -0.074 Cl
HETATM    7  C20 UNL     1      25.279   5.797  50.324  1.00  0.00     0.279 A 
HETATM    8  O4  UNL     1      24.389   5.954  51.216  1.00  0.00    -0.266 OA
ENDROOT
BRANCH   1   9
HETATM    9  C10 UNL     1      25.266   3.512  50.649  1.00  0.00     0.050 A 
HETATM   10  C8  UNL     1      24.063   3.082  50.085  1.00  0.00    -0.035 A 
HETATM   11  C7  UNL     1      23.412   1.998  50.663  1.00  0.00     0.010 A 
HETATM   12  C9  UNL     1      23.415   3.703  48.895  1.00  0.00     0.050 C 
HETATM   13  C6  UNL     1      23.996   1.412  51.764  1.00  0.00     0.016 A 
HETATM   14  C5  UNL     1      25.192   1.809  52.359  1.00  0.00     0.012 A 
HETATM   15  C21 UNL     1      25.800   2.885  51.751  1.00  0.00     0.045 A 
BRANCH  14  16
HETATM   16  C4  UNL     1      25.768   1.168  53.523  1.00  0.00     0.161 C 
HETATM   17  O2  UNL     1      26.295   1.944  54.396  1.00  0.00    -0.292 OA
BRANCH  16  18
HETATM   18  C3  UNL     1      25.785  -0.262  53.756  1.00  0.00     0.110 C 
BRANCH  18  19
HETATM   19  C2  UNL     1      26.986  -1.052  53.431  1.00  0.00     0.174 C 
BRANCH  19  20
HETATM   20  O1  UNL     1      28.133  -0.929  54.115  1.00  0.00    -0.396 OA
HETATM   21  C1  UNL     1      29.327  -0.947  53.447  1.00  0.00     0.201 C 
ENDBRANCH  19  20
ENDBRANCH  18  19
ENDBRANCH  16  18
ENDBRANCH  14  16
ENDBRANCH   1   9
BRANCH   4  22
HETATM   22  O3  UNL     1      27.089   8.102  48.169  1.00  0.00    -0.332 OA
BRANCH  22  23
HETATM   23  C13 UNL     1      28.371   8.317  47.648  1.00  0.00     0.193 C 
BRANCH  23  24
HETATM   24  C14 UNL     1      29.388   8.445  48.764  1.00  0.00     0.098 A 
HETATM   25  C15 UNL     1      29.366   9.784  49.385  1.00  0.00     0.029 A 
HETATM   26  C16 UNL     1      30.527  10.394  49.224  1.00  0.00     0.116 A 
HETATM   27  F1  UNL     1      30.985  11.629  49.616  1.00  0.00    -0.206 F 
HETATM   28  C17 UNL     1      31.442   9.517  48.478  1.00  0.00     0.080 A 
HETATM   29  C18 UNL     1      30.783   8.401  48.217  1.00  0.00     0.106 A 
HETATM   30  F2  UNL     1      31.181   7.272  47.551  1.00  0.00    -0.210 F 
ENDBRANCH  23  24
ENDBRANCH  22  23
ENDBRANCH   4  22
TORSDOF 8
ENDMDL
