MODEL 1
REMARK VINA RESULT:      -9.0      0.000      0.000
REMARK  6 active torsions:
REMARK  status: ('A' for Active; 'I' for Inactive)
REMARK    1  A    between atoms: C2_2  and  C3_3 
REMARK    2  A    between atoms: C3_3  and  C4_4 
REMARK    3  A    between atoms: C4_4  and  N1_5 
REMARK    4  A    between atoms: C10_13  and  O2_14 
REMARK    5  A    between atoms: C15_21  and  N5_22 
REMARK    6  A    between atoms: N5_22  and  C16_23 
ROOT
HETATM    1  N1  UNL     1      21.421   0.990  53.097  1.00  0.00    -0.328 N 
HETATM    2  C5  UNL     1      20.949   0.646  51.717  1.00  0.00     0.209 C 
HETATM    3  C6  UNL     1      21.814   1.285  50.650  1.00  0.00     0.178 C 
HETATM    4  O1  UNL     1      21.828   0.694  49.554  1.00  0.00    -0.291 OA
HETATM    5  C7  UNL     1      22.685   2.562  50.703  1.00  0.00     0.068 C 
HETATM    6  C8  UNL     1      22.453   2.702  49.284  1.00  0.00     0.009 C 
HETATM    7  C9  UNL     1      22.990   3.887  48.578  1.00  0.00     0.149 C 
HETATM    8  N2  UNL     1      22.421   5.167  48.823  1.00  0.00    -0.367 N 
HETATM    9  C10 UNL     1      22.022   5.635  50.099  1.00  0.00     0.139 C 
HETATM   10  C12 UNL     1      22.090   5.567  51.446  1.00  0.00     0.097 C 
HETATM   11  C13 UNL     1      22.463   4.239  51.931  1.00  0.00     0.245 A 
HETATM   12  N3  UNL     1      22.949   3.093  52.332  1.00  0.00     0.263 N 
HETATM   13  C14 UNL     1      22.193   2.059  52.709  1.00  0.00     0.468 A 
HETATM   14  N4  UNL     1      23.475   2.197  52.637  1.00  0.00     0.276 N 
HETATM   15  C15 UNL     1      24.642   2.375  52.553  1.00  0.00     0.312 A 
HETATM   16  C22 UNL     1      23.523   3.354  52.226  1.00  0.00     0.463 A 
HETATM   17  H15 UNL     1      22.183   5.955  48.198  1.00  0.00     0.161 HD
ENDROOT
BRANCH  15  18
HETATM   18  N5  UNL     1      26.058   2.586  52.453  1.00  0.00    -0.333 N 
HETATM   19  H20 UNL     1      25.987   3.492  52.005  1.00  0.00     0.167 HD
BRANCH  18  20
HETATM   20  C16 UNL     1      27.054   1.763  52.870  1.00  0.00     0.035 A 
HETATM   21  C17 UNL     1      28.309   2.013  53.490  1.00  0.00     0.032 A 
HETATM   22  C18 UNL     1      29.153   0.960  53.815  1.00  0.00     0.046 A 
HETATM   23  C19 UNL     1      28.806  -0.360  53.554  1.00  0.00     0.138 A 
HETATM   24  F1  UNL     1      29.734  -1.316  53.910  1.00  0.00    -0.204 F 
HETATM   25  C20 UNL     1      27.547  -0.741  52.929  1.00  0.00     0.074 A 
HETATM   26 CL1  UNL     1      27.169  -2.392  52.632  1.00  0.00    -0.081 Cl
HETATM   27  C21 UNL     1      26.970   0.448  52.736  1.00  0.00     0.056 A 
ENDBRANCH  18  20
ENDBRANCH  15  18
BRANCH   1  28
HETATM   28  C4  UNL     1      21.007   0.227  54.205  1.00  0.00     0.126 C 
BRANCH  28  29
HETATM   29  C3  UNL     1      21.608  -1.155  54.284  1.00  0.00     0.020 C 
BRANCH  29  30
HETATM   30  C2  UNL     1      22.757  -1.267  55.224  1.00  0.00    -0.003 C 
HETATM   31  C1  UNL     1      24.042  -0.889  54.523  1.00  0.00     0.005 C 
ENDBRANCH  29  30
ENDBRANCH  28  29
ENDBRANCH   1  28
BRANCH   9  32
HETATM   32  O2  UNL     1      21.083   6.706  50.223  1.00  0.00    -0.341 OA
HETATM   33  C11 UNL     1      21.766   7.987  50.147  1.00  0.00     0.211 C 
ENDBRANCH   9  32
TORSDOF 6
ENDMDL
MODEL 2
REMARK VINA RESULT:      -8.7      2.495      5.036
REMARK  6 active torsions:
REMARK  status: ('A' for Active; 'I' for Inactive)
REMARK    1  A    between atoms: C2_2  and  C3_3 
REMARK    2  A    between atoms: C3_3  and  C4_4 
REMARK    3  A    between atoms: C4_4  and  N1_5 
REMARK    4  A    between atoms: C10_13  and  O2_14 
REMARK    5  A    between atoms: C15_21  and  N5_22 
REMARK    6  A    between atoms: N5_22  and  C16_23 
ROOT
HETATM    1  N1  UNL     1      24.585   4.548  50.000  1.00  0.00    -0.328 N 
HETATM    2  C5  UNL     1      23.597   5.364  50.777  1.00  0.00     0.209 C 
HETATM    3  C6  UNL     1      22.813   4.517  51.758  1.00  0.00     0.178 C 
HETATM    4  O1  UNL     1      22.365   5.127  52.746  1.00  0.00    -0.291 OA
HETATM    5  C7  UNL     1      22.477   3.007  51.727  1.00  0.00     0.068 C 
HETATM    6  C8  UNL     1      21.283   3.323  52.476  1.00  0.00     0.009 C 
HETATM    7  C9  UNL     1      20.318   2.244  52.786  1.00  0.00     0.149 C 
HETATM    8  N2  UNL     1      19.542   1.675  51.739  1.00  0.00    -0.367 N 
HETATM    9  C10 UNL     1      20.035   1.381  50.444  1.00  0.00     0.139 C 
HETATM   10  C12 UNL     1      21.071   1.139  49.613  1.00  0.00     0.097 C 
HETATM   11  C13 UNL     1      22.322   1.742  50.069  1.00  0.00     0.245 A 
HETATM   12  N3  UNL     1      23.455   2.154  50.577  1.00  0.00     0.263 N 
HETATM   13  C14 UNL     1      24.009   3.334  50.290  1.00  0.00     0.468 A 
HETATM   14  N4  UNL     1      24.393   2.379  51.069  1.00  0.00     0.276 N 
HETATM   15  C15 UNL     1      24.699   1.475  51.769  1.00  0.00     0.312 A 
HETATM   16  C22 UNL     1      23.461   1.598  50.893  1.00  0.00     0.463 A 
HETATM   17  H15 UNL     1      18.550   1.390  51.683  1.00  0.00     0.161 HD
ENDROOT
BRANCH  15  18
HETATM   18  N5  UNL     1      25.075   0.381  52.619  1.00  0.00    -0.333 N 
HETATM   19  H20 UNL     1      24.128   0.140  52.888  1.00  0.00     0.167 HD
BRANCH  18  20
HETATM   20  C16 UNL     1      26.325  -0.078  52.882  1.00  0.00     0.035 A 
HETATM   21  C17 UNL     1      26.937  -1.350  52.710  1.00  0.00     0.032 A 
HETATM   22  C18 UNL     1      28.262  -1.546  53.074  1.00  0.00     0.046 A 
HETATM   23  C19 UNL     1      29.031  -0.521  53.607  1.00  0.00     0.138 A 
HETATM   24  F1  UNL     1      30.330  -0.843  53.942  1.00  0.00    -0.204 F 
HETATM   25  C20 UNL     1      28.519   0.825  53.825  1.00  0.00     0.074 A 
HETATM   26 CL1  UNL     1      29.519   2.058  54.486  1.00  0.00    -0.081 Cl
HETATM   27  C21 UNL     1      27.259   0.707  53.398  1.00  0.00     0.056 A 
ENDBRANCH  18  20
ENDBRANCH  15  18
BRANCH   1  28
HETATM   28  C4  UNL     1      25.649   5.171  49.321  1.00  0.00     0.126 C 
BRANCH  28  29
HETATM   29  C3  UNL     1      26.872   4.306  49.129  1.00  0.00     0.020 C 
BRANCH  29  30
HETATM   30  C2  UNL     1      28.037   5.021  48.541  1.00  0.00    -0.003 C 
HETATM   31  C1  UNL     1      27.675   6.460  48.252  1.00  0.00     0.005 C 
ENDBRANCH  29  30
ENDBRANCH  28  29
ENDBRANCH   1  28
BRANCH   9  32
HETATM   32  O2  UNL     1      19.142   1.235  49.338  1.00  0.00    -0.341 OA
HETATM   33  C11 UNL     1      17.775   1.499  49.756  1.00  0.00     0.211 C 
ENDBRANCH   9  32
TORSDOF 6
ENDMDL
MODEL 3
REMARK VINA RESULT:      -8.5      1.321      1.709
REMARK  6 active torsions:
REMARK  status: ('A' for Active; 'I' for Inactive)
REMARK    1  A    between atoms: C2_2  and  C3_3 
REMARK    2  A    between atoms: C3_3  and  C4_4 
REMARK    3  A    between atoms: C4_4  and  N1_5 
REMARK    4  A    between atoms: C10_13  and  O2_14 
REMARK    5  A    between atoms: C15_21  and  N5_22 
REMARK    6  A    between atoms: N5_22  and  C16_23 
ROOT
HETATM    1  N1  UNL     1      20.751   1.043  52.089  1.00  0.00    -0.328 N 
HETATM    2  C5  UNL     1      20.676   1.135  50.595  1.00  0.00     0.209 C 
HETATM    3  C6  UNL     1      21.941   1.720  50.002  1.00  0.00     0.178 C 
HETATM    4  O1  UNL     1      22.178   1.388  48.825  1.00  0.00    -0.291 OA
HETATM    5  C7  UNL     1      22.990   2.670  50.626  1.00  0.00     0.068 C 
HETATM    6  C8  UNL     1      23.246   3.159  49.291  1.00  0.00     0.009 C 
HETATM    7  C9  UNL     1      24.205   4.272  49.102  1.00  0.00     0.149 C 
HETATM    8  N2  UNL     1      23.856   5.579  49.541  1.00  0.00    -0.367 N 
HETATM    9  C10 UNL     1      23.180   5.864  50.753  1.00  0.00     0.139 C 
HETATM   10  C12 UNL     1      22.808   5.502  51.999  1.00  0.00     0.097 C 
HETATM   11  C13 UNL     1      22.735   4.052  52.174  1.00  0.00     0.245 A 
HETATM   12  N3  UNL     1      22.831   2.760  52.350  1.00  0.00     0.263 N 
HETATM   13  C14 UNL     1      21.803   1.917  52.221  1.00  0.00     0.468 A 
HETATM   14  N4  UNL     1      23.043   1.711  52.516  1.00  0.00     0.276 N 
HETATM   15  C15 UNL     1      24.188   1.577  52.783  1.00  0.00     0.312 A 
HETATM   16  C22 UNL     1      23.449   2.870  52.469  1.00  0.00     0.463 A 
HETATM   17  H15 UNL     1      23.989   6.514  49.121  1.00  0.00     0.161 HD
ENDROOT
BRANCH  15  18
HETATM   18  N5  UNL     1      25.577   1.410  53.107  1.00  0.00    -0.333 N 
HETATM   19  H20 UNL     1      25.727   2.374  53.382  1.00  0.00     0.167 HD
BRANCH  18  20
HETATM   20  C16 UNL     1      26.318   0.275  53.032  1.00  0.00     0.035 A 
HETATM   21  C17 UNL     1      25.985  -1.071  52.718  1.00  0.00     0.032 A 
HETATM   22  C18 UNL     1      26.964  -2.054  52.716  1.00  0.00     0.046 A 
HETATM   23  C19 UNL     1      28.290  -1.764  53.011  1.00  0.00     0.138 A 
HETATM   24  F1  UNL     1      29.167  -2.828  52.991  1.00  0.00    -0.204 F 
HETATM   25  C20 UNL     1      28.755  -0.424  53.341  1.00  0.00     0.074 A 
HETATM   26 CL1  UNL     1      30.410  -0.122  53.696  1.00  0.00    -0.081 Cl
HETATM   27  C21 UNL     1      27.622   0.280  53.268  1.00  0.00     0.056 A 
ENDBRANCH  18  20
ENDBRANCH  15  18
BRANCH   1  28
HETATM   28  C4  UNL     1      19.866   0.210  52.798  1.00  0.00     0.126 C 
BRANCH  28  29
HETATM   29  C3  UNL     1      20.421  -0.359  54.082  1.00  0.00     0.020 C 
BRANCH  29  30
HETATM   30  C2  UNL     1      21.553  -1.306  53.889  1.00  0.00    -0.003 C 
HETATM   31  C1  UNL     1      22.575  -1.128  54.989  1.00  0.00     0.005 C 
ENDBRANCH  29  30
ENDBRANCH  28  29
ENDBRANCH   1  28
BRANCH   9  32
HETATM   32  O2  UNL     1      22.484   7.100  50.928  1.00  0.00    -0.341 OA
HETATM   33  C11 UNL     1      22.631   7.933  49.746  1.00  0.00     0.211 C 
ENDBRANCH   9  32
TORSDOF 6
ENDMDL
MODEL 4
REMARK VINA RESULT:      -8.4      2.905      5.398
REMARK  6 active torsions:
REMARK  status: ('A' for Active; 'I' for Inactive)
REMARK    1  A    between atoms: C2_2  and  C3_3 
REMARK    2  A    between atoms: C3_3  and  C4_4 
REMARK    3  A    between atoms: C4_4  and  N1_5 
REMARK    4  A    between atoms: C10_13  and  O2_14 
REMARK    5  A    between atoms: C15_21  and  N5_22 
REMARK    6  A    between atoms: N5_22  and  C16_23 
ROOT
HETATM    1  N1  UNL     1      25.249   6.226  50.093  1.00  0.00    -0.328 N 
HETATM    2  C5  UNL     1      24.103   6.507  51.016  1.00  0.00     0.209 C 
HETATM    3  C6  UNL     1      23.561   5.240  51.645  1.00  0.00     0.178 C 
HETATM    4  O1  UNL     1      22.991   5.393  52.741  1.00  0.00    -0.291 OA
HETATM    5  C7  UNL     1      23.602   3.779  51.139  1.00  0.00     0.068 C 
HETATM    6  C8  UNL     1      22.376   3.559  51.873  1.00  0.00     0.009 C 
HETATM    7  C9  UNL     1      21.707   2.241  51.782  1.00  0.00     0.149 C 
HETATM    8  N2  UNL     1      21.078   1.857  50.567  1.00  0.00    -0.367 N 
HETATM    9  C10 UNL     1      21.611   2.101  49.276  1.00  0.00     0.139 C 
HETATM   10  C12 UNL     1      22.663   2.376  48.477  1.00  0.00     0.097 C 
HETATM   11  C13 UNL     1      23.736   3.086  49.171  1.00  0.00     0.245 A 
HETATM   12  N3  UNL     1      24.742   3.576  49.849  1.00  0.00     0.263 N 
HETATM   13  C14 UNL     1      24.989   4.883  49.966  1.00  0.00     0.468 A 
HETATM   14  N4  UNL     1      25.603   3.853  50.444  1.00  0.00     0.276 N 
HETATM   15  C15 UNL     1      26.129   2.875  50.856  1.00  0.00     0.312 A 
HETATM   16  C22 UNL     1      24.887   2.968  49.982  1.00  0.00     0.463 A 
HETATM   17  H15 UNL     1      20.184   1.378  50.365  1.00  0.00     0.161 HD
ENDROOT
BRANCH  15  18
HETATM   18  N5  UNL     1      26.771   1.694  51.358  1.00  0.00    -0.333 N 
HETATM   19  H20 UNL     1      27.465   1.643  50.621  1.00  0.00     0.167 HD
BRANCH  18  20
HETATM   20  C16 UNL     1      26.455   0.983  52.470  1.00  0.00     0.035 A 
HETATM   21  C17 UNL     1      27.189   0.661  53.645  1.00  0.00     0.032 A 
HETATM   22  C18 UNL     1      26.607  -0.101  54.649  1.00  0.00     0.046 A 
HETATM   23  C19 UNL     1      25.303  -0.567  54.548  1.00  0.00     0.138 A 
HETATM   24  F1  UNL     1      24.842  -1.325  55.604  1.00  0.00    -0.204 F 
HETATM   25  C20 UNL     1      24.450  -0.297  53.398  1.00  0.00     0.074 A 
HETATM   26 CL1  UNL     1      22.840  -0.898  53.328  1.00  0.00    -0.081 Cl
HETATM   27  C21 UNL     1      25.261   0.429  52.625  1.00  0.00     0.056 A 
ENDBRANCH  18  20
ENDBRANCH  15  18
BRANCH   1  28
HETATM   28  C4  UNL     1      26.120   7.260  49.700  1.00  0.00     0.126 C 
BRANCH  28  29
HETATM   29  C3  UNL     1      26.630   7.156  48.283  1.00  0.00     0.020 C 
BRANCH  29  30
HETATM   30  C2  UNL     1      28.075   6.816  48.177  1.00  0.00    -0.003 C 
HETATM   31  C1  UNL     1      28.279   5.334  48.397  1.00  0.00     0.005 C 
ENDBRANCH  29  30
ENDBRANCH  28  29
ENDBRANCH   1  28
BRANCH   9  32
HETATM   32  O2  UNL     1      20.765   2.096  48.124  1.00  0.00    -0.341 OA
HETATM   33  C11 UNL     1      19.569   2.884  48.373  1.00  0.00     0.211 C 
ENDBRANCH   9  32
TORSDOF 6
ENDMDL
MODEL 5
REMARK VINA RESULT:      -8.2      3.292      5.788
REMARK  6 active torsions:
REMARK  status: ('A' for Active; 'I' for Inactive)
REMARK    1  A    between atoms: C2_2  and  C3_3 
REMARK    2  A    between atoms: C3_3  and  C4_4 
REMARK    3  A    between atoms: C4_4  and  N1_5 
REMARK    4  A    between atoms: C10_13  and  O2_14 
REMARK    5  A    between atoms: C15_21  and  N5_22 
REMARK    6  A    between atoms: N5_22  and  C16_23 
ROOT
HETATM    1  N1  UNL     1      27.117   5.476  48.788  1.00  0.00    -0.328 N 
HETATM    2  C5  UNL     1      26.274   6.665  49.135  1.00  0.00     0.209 C 
HETATM    3  C6  UNL     1      25.206   6.321  50.154  1.00  0.00     0.178 C 
HETATM    4  O1  UNL     1      24.811   7.275  50.850  1.00  0.00    -0.291 OA
HETATM    5  C7  UNL     1      24.523   4.969  50.466  1.00  0.00     0.068 C 
HETATM    6  C8  UNL     1      23.365   5.725  50.884  1.00  0.00     0.009 C 
HETATM    7  C9  UNL     1      22.141   5.000  51.297  1.00  0.00     0.149 C 
HETATM    8  N2  UNL     1      21.371   4.312  50.319  1.00  0.00    -0.367 N 
HETATM    9  C10 UNL     1      21.920   3.553  49.255  1.00  0.00     0.139 C 
HETATM   10  C12 UNL     1      22.952   2.874  48.713  1.00  0.00     0.097 C 
HETATM   11  C13 UNL     1      24.253   3.324  49.204  1.00  0.00     0.245 A 
HETATM   12  N3  UNL     1      25.388   3.636  49.774  1.00  0.00     0.263 N 
HETATM   13  C14 UNL     1      26.238   4.543  49.285  1.00  0.00     0.468 A 
HETATM   14  N4  UNL     1      26.293   3.807  50.344  1.00  0.00     0.276 N 
HETATM   15  C15 UNL     1      26.294   3.111  51.301  1.00  0.00     0.312 A 
HETATM   16  C22 UNL     1      25.226   3.210  50.221  1.00  0.00     0.463 A 
HETATM   17  H15 UNL     1      20.352   4.225  50.169  1.00  0.00     0.161 HD
ENDROOT
BRANCH  15  18
HETATM   18  N5  UNL     1      26.300   2.268  52.463  1.00  0.00    -0.333 N 
HETATM   19  H20 UNL     1      25.342   2.464  52.727  1.00  0.00     0.167 HD
BRANCH  18  20
HETATM   20  C16 UNL     1      27.321   1.508  52.935  1.00  0.00     0.035 A 
HETATM   21  C17 UNL     1      28.520   1.833  53.626  1.00  0.00     0.032 A 
HETATM   22  C18 UNL     1      29.409   0.833  53.998  1.00  0.00     0.046 A 
HETATM   23  C19 UNL     1      29.161  -0.504  53.718  1.00  0.00     0.138 A 
HETATM   24  F1  UNL     1      30.125  -1.402  54.125  1.00  0.00    -0.204 F 
HETATM   25  C20 UNL     1      27.966  -0.961  53.022  1.00  0.00     0.074 A 
HETATM   26 CL1  UNL     1      27.709  -2.631  52.704  1.00  0.00    -0.081 Cl
HETATM   27  C21 UNL     1      27.327   0.190  52.797  1.00  0.00     0.056 A 
ENDBRANCH  18  20
ENDBRANCH  15  18
BRANCH   1  28
HETATM   28  C4  UNL     1      28.367   5.644  48.164  1.00  0.00     0.126 C 
BRANCH  28  29
HETATM   29  C3  UNL     1      28.680   7.059  47.740  1.00  0.00     0.020 C 
BRANCH  29  30
HETATM   30  C2  UNL     1      29.877   7.644  48.403  1.00  0.00    -0.003 C 
HETATM   31  C1  UNL     1      29.495   8.893  49.162  1.00  0.00     0.005 C 
ENDBRANCH  29  30
ENDBRANCH  28  29
ENDBRANCH   1  28
BRANCH   9  32
HETATM   32  O2  UNL     1      21.145   3.264  48.090  1.00  0.00    -0.341 OA
HETATM   33  C11 UNL     1      19.845   2.734  48.467  1.00  0.00     0.211 C 
ENDBRANCH   9  32
TORSDOF 6
ENDMDL
MODEL 6
REMARK VINA RESULT:      -8.2      1.694      2.047
REMARK  6 active torsions:
REMARK  status: ('A' for Active; 'I' for Inactive)
REMARK    1  A    between atoms: C2_2  and  C3_3 
REMARK    2  A    between atoms: C3_3  and  C4_4 
REMARK    3  A    between atoms: C4_4  and  N1_5 
REMARK    4  A    between atoms: C10_13  and  O2_14 
REMARK    5  A    between atoms: C15_21  and  N5_22 
REMARK    6  A    between atoms: N5_22  and  C16_23 
ROOT
HETATM    1  N1  UNL     1      21.567   2.321  51.197  1.00  0.00    -0.328 N 
HETATM    2  C5  UNL     1      22.038   2.325  49.775  1.00  0.00     0.209 C 
HETATM    3  C6  UNL     1      23.441   2.882  49.647  1.00  0.00     0.178 C 
HETATM    4  O1  UNL     1      24.082   2.484  48.657  1.00  0.00    -0.291 OA
HETATM    5  C7  UNL     1      24.208   3.874  50.554  1.00  0.00     0.068 C 
HETATM    6  C8  UNL     1      24.937   4.286  49.377  1.00  0.00     0.009 C 
HETATM    7  C9  UNL     1      25.916   5.392  49.484  1.00  0.00     0.149 C 
HETATM    8  N2  UNL     1      25.453   6.720  49.694  1.00  0.00    -0.367 N 
HETATM    9  C10 UNL     1      24.389   7.070  50.562  1.00  0.00     0.139 C 
HETATM   10  C12 UNL     1      23.587   6.779  51.607  1.00  0.00     0.097 C 
HETATM   11  C13 UNL     1      23.433   5.341  51.825  1.00  0.00     0.245 A 
HETATM   12  N3  UNL     1      23.439   4.062  52.096  1.00  0.00     0.263 N 
HETATM   13  C14 UNL     1      22.514   3.207  51.652  1.00  0.00     0.468 A 
HETATM   14  N4  UNL     1      23.560   3.026  52.386  1.00  0.00     0.276 N 
HETATM   15  C15 UNL     1      24.530   2.914  53.056  1.00  0.00     0.312 A 
HETATM   16  C22 UNL     1      23.974   4.182  52.424  1.00  0.00     0.463 A 
HETATM   17  H15 UNL     1      25.744   7.630  49.298  1.00  0.00     0.161 HD
ENDROOT
BRANCH  15  18
HETATM   18  N5  UNL     1      25.704   2.774  53.869  1.00  0.00    -0.333 N 
HETATM   19  H20 UNL     1      25.429   3.468  54.554  1.00  0.00     0.167 HD
BRANCH  18  20
HETATM   20  C16 UNL     1      26.758   1.941  53.673  1.00  0.00     0.035 A 
HETATM   21  C17 UNL     1      28.163   2.123  53.805  1.00  0.00     0.032 A 
HETATM   22  C18 UNL     1      29.034   1.077  53.532  1.00  0.00     0.046 A 
HETATM   23  C19 UNL     1      28.573  -0.170  53.130  1.00  0.00     0.138 A 
HETATM   24  F1  UNL     1      29.536  -1.123  52.875  1.00  0.00    -0.204 F 
HETATM   25  C20 UNL     1      27.159  -0.479  52.965  1.00  0.00     0.074 A 
HETATM   26 CL1  UNL     1      26.646  -2.043  52.467  1.00  0.00    -0.081 Cl
HETATM   27  C21 UNL     1      26.589   0.686  53.285  1.00  0.00     0.056 A 
ENDBRANCH  18  20
ENDBRANCH  15  18
BRANCH   1  28
HETATM   28  C4  UNL     1      20.472   1.525  51.585  1.00  0.00     0.126 C 
BRANCH  28  29
HETATM   29  C3  UNL     1      20.833   0.139  52.061  1.00  0.00     0.020 C 
BRANCH  29  30
HETATM   30  C2  UNL     1      21.580   0.111  53.348  1.00  0.00    -0.003 C 
HETATM   31  C1  UNL     1      22.872  -0.657  53.184  1.00  0.00     0.005 C 
ENDBRANCH  29  30
ENDBRANCH  28  29
ENDBRANCH   1  28
BRANCH   9  32
HETATM   32  O2  UNL     1      23.697   8.311  50.404  1.00  0.00    -0.341 OA
HETATM   33  C11 UNL     1      23.244   8.465  49.031  1.00  0.00     0.211 C 
ENDBRANCH   9  32
TORSDOF 6
ENDMDL
MODEL 7
REMARK VINA RESULT:      -8.0      3.760      6.471
REMARK  6 active torsions:
REMARK  status: ('A' for Active; 'I' for Inactive)
REMARK    1  A    between atoms: C2_2  and  C3_3 
REMARK    2  A    between atoms: C3_3  and  C4_4 
REMARK    3  A    between atoms: C4_4  and  N1_5 
REMARK    4  A    between atoms: C10_13  and  O2_14 
REMARK    5  A    between atoms: C15_21  and  N5_22 
REMARK    6  A    between atoms: N5_22  and  C16_23 
ROOT
HETATM    1  N1  UNL     1      25.515   0.801  52.901  1.00  0.00    -0.328 N 
HETATM    2  C5  UNL     1      25.620   2.289  53.042  1.00  0.00     0.209 C 
HETATM    3  C6  UNL     1      24.260   2.954  53.030  1.00  0.00     0.178 C 
HETATM    4  O1  UNL     1      24.201   4.051  53.616  1.00  0.00    -0.291 OA
HETATM    5  C7  UNL     1      22.925   2.488  52.402  1.00  0.00     0.068 C 
HETATM    6  C8  UNL     1      22.578   3.883  52.262  1.00  0.00     0.009 C 
HETATM    7  C9  UNL     1      21.310   4.248  51.589  1.00  0.00     0.149 C 
HETATM    8  N2  UNL     1      21.178   4.048  50.188  1.00  0.00    -0.367 N 
HETATM    9  C10 UNL     1      21.664   2.914  49.490  1.00  0.00     0.139 C 
HETATM   10  C12 UNL     1      22.081   1.630  49.489  1.00  0.00     0.097 C 
HETATM   11  C13 UNL     1      22.630   1.207  50.776  1.00  0.00     0.245 A 
HETATM   12  N3  UNL     1      22.968   0.808  51.975  1.00  0.00     0.263 N 
HETATM   13  C14 UNL     1      24.224   0.806  52.427  1.00  0.00     0.468 A 
HETATM   14  N4  UNL     1      23.115   0.459  52.989  1.00  0.00     0.276 N 
HETATM   15  C15 UNL     1      22.071   0.155  53.457  1.00  0.00     0.312 A 
HETATM   16  C22 UNL     1      22.344   0.700  52.063  1.00  0.00     0.463 A 
HETATM   17  H15 UNL     1      20.756   4.621  49.439  1.00  0.00     0.161 HD
ENDROOT
BRANCH  15  18
HETATM   18  N5  UNL     1      20.808  -0.215  54.030  1.00  0.00    -0.333 N 
HETATM   19  H20 UNL     1      21.132  -0.204  54.990  1.00  0.00     0.167 HD
BRANCH  18  20
HETATM   20  C16 UNL     1      19.641  -0.462  53.382  1.00  0.00     0.035 A 
HETATM   21  C17 UNL     1      18.931   0.250  52.377  1.00  0.00     0.032 A 
HETATM   22  C18 UNL     1      17.731  -0.243  51.883  1.00  0.00     0.046 A 
HETATM   23  C19 UNL     1      17.188  -1.436  52.341  1.00  0.00     0.138 A 
HETATM   24  F1  UNL     1      15.985  -1.814  51.784  1.00  0.00    -0.204 F 
HETATM   25  C20 UNL     1      17.825  -2.257  53.362  1.00  0.00     0.074 A 
HETATM   26 CL1  UNL     1      17.108  -3.729  53.890  1.00  0.00    -0.081 Cl
HETATM   27  C21 UNL     1      18.921  -1.545  53.636  1.00  0.00     0.056 A 
ENDBRANCH  18  20
ENDBRANCH  15  18
BRANCH   1  28
HETATM   28  C4  UNL     1      26.596  -0.029  53.251  1.00  0.00     0.126 C 
BRANCH  28  29
HETATM   29  C3  UNL     1      27.183   0.236  54.617  1.00  0.00     0.020 C 
BRANCH  29  30
HETATM   30  C2  UNL     1      28.671   0.216  54.656  1.00  0.00    -0.003 C 
HETATM   31  C1  UNL     1      29.203  -0.834  53.707  1.00  0.00     0.005 C 
ENDBRANCH  29  30
ENDBRANCH  28  29
ENDBRANCH   1  28
BRANCH   9  32
HETATM   32  O2  UNL     1      21.893   2.967  48.081  1.00  0.00    -0.341 OA
HETATM   33  C11 UNL     1      20.863   3.761  47.432  1.00  0.00     0.211 C 
ENDBRANCH   9  32
TORSDOF 6
ENDMDL
MODEL 8
REMARK VINA RESULT:      -7.6      2.882      5.332
REMARK  6 active torsions:
REMARK  status: ('A' for Active; 'I' for Inactive)
REMARK    1  A    between atoms: C2_2  and  C3_3 
REMARK    2  A    between atoms: C3_3  and  C4_4 
REMARK    3  A    between atoms: C4_4  and  N1_5 
REMARK    4  A    between atoms: C10_13  and  O2_14 
REMARK    5  A    between atoms: C15_21  and  N5_22 
REMARK    6  A    between atoms: N5_22  and  C16_23 
ROOT
HETATM    1  N1  UNL     1      24.811   3.882  49.924  1.00  0.00    -0.328 N 
HETATM    2  C5  UNL     1      24.072   5.110  50.363  1.00  0.00     0.209 C 
HETATM    3  C6  UNL     1      22.706   4.775  50.925  1.00  0.00     0.178 C 
HETATM    4  O1  UNL     1      22.248   5.603  51.735  1.00  0.00    -0.291 OA
HETATM    5  C7  UNL     1      21.782   3.565  50.651  1.00  0.00     0.068 C 
HETATM    6  C8  UNL     1      20.665   4.432  50.948  1.00  0.00     0.009 C 
HETATM    7  C9  UNL     1      19.288   3.909  50.803  1.00  0.00     0.149 C 
HETATM    8  N2  UNL     1      18.771   3.646  49.505  1.00  0.00    -0.367 N 
HETATM    9  C10 UNL     1      19.513   3.056  48.451  1.00  0.00     0.139 C 
HETATM   10  C12 UNL     1      20.560   2.317  48.028  1.00  0.00     0.097 C 
HETATM   11  C13 UNL     1      21.694   2.354  48.949  1.00  0.00     0.245 A 
HETATM   12  N3  UNL     1      22.629   2.276  49.860  1.00  0.00     0.263 N 
HETATM   13  C14 UNL     1      23.703   3.069  49.888  1.00  0.00     0.468 A 
HETATM   14  N4  UNL     1      23.328   2.113  50.671  1.00  0.00     0.276 N 
HETATM   15  C15 UNL     1      22.939   1.230  51.356  1.00  0.00     0.312 A 
HETATM   16  C22 UNL     1      22.281   1.802  50.109  1.00  0.00     0.463 A 
HETATM   17  H15 UNL     1      17.846   3.815  49.075  1.00  0.00     0.161 HD
ENDROOT
BRANCH  15  18
HETATM   18  N5  UNL     1      22.472   0.160  52.190  1.00  0.00    -0.333 N 
HETATM   19  H20 UNL     1      21.678  -0.075  51.607  1.00  0.00     0.167 HD
BRANCH  18  20
HETATM   20  C16 UNL     1      23.016  -0.290  53.350  1.00  0.00     0.035 A 
HETATM   21  C17 UNL     1      22.465  -0.986  54.462  1.00  0.00     0.032 A 
HETATM   22  C18 UNL     1      23.268  -1.330  55.541  1.00  0.00     0.046 A 
HETATM   23  C19 UNL     1      24.620  -1.016  55.574  1.00  0.00     0.138 A 
HETATM   24  F1  UNL     1      25.308  -1.398  56.706  1.00  0.00    -0.204 F 
HETATM   25  C20 UNL     1      25.298  -0.313  54.493  1.00  0.00     0.074 A 
HETATM   26 CL1  UNL     1      26.977   0.046  54.586  1.00  0.00    -0.081 Cl
HETATM   27  C21 UNL     1      24.299  -0.119  53.628  1.00  0.00     0.056 A 
ENDBRANCH  18  20
ENDBRANCH  15  18
BRANCH   1  28
HETATM   28  C4  UNL     1      26.203   3.920  49.723  1.00  0.00     0.126 C 
BRANCH  28  29
HETATM   29  C3  UNL     1      26.702   5.126  48.963  1.00  0.00     0.020 C 
BRANCH  29  30
HETATM   30  C2  UNL     1      28.111   5.013  48.498  1.00  0.00    -0.003 C 
HETATM   31  C1  UNL     1      28.606   6.353  48.002  1.00  0.00     0.005 C 
ENDBRANCH  29  30
ENDBRANCH  28  29
ENDBRANCH   1  28
BRANCH   9  32
HETATM   32  O2  UNL     1      19.103   3.217  47.092  1.00  0.00    -0.341 OA
HETATM   33  C11 UNL     1      19.951   4.188  46.421  1.00  0.00     0.211 C 
ENDBRANCH   9  32
TORSDOF 6
ENDMDL
MODEL 9
REMARK VINA RESULT:      -7.6      2.108      3.042
REMARK  6 active torsions:
REMARK  status: ('A' for Active; 'I' for Inactive)
REMARK    1  A    between atoms: C2_2  and  C3_3 
REMARK    2  A    between atoms: C3_3  and  C4_4 
REMARK    3  A    between atoms: C4_4  and  N1_5 
REMARK    4  A    between atoms: C10_13  and  O2_14 
REMARK    5  A    between atoms: C15_21  and  N5_22 
REMARK    6  A    between atoms: N5_22  and  C16_23 
ROOT
HETATM    1  N1  UNL     1      19.971   1.025  51.343  1.00  0.00    -0.328 N 
HETATM    2  C5  UNL     1      20.253   1.321  49.902  1.00  0.00     0.209 C 
HETATM    3  C6  UNL     1      21.727   1.567  49.655  1.00  0.00     0.178 C 
HETATM    4  O1  UNL     1      22.118   1.329  48.497  1.00  0.00    -0.291 OA
HETATM    5  C7  UNL     1      22.830   2.070  50.615  1.00  0.00     0.068 C 
HETATM    6  C8  UNL     1      23.496   2.622  49.458  1.00  0.00     0.009 C 
HETATM    7  C9  UNL     1      24.736   3.408  49.645  1.00  0.00     0.149 C 
HETATM    8  N2  UNL     1      24.667   4.693  50.250  1.00  0.00    -0.367 N 
HETATM    9  C10 UNL     1      23.844   5.015  51.358  1.00  0.00     0.139 C 
HETATM   10  C12 UNL     1      23.124   4.629  52.432  1.00  0.00     0.097 C 
HETATM   11  C13 UNL     1      22.626   3.259  52.323  1.00  0.00     0.245 A 
HETATM   12  N3  UNL     1      22.328   1.986  52.272  1.00  0.00     0.263 N 
HETATM   13  C14 UNL     1      21.165   1.516  51.814  1.00  0.00     0.468 A 
HETATM   14  N4  UNL     1      22.206   0.910  52.277  1.00  0.00     0.276 N 
HETATM   15  C15 UNL     1      23.185   0.405  52.710  1.00  0.00     0.312 A 
HETATM   16  C22 UNL     1      22.910   1.889  52.515  1.00  0.00     0.463 A 
HETATM   17  H15 UNL     1      25.137   5.590  50.038  1.00  0.00     0.161 HD
ENDROOT
BRANCH  15  18
HETATM   18  N5  UNL     1      24.370  -0.214  53.233  1.00  0.00    -0.333 N 
HETATM   19  H20 UNL     1      23.919  -1.086  53.483  1.00  0.00     0.167 HD
BRANCH  18  20
HETATM   20  C16 UNL     1      25.621   0.309  53.302  1.00  0.00     0.035 A 
HETATM   21  C17 UNL     1      26.100   1.644  53.402  1.00  0.00     0.032 A 
HETATM   22  C18 UNL     1      27.464   1.898  53.456  1.00  0.00     0.046 A 
HETATM   23  C19 UNL     1      28.399   0.873  53.420  1.00  0.00     0.138 A 
HETATM   24  F1  UNL     1      29.724   1.253  53.466  1.00  0.00    -0.204 F 
HETATM   25  C20 UNL     1      28.032  -0.534  53.325  1.00  0.00     0.074 A 
HETATM   26 CL1  UNL     1      29.233  -1.763  53.286  1.00  0.00    -0.081 Cl
HETATM   27  C21 UNL     1      26.698  -0.463  53.287  1.00  0.00     0.056 A 
ENDBRANCH  18  20
ENDBRANCH  15  18
BRANCH   1  28
HETATM   28  C4  UNL     1      18.760   0.416  51.724  1.00  0.00     0.126 C 
BRANCH  28  29
HETATM   29  C3  UNL     1      17.557   0.835  50.914  1.00  0.00     0.020 C 
BRANCH  29  30
HETATM   30  C2  UNL     1      16.976  -0.251  50.078  1.00  0.00    -0.003 C 
HETATM   31  C1  UNL     1      15.778  -0.860  50.772  1.00  0.00     0.005 C 
ENDBRANCH  29  30
ENDBRANCH  28  29
ENDBRANCH   1  28
BRANCH   9  32
HETATM   32  O2  UNL     1      23.488   6.371  51.634  1.00  0.00    -0.341 OA
HETATM   33  C11 UNL     1      22.977   7.013  50.434  1.00  0.00     0.211 C 
ENDBRANCH   9  32
TORSDOF 6
ENDMDL
