MODEL 1
REMARK VINA RESULT:      -8.6      0.000      0.000
REMARK  2 active torsions:
REMARK  status: ('A' for Active; 'I' for Inactive)
REMARK    1  A    between atoms: C8_12  and  N3_13 
REMARK    2  A    between atoms: N3_13  and  C9_14 
ROOT
HETATM    1  S1  UNL     1      26.016   8.884  50.094  1.00  0.00    -0.041 SA
HETATM    2  C1  UNL     1      24.783   7.823  50.088  1.00  0.00     0.172 C 
HETATM    3  N1  UNL     1      23.462   7.966  50.571  1.00  0.00    -0.365 N 
HETATM    4  C2  UNL     1      22.526   6.897  50.480  1.00  0.00     0.152 C 
HETATM    5  C3  UNL     1      22.051   6.536  49.111  1.00  0.00     0.289 C 
HETATM    6  N2  UNL     1      21.141   5.388  49.295  1.00  0.00     0.087 N 
HETATM    7  C4  UNL     1      20.693   4.903  48.003  1.00  0.00     0.295 C 
HETATM    8  C5  UNL     1      19.693   3.792  48.135  1.00  0.00     0.197 C 
HETATM    9  O1  UNL     1      20.003   2.672  48.768  1.00  0.00    -0.389 OA
HETATM   10  C6  UNL     1      20.912   1.758  48.497  1.00  0.00     0.175 C 
HETATM   11  C7  UNL     1      22.372   2.030  48.550  1.00  0.00     0.104 C 
HETATM   12  C8  UNL     1      22.861   2.467  49.886  1.00  0.00     0.107 C 
HETATM   13  N4  UNL     1      23.770   3.149  50.451  1.00  0.00    -0.229 NA
HETATM   14  C15 UNL     1      24.805   3.832  49.722  1.00  0.00     0.235 C 
HETATM   15  N5  UNL     1      25.979   4.200  50.154  1.00  0.00    -0.240 NA
HETATM   16  C16 UNL     1      26.885   4.878  49.265  1.00  0.00     0.085 A 
HETATM   17  C17 UNL     1      27.937   4.885  48.490  1.00  0.00     0.036 A 
HETATM   18  C18 UNL     1      27.807   6.272  48.119  1.00  0.00     0.034 A 
HETATM   19  C19 UNL     1      26.742   6.330  48.883  1.00  0.00     0.063 A 
HETATM   20  N6  UNL     1      25.653   6.939  49.464  1.00  0.00    -0.331 N 
HETATM   21  H1  UNL     1      23.415   8.935  50.948  1.00  0.00     0.161 HD
HETATM   22  H6  UNL     1      20.315   5.729  49.835  1.00  0.00     0.316 HD
HETATM   23  H23 UNL     1      24.904   6.258  49.370  1.00  0.00     0.168 HD
ENDROOT
BRANCH  12  24
HETATM   24  N3  UNL     1      22.051   1.882  50.922  1.00  0.00    -0.344 N 
HETATM   25  H15 UNL     1      20.997   1.940  51.090  1.00  0.00     0.167 HD
BRANCH  24  26
HETATM   26  C9  UNL     1      22.367   1.044  52.049  1.00  0.00     0.033 A 
HETATM   27  C10 UNL     1      23.655   0.657  52.341  1.00  0.00     0.031 A 
HETATM   28  C11 UNL     1      23.853  -0.132  53.443  1.00  0.00     0.026 A 
HETATM   29  C12 UNL     1      22.803  -0.526  54.231  1.00  0.00     0.034 A 
HETATM   30 CL1  UNL     1      23.178  -1.529  55.612  1.00  0.00    -0.084 Cl
HETATM   31  C13 UNL     1      21.485  -0.152  53.967  1.00  0.00     0.026 A 
HETATM   32  C14 UNL     1      21.287   0.656  52.838  1.00  0.00     0.031 A 
ENDBRANCH  24  26
ENDBRANCH  12  24
TORSDOF 2
ENDMDL
MODEL 2
REMARK VINA RESULT:      -7.9      3.791      7.347
REMARK  2 active torsions:
REMARK  status: ('A' for Active; 'I' for Inactive)
REMARK    1  A    between atoms: C8_12  and  N3_13 
REMARK    2  A    between atoms: N3_13  and  C9_14 
ROOT
HETATM    1  S1  UNL     1      18.687   0.540  50.549  1.00  0.00    -0.041 SA
HETATM    2  C1  UNL     1      19.451   1.913  50.129  1.00  0.00     0.172 C 
HETATM    3  N1  UNL     1      19.193   2.803  49.062  1.00  0.00    -0.365 N 
HETATM    4  C2  UNL     1      19.999   3.958  48.856  1.00  0.00     0.152 C 
HETATM    5  C3  UNL     1      19.884   5.047  49.873  1.00  0.00     0.289 C 
HETATM    6  N2  UNL     1      20.844   6.087  49.452  1.00  0.00     0.087 N 
HETATM    7  C4  UNL     1      20.872   7.156  50.433  1.00  0.00     0.295 C 
HETATM    8  C5  UNL     1      21.765   8.285  50.010  1.00  0.00     0.197 C 
HETATM    9  O1  UNL     1      23.051   8.080  49.775  1.00  0.00    -0.389 OA
HETATM   10  C6  UNL     1      24.016   7.680  50.577  1.00  0.00     0.175 C 
HETATM   11  C7  UNL     1      24.053   6.324  51.183  1.00  0.00     0.104 C 
HETATM   12  C8  UNL     1      24.090   5.215  50.191  1.00  0.00     0.107 C 
HETATM   13  N4  UNL     1      23.769   3.998  50.029  1.00  0.00    -0.229 NA
HETATM   14  C15 UNL     1      23.128   3.214  51.051  1.00  0.00     0.235 C 
HETATM   15  N5  UNL     1      23.120   1.916  51.178  1.00  0.00    -0.240 NA
HETATM   16  C16 UNL     1      22.415   1.312  52.278  1.00  0.00     0.085 A 
HETATM   17  C17 UNL     1      22.403   0.731  53.448  1.00  0.00     0.036 A 
HETATM   18  C18 UNL     1      20.969   0.593  53.502  1.00  0.00     0.034 A 
HETATM   19  C19 UNL     1      20.915   1.171  52.326  1.00  0.00     0.063 A 
HETATM   20  N6  UNL     1      20.286   1.685  51.214  1.00  0.00    -0.331 N 
HETATM   21  H1  UNL     1      18.368   2.403  48.568  1.00  0.00     0.161 HD
HETATM   22  H6  UNL     1      20.508   6.471  48.541  1.00  0.00     0.316 HD
HETATM   23  H23 UNL     1      20.761   2.567  51.042  1.00  0.00     0.168 HD
ENDROOT
BRANCH  12  24
HETATM   24  N3  UNL     1      24.764   5.648  48.994  1.00  0.00    -0.344 N 
HETATM   25  H15 UNL     1      24.366   5.965  48.055  1.00  0.00     0.167 HD
BRANCH  24  26
HETATM   26  C9  UNL     1      26.156   5.799  48.662  1.00  0.00     0.033 A 
HETATM   27  C10 UNL     1      27.071   4.787  48.842  1.00  0.00     0.031 A 
HETATM   28  C11 UNL     1      28.371   5.027  48.484  1.00  0.00     0.026 A 
HETATM   29  C12 UNL     1      28.751   6.236  47.962  1.00  0.00     0.034 A 
HETATM   30 CL1  UNL     1      30.436   6.425  47.538  1.00  0.00    -0.084 Cl
HETATM   31  C13 UNL     1      27.851   7.284  47.764  1.00  0.00     0.026 A 
HETATM   32  C14 UNL     1      26.522   7.034  48.131  1.00  0.00     0.031 A 
ENDBRANCH  24  26
ENDBRANCH  12  24
TORSDOF 2
ENDMDL
MODEL 3
REMARK VINA RESULT:      -7.8      3.998      7.675
REMARK  2 active torsions:
REMARK  status: ('A' for Active; 'I' for Inactive)
REMARK    1  A    between atoms: C8_12  and  N3_13 
REMARK    2  A    between atoms: N3_13  and  C9_14 
ROOT
HETATM    1  S1  UNL     1      21.193   0.816  49.700  1.00  0.00    -0.041 SA
HETATM    2  C1  UNL     1      21.826   2.238  49.230  1.00  0.00     0.172 C 
HETATM    3  N1  UNL     1      21.602   2.985  48.051  1.00  0.00    -0.365 N 
HETATM    4  C2  UNL     1      22.276   4.218  47.822  1.00  0.00     0.152 C 
HETATM    5  C3  UNL     1      21.889   5.367  48.695  1.00  0.00     0.289 C 
HETATM    6  N2  UNL     1      22.756   6.488  48.285  1.00  0.00     0.087 N 
HETATM    7  C4  UNL     1      22.517   7.635  49.142  1.00  0.00     0.295 C 
HETATM    8  C5  UNL     1      23.308   8.835  48.712  1.00  0.00     0.197 C 
HETATM    9  O1  UNL     1      24.630   8.791  48.657  1.00  0.00    -0.389 OA
HETATM   10  C6  UNL     1      25.521   8.603  49.607  1.00  0.00     0.175 C 
HETATM   11  C7  UNL     1      25.649   7.325  50.354  1.00  0.00     0.104 C 
HETATM   12  C8  UNL     1      25.958   6.148  49.498  1.00  0.00     0.107 C 
HETATM   13  N4  UNL     1      25.820   4.888  49.430  1.00  0.00    -0.229 NA
HETATM   14  C15 UNL     1      25.152   4.117  50.445  1.00  0.00     0.235 C 
HETATM   15  N5  UNL     1      25.292   2.848  50.707  1.00  0.00    -0.240 NA
HETATM   16  C16 UNL     1      24.529   2.253  51.773  1.00  0.00     0.085 A 
HETATM   17  C17 UNL     1      24.434   1.782  52.988  1.00  0.00     0.036 A 
HETATM   18  C18 UNL     1      23.035   1.451  52.884  1.00  0.00     0.034 A 
HETATM   19  C19 UNL     1      23.065   1.908  51.654  1.00  0.00     0.063 A 
HETATM   20  N6  UNL     1      22.531   2.228  50.426  1.00  0.00    -0.331 N 
HETATM   21  H1  UNL     1      20.909   2.431  47.507  1.00  0.00     0.161 HD
HETATM   22  H6  UNL     1      22.499   6.739  47.305  1.00  0.00     0.316 HD
HETATM   23  H23 UNL     1      22.909   3.149  50.220  1.00  0.00     0.168 HD
ENDROOT
BRANCH  12  24
HETATM   24  N3  UNL     1      26.726   6.561  48.352  1.00  0.00    -0.344 N 
HETATM   25  H15 UNL     1      26.405   6.965  47.416  1.00  0.00     0.167 HD
BRANCH  24  26
HETATM   26  C9  UNL     1      28.140   6.575  48.081  1.00  0.00     0.033 A 
HETATM   27  C10 UNL     1      28.929   5.458  48.225  1.00  0.00     0.031 A 
HETATM   28  C11 UNL     1      30.262   5.572  47.931  1.00  0.00     0.026 A 
HETATM   29  C12 UNL     1      30.795   6.761  47.506  1.00  0.00     0.034 A 
HETATM   30 CL1  UNL     1      32.507   6.785  47.157  1.00  0.00    -0.084 Cl
HETATM   31  C13 UNL     1      30.025   7.914  47.347  1.00  0.00     0.026 A 
HETATM   32  C14 UNL     1      28.662   7.792  47.649  1.00  0.00     0.031 A 
ENDBRANCH  24  26
ENDBRANCH  12  24
TORSDOF 2
ENDMDL
MODEL 4
REMARK VINA RESULT:      -7.7      4.645      6.794
REMARK  2 active torsions:
REMARK  status: ('A' for Active; 'I' for Inactive)
REMARK    1  A    between atoms: C8_12  and  N3_13 
REMARK    2  A    between atoms: N3_13  and  C9_14 
ROOT
HETATM    1  S1  UNL     1      24.997   2.628  53.267  1.00  0.00    -0.041 SA
HETATM    2  C1  UNL     1      23.662   2.989  52.412  1.00  0.00     0.172 C 
HETATM    3  N1  UNL     1      23.321   4.174  51.720  1.00  0.00    -0.365 N 
HETATM    4  C2  UNL     1      22.079   4.295  51.035  1.00  0.00     0.152 C 
HETATM    5  C3  UNL     1      21.905   3.458  49.810  1.00  0.00     0.289 C 
HETATM    6  N2  UNL     1      20.537   3.735  49.330  1.00  0.00     0.087 N 
HETATM    7  C4  UNL     1      20.237   2.896  48.185  1.00  0.00     0.295 C 
HETATM    8  C5  UNL     1      18.891   3.201  47.599  1.00  0.00     0.197 C 
HETATM    9  O1  UNL     1      17.793   3.089  48.330  1.00  0.00    -0.389 OA
HETATM   10  C6  UNL     1      17.251   2.036  48.906  1.00  0.00     0.175 C 
HETATM   11  C7  UNL     1      17.901   1.301  50.022  1.00  0.00     0.104 C 
HETATM   12  C8  UNL     1      18.158   2.132  51.229  1.00  0.00     0.107 C 
HETATM   13  N4  UNL     1      18.928   2.239  52.233  1.00  0.00    -0.229 NA
HETATM   14  C15 UNL     1      20.015   1.330  52.487  1.00  0.00     0.235 C 
HETATM   15  N5  UNL     1      20.593   1.074  53.627  1.00  0.00    -0.240 NA
HETATM   16  C16 UNL     1      21.674   0.124  53.679  1.00  0.00     0.085 A 
HETATM   17  C17 UNL     1      22.143  -1.061  53.967  1.00  0.00     0.036 A 
HETATM   18  C18 UNL     1      23.484  -0.774  53.523  1.00  0.00     0.034 A 
HETATM   19  C19 UNL     1      23.074   0.434  53.214  1.00  0.00     0.063 A 
HETATM   20  N6  UNL     1      23.214   1.714  52.727  1.00  0.00    -0.331 N 
HETATM   21  H1  UNL     1      24.133   4.811  51.858  1.00  0.00     0.161 HD
HETATM   22  H6  UNL     1      20.508   4.736  49.034  1.00  0.00     0.316 HD
HETATM   23  H23 UNL     1      22.387   1.855  52.151  1.00  0.00     0.168 HD
ENDROOT
BRANCH  12  24
HETATM   24  N3  UNL     1      17.160   3.164  51.338  1.00  0.00    -0.344 N 
HETATM   25  H15 UNL     1      17.094   4.113  50.854  1.00  0.00     0.167 HD
BRANCH  24  26
HETATM   26  C9  UNL     1      15.948   3.268  52.109  1.00  0.00     0.033 A 
HETATM   27  C10 UNL     1      15.610   4.408  52.801  1.00  0.00     0.031 A 
HETATM   28  C11 UNL     1      14.430   4.411  53.495  1.00  0.00     0.026 A 
HETATM   29  C12 UNL     1      13.607   3.314  53.500  1.00  0.00     0.034 A 
HETATM   30 CL1  UNL     1      12.125   3.436  54.417  1.00  0.00    -0.084 Cl
HETATM   31  C13 UNL     1      13.916   2.142  52.808  1.00  0.00     0.026 A 
HETATM   32  C14 UNL     1      15.125   2.144  52.100  1.00  0.00     0.031 A 
ENDBRANCH  24  26
ENDBRANCH  12  24
TORSDOF 2
ENDMDL
MODEL 5
REMARK VINA RESULT:      -7.4      9.222     12.412
REMARK  2 active torsions:
REMARK  status: ('A' for Active; 'I' for Inactive)
REMARK    1  A    between atoms: C8_12  and  N3_13 
REMARK    2  A    between atoms: N3_13  and  C9_14 
ROOT
HETATM    1  S1  UNL     1      33.853   8.138  40.742  1.00  0.00    -0.041 SA
HETATM    2  C1  UNL     1      33.693   7.411  42.188  1.00  0.00     0.172 C 
HETATM    3  N1  UNL     1      32.820   6.374  42.590  1.00  0.00    -0.365 N 
HETATM    4  C2  UNL     1      32.828   5.881  43.925  1.00  0.00     0.152 C 
HETATM    5  C3  UNL     1      34.036   5.111  44.349  1.00  0.00     0.289 C 
HETATM    6  N2  UNL     1      33.810   4.764  45.765  1.00  0.00     0.087 N 
HETATM    7  C4  UNL     1      34.976   4.086  46.299  1.00  0.00     0.295 C 
HETATM    8  C5  UNL     1      34.765   3.628  47.712  1.00  0.00     0.197 C 
HETATM    9  O1  UNL     1      34.478   4.495  48.669  1.00  0.00    -0.389 OA
HETATM   10  C6  UNL     1      35.175   5.504  49.149  1.00  0.00     0.175 C 
HETATM   11  C7  UNL     1      35.509   6.710  48.349  1.00  0.00     0.104 C 
HETATM   12  C8  UNL     1      34.323   7.455  47.847  1.00  0.00     0.107 C 
HETATM   13  N4  UNL     1      33.935   8.218  46.910  1.00  0.00    -0.229 NA
HETATM   14  C15 UNL     1      34.797   8.643  45.839  1.00  0.00     0.235 C 
HETATM   15  N5  UNL     1      34.673   9.697  45.082  1.00  0.00    -0.240 NA
HETATM   16  C16 UNL     1      35.647   9.955  44.054  1.00  0.00     0.085 A 
HETATM   17  C17 UNL     1      36.684  10.605  43.597  1.00  0.00     0.036 A 
HETATM   18  C18 UNL     1      36.730   9.897  42.342  1.00  0.00     0.034 A 
HETATM   19  C19 UNL     1      35.687   9.210  42.743  1.00  0.00     0.063 A 
HETATM   20  N6  UNL     1      34.703   8.253  42.633  1.00  0.00    -0.331 N 
HETATM   21  H1  UNL     1      32.270   6.138  41.738  1.00  0.00     0.161 HD
HETATM   22  H6  UNL     1      32.994   4.113  45.800  1.00  0.00     0.316 HD
HETATM   23  H23 UNL     1      34.696   7.793  43.539  1.00  0.00     0.168 HD
ENDROOT
BRANCH  12  24
HETATM   24  N3  UNL     1      33.222   7.301  48.763  1.00  0.00    -0.344 N 
HETATM   25  H15 UNL     1      33.205   7.319  49.831  1.00  0.00     0.167 HD
BRANCH  24  26
HETATM   26  C9  UNL     1      31.813   7.080  48.563  1.00  0.00     0.033 A 
HETATM   27  C10 UNL     1      31.309   5.872  48.140  1.00  0.00     0.031 A 
HETATM   28  C11 UNL     1      29.953   5.760  47.991  1.00  0.00     0.026 A 
HETATM   29  C12 UNL     1      29.121   6.817  48.255  1.00  0.00     0.034 A 
HETATM   30 CL1  UNL     1      27.407   6.555  48.033  1.00  0.00    -0.084 Cl
HETATM   31  C13 UNL     1      29.596   8.056  48.687  1.00  0.00     0.026 A 
HETATM   32  C14 UNL     1      30.985   8.166  48.838  1.00  0.00     0.031 A 
ENDBRANCH  24  26
ENDBRANCH  12  24
TORSDOF 2
ENDMDL
MODEL 6
REMARK VINA RESULT:      -7.2      8.201     11.833
REMARK  2 active torsions:
REMARK  status: ('A' for Active; 'I' for Inactive)
REMARK    1  A    between atoms: C8_12  and  N3_13 
REMARK    2  A    between atoms: N3_13  and  C9_14 
ROOT
HETATM    1  S1  UNL     1      35.803   6.913  40.733  1.00  0.00    -0.041 SA
HETATM    2  C1  UNL     1      34.928   6.303  41.961  1.00  0.00     0.172 C 
HETATM    3  N1  UNL     1      34.107   5.153  42.006  1.00  0.00    -0.365 N 
HETATM    4  C2  UNL     1      33.406   4.795  43.192  1.00  0.00     0.152 C 
HETATM    5  C3  UNL     1      34.232   4.325  44.344  1.00  0.00     0.289 C 
HETATM    6  N2  UNL     1      33.277   4.069  45.441  1.00  0.00     0.087 N 
HETATM    7  C4  UNL     1      33.997   3.691  46.642  1.00  0.00     0.295 C 
HETATM    8  C5  UNL     1      33.069   3.330  47.765  1.00  0.00     0.197 C 
HETATM    9  O1  UNL     1      32.189   4.206  48.224  1.00  0.00    -0.389 OA
HETATM   10  C6  UNL     1      32.366   5.373  48.807  1.00  0.00     0.175 C 
HETATM   11  C7  UNL     1      32.958   6.544  48.110  1.00  0.00     0.104 C 
HETATM   12  C8  UNL     1      32.196   6.986  46.911  1.00  0.00     0.107 C 
HETATM   13  N4  UNL     1      32.331   7.568  45.791  1.00  0.00    -0.229 NA
HETATM   14  C15 UNL     1      33.596   8.058  45.309  1.00  0.00     0.235 C 
HETATM   15  N5  UNL     1      33.808   8.993  44.426  1.00  0.00    -0.240 NA
HETATM   16  C16 UNL     1      35.158   9.346  44.073  1.00  0.00     0.085 A 
HETATM   17  C17 UNL     1      36.188  10.147  44.145  1.00  0.00     0.036 A 
HETATM   18  C18 UNL     1      37.024   9.351  43.281  1.00  0.00     0.034 A 
HETATM   19  C19 UNL     1      36.025   8.508  43.167  1.00  0.00     0.063 A 
HETATM   20  N6  UNL     1      35.398   7.367  42.718  1.00  0.00    -0.331 N 
HETATM   21  H1  UNL     1      34.175   4.735  41.055  1.00  0.00     0.161 HD
HETATM   22  H6  UNL     1      32.669   3.274  45.145  1.00  0.00     0.316 HD
HETATM   23  H23 UNL     1      34.927   7.000  43.540  1.00  0.00     0.168 HD
ENDROOT
BRANCH  12  24
HETATM   24  N3  UNL     1      30.796   6.699  47.083  1.00  0.00    -0.344 N 
HETATM   25  H15 UNL     1      30.197   5.916  46.672  1.00  0.00     0.167 HD
BRANCH  24  26
HETATM   26  C9  UNL     1      29.756   7.342  47.844  1.00  0.00     0.033 A 
HETATM   27  C10 UNL     1      29.947   8.546  48.481  1.00  0.00     0.031 A 
HETATM   28  C11 UNL     1      28.891   9.081  49.170  1.00  0.00     0.026 A 
HETATM   29  C12 UNL     1      27.682   8.438  49.225  1.00  0.00     0.034 A 
HETATM   30 CL1  UNL     1      26.407   9.218  50.131  1.00  0.00    -0.084 Cl
HETATM   31  C13 UNL     1      27.452   7.217  48.590  1.00  0.00     0.026 A 
HETATM   32  C14 UNL     1      28.535   6.674  47.886  1.00  0.00     0.031 A 
ENDBRANCH  24  26
ENDBRANCH  12  24
TORSDOF 2
ENDMDL
MODEL 7
REMARK VINA RESULT:      -7.2      3.868      4.801
REMARK  2 active torsions:
REMARK  status: ('A' for Active; 'I' for Inactive)
REMARK    1  A    between atoms: C8_12  and  N3_13 
REMARK    2  A    between atoms: N3_13  and  C9_14 
ROOT
HETATM    1  S1  UNL     1      18.912   6.797  47.101  1.00  0.00    -0.041 SA
HETATM    2  C1  UNL     1      19.080   5.755  48.339  1.00  0.00     0.172 C 
HETATM    3  N1  UNL     1      18.547   5.809  49.648  1.00  0.00    -0.365 N 
HETATM    4  C2  UNL     1      18.829   4.788  50.599  1.00  0.00     0.152 C 
HETATM    5  C3  UNL     1      18.224   3.447  50.343  1.00  0.00     0.289 C 
HETATM    6  N2  UNL     1      18.705   2.578  51.436  1.00  0.00     0.087 N 
HETATM    7  C4  UNL     1      18.241   1.220  51.225  1.00  0.00     0.295 C 
HETATM    8  C5  UNL     1      18.624   0.312  52.356  1.00  0.00     0.197 C 
HETATM    9  O1  UNL     1      19.895   0.132  52.679  1.00  0.00    -0.389 OA
HETATM   10  C6  UNL     1      20.890  -0.385  51.989  1.00  0.00     0.175 C 
HETATM   11  C7  UNL     1      21.437   0.248  50.761  1.00  0.00     0.104 C 
HETATM   12  C8  UNL     1      21.976   1.619  50.971  1.00  0.00     0.107 C 
HETATM   13  N4  UNL     1      22.185   2.721  50.377  1.00  0.00    -0.229 NA
HETATM   14  C15 UNL     1      21.856   2.940  48.993  1.00  0.00     0.235 C 
HETATM   15  N5  UNL     1      22.366   3.821  48.180  1.00  0.00    -0.240 NA
HETATM   16  C16 UNL     1      21.902   3.886  46.818  1.00  0.00     0.085 A 
HETATM   17  C17 UNL     1      22.057   3.644  45.544  1.00  0.00     0.036 A 
HETATM   18  C18 UNL     1      20.800   4.233  45.153  1.00  0.00     0.034 A 
HETATM   19  C19 UNL     1      20.587   4.506  46.419  1.00  0.00     0.063 A 
HETATM   20  N6  UNL     1      19.870   4.996  47.488  1.00  0.00    -0.331 N 
HETATM   21  H1  UNL     1      17.986   6.685  49.676  1.00  0.00     0.161 HD
HETATM   22  H6  UNL     1      18.297   2.942  52.325  1.00  0.00     0.316 HD
HETATM   23  H23 UNL     1      19.958   4.276  48.200  1.00  0.00     0.168 HD
ENDROOT
BRANCH  12  24
HETATM   24  N3  UNL     1      22.487   1.746  52.311  1.00  0.00    -0.344 N 
HETATM   25  H15 UNL     1      22.001   2.063  53.208  1.00  0.00     0.167 HD
BRANCH  24  26
HETATM   26  C9  UNL     1      23.783   1.496  52.887  1.00  0.00     0.033 A 
HETATM   27  C10 UNL     1      24.684   2.504  53.140  1.00  0.00     0.031 A 
HETATM   28  C11 UNL     1      25.886   2.164  53.700  1.00  0.00     0.026 A 
HETATM   29  C12 UNL     1      26.185   0.860  54.001  1.00  0.00     0.034 A 
HETATM   30 CL1  UNL     1      27.748   0.547  54.716  1.00  0.00    -0.084 Cl
HETATM   31  C13 UNL     1      25.296  -0.188  53.760  1.00  0.00     0.026 A 
HETATM   32  C14 UNL     1      24.066   0.165  53.186  1.00  0.00     0.031 A 
ENDBRANCH  24  26
ENDBRANCH  12  24
TORSDOF 2
ENDMDL
MODEL 8
REMARK VINA RESULT:      -7.2      6.824     10.421
REMARK  2 active torsions:
REMARK  status: ('A' for Active; 'I' for Inactive)
REMARK    1  A    between atoms: C8_12  and  N3_13 
REMARK    2  A    between atoms: N3_13  and  C9_14 
ROOT
HETATM    1  S1  UNL     1      33.539   9.243  41.287  1.00  0.00    -0.041 SA
HETATM    2  C1  UNL     1      33.181   8.202  42.483  1.00  0.00     0.172 C 
HETATM    3  N1  UNL     1      33.130   6.789  42.471  1.00  0.00    -0.365 N 
HETATM    4  C2  UNL     1      32.776   6.055  43.639  1.00  0.00     0.152 C 
HETATM    5  C3  UNL     1      33.759   6.071  44.764  1.00  0.00     0.289 C 
HETATM    6  N2  UNL     1      33.135   5.286  45.847  1.00  0.00     0.087 N 
HETATM    7  C4  UNL     1      33.980   5.317  47.027  1.00  0.00     0.295 C 
HETATM    8  C5  UNL     1      33.437   4.458  48.131  1.00  0.00     0.197 C 
HETATM    9  O1  UNL     1      32.235   4.684  48.636  1.00  0.00    -0.389 OA
HETATM   10  C6  UNL     1      31.757   5.730  49.278  1.00  0.00     0.175 C 
HETATM   11  C7  UNL     1      31.587   7.061  48.640  1.00  0.00     0.104 C 
HETATM   12  C8  UNL     1      30.672   7.061  47.467  1.00  0.00     0.107 C 
HETATM   13  N4  UNL     1      30.431   7.666  46.377  1.00  0.00    -0.229 NA
HETATM   14  C15 UNL     1      31.203   8.792  45.919  1.00  0.00     0.235 C 
HETATM   15  N5  UNL     1      30.839   9.724  45.084  1.00  0.00    -0.240 NA
HETATM   16  C16 UNL     1      31.761  10.777  44.747  1.00  0.00     0.085 A 
HETATM   17  C17 UNL     1      32.181  12.009  44.859  1.00  0.00     0.036 A 
HETATM   18  C18 UNL     1      33.292  11.842  43.954  1.00  0.00     0.034 A 
HETATM   19  C19 UNL     1      32.918  10.594  43.798  1.00  0.00     0.063 A 
HETATM   20  N6  UNL     1      33.010   9.316  43.293  1.00  0.00    -0.331 N 
HETATM   21  H1  UNL     1      33.388   6.517  41.500  1.00  0.00     0.161 HD
HETATM   22  H6  UNL     1      33.056   4.300  45.513  1.00  0.00     0.316 HD
HETATM   23  H23 UNL     1      32.843   8.716  44.096  1.00  0.00     0.168 HD
ENDROOT
BRANCH  12  24
HETATM   24  N3  UNL     1      29.667   6.042  47.627  1.00  0.00    -0.344 N 
HETATM   25  H15 UNL     1      29.696   5.001  47.389  1.00  0.00     0.167 HD
BRANCH  24  26
HETATM   26  C9  UNL     1      28.324   6.072  48.146  1.00  0.00     0.033 A 
HETATM   27  C10 UNL     1      27.566   7.221  48.163  1.00  0.00     0.031 A 
HETATM   28  C11 UNL     1      26.296   7.142  48.669  1.00  0.00     0.026 A 
HETATM   29  C12 UNL     1      25.792   5.958  49.142  1.00  0.00     0.034 A 
HETATM   30 CL1  UNL     1      24.157   5.979  49.759  1.00  0.00    -0.084 Cl
HETATM   31  C13 UNL     1      26.531   4.774  49.139  1.00  0.00     0.026 A 
HETATM   32  C14 UNL     1      27.831   4.859  48.621  1.00  0.00     0.031 A 
ENDBRANCH  24  26
ENDBRANCH  12  24
TORSDOF 2
ENDMDL
MODEL 9
REMARK VINA RESULT:      -7.2      6.784     10.158
REMARK  2 active torsions:
REMARK  status: ('A' for Active; 'I' for Inactive)
REMARK    1  A    between atoms: C8_12  and  N3_13 
REMARK    2  A    between atoms: N3_13  and  C9_14 
ROOT
HETATM    1  S1  UNL     1      35.017   3.983  45.197  1.00  0.00    -0.041 SA
HETATM    2  C1  UNL     1      33.913   4.815  46.054  1.00  0.00     0.172 C 
HETATM    3  N1  UNL     1      33.276   4.487  47.273  1.00  0.00    -0.365 N 
HETATM    4  C2  UNL     1      32.315   5.359  47.859  1.00  0.00     0.152 C 
HETATM    5  C3  UNL     1      32.828   6.652  48.405  1.00  0.00     0.289 C 
HETATM    6  N2  UNL     1      31.639   7.372  48.902  1.00  0.00     0.087 N 
HETATM    7  C4  UNL     1      32.024   8.689  49.375  1.00  0.00     0.295 C 
HETATM    8  C5  UNL     1      30.868   9.432  49.977  1.00  0.00     0.197 C 
HETATM    9  O1  UNL     1      29.784   9.691  49.264  1.00  0.00    -0.389 OA
HETATM   10  C6  UNL     1      29.626  10.419  48.178  1.00  0.00     0.175 C 
HETATM   11  C7  UNL     1      30.233  10.063  46.870  1.00  0.00     0.104 C 
HETATM   12  C8  UNL     1      29.799   8.742  46.338  1.00  0.00     0.107 C 
HETATM   13  N4  UNL     1      30.174   7.784  45.595  1.00  0.00    -0.229 NA
HETATM   14  C15 UNL     1      31.446   7.765  44.923  1.00  0.00     0.235 C 
HETATM   15  N5  UNL     1      31.778   7.091  43.857  1.00  0.00    -0.240 NA
HETATM   16  C16 UNL     1      33.113   7.204  43.330  1.00  0.00     0.085 A 
HETATM   17  C17 UNL     1      33.960   7.670  42.452  1.00  0.00     0.036 A 
HETATM   18  C18 UNL     1      35.109   7.023  43.034  1.00  0.00     0.034 A 
HETATM   19  C19 UNL     1      34.309   6.522  43.945  1.00  0.00     0.063 A 
HETATM   20  N6  UNL     1      33.997   5.786  45.067  1.00  0.00    -0.331 N 
HETATM   21  H1  UNL     1      33.671   3.563  47.545  1.00  0.00     0.161 HD
HETATM   22  H6  UNL     1      31.255   6.824  49.703  1.00  0.00     0.316 HD
HETATM   23  H23 UNL     1      33.361   6.383  45.589  1.00  0.00     0.168 HD
ENDROOT
BRANCH  12  24
HETATM   24  N3  UNL     1      28.461   8.449  46.780  1.00  0.00    -0.344 N 
HETATM   25  H15 UNL     1      27.560   9.013  46.672  1.00  0.00     0.167 HD
BRANCH  24  26
HETATM   26  C9  UNL     1      27.893   7.335  47.494  1.00  0.00     0.033 A 
HETATM   27  C10 UNL     1      26.564   7.285  47.847  1.00  0.00     0.031 A 
HETATM   28  C11 UNL     1      26.120   6.176  48.515  1.00  0.00     0.026 A 
HETATM   29  C12 UNL     1      26.969   5.145  48.823  1.00  0.00     0.034 A 
HETATM   30 CL1  UNL     1      26.288   3.779  49.673  1.00  0.00    -0.084 Cl
HETATM   31  C13 UNL     1      28.322   5.160  48.479  1.00  0.00     0.026 A 
HETATM   32  C14 UNL     1      28.773   6.298  47.796  1.00  0.00     0.031 A 
ENDBRANCH  24  26
ENDBRANCH  12  24
TORSDOF 2
ENDMDL
