MODEL 1
REMARK VINA RESULT:      -9.9      0.000      0.000
REMARK  2 active torsions:
REMARK  status: ('A' for Active; 'I' for Inactive)
REMARK    1  A    between atoms: C10_13  and  N3_14 
REMARK    2  A    between atoms: C19_24  and  C20_26 
ROOT
HETATM    1  C1  UNL     1      27.730   5.818  48.215  1.00  0.00    -0.012 C 
HETATM    2  C2  UNL     1      26.991   5.097  48.967  1.00  0.00     0.016 A 
HETATM    3  C3  UNL     1      25.464   5.372  49.309  1.00  0.00    -0.038 A 
HETATM    4  C4  UNL     1      26.210   4.249  49.616  1.00  0.00     0.067 A 
HETATM    5  C5  UNL     1      25.478   3.167  50.322  1.00  0.00     0.111 C 
HETATM    6  F1  UNL     1      26.797   2.754  50.036  1.00  0.00    -0.244 F 
HETATM    7  C6  UNL     1      24.526   2.455  50.927  1.00  0.00     0.114 C 
HETATM    8  C7  UNL     1      23.721   1.505  51.593  1.00  0.00     0.050 A 
HETATM    9  C8  UNL     1      22.469   1.291  50.944  1.00  0.00     0.118 A 
HETATM   10  N1  UNL     1      21.773   0.272  51.635  1.00  0.00    -0.229 NA
HETATM   11  C9  UNL     1      22.299  -0.307  52.687  1.00  0.00     0.237 A 
HETATM   12  N2  UNL     1      23.483  -0.121  53.323  1.00  0.00    -0.224 NA
HETATM   13  C10 UNL     1      24.207   0.914  52.637  1.00  0.00     0.140 A 
HETATM   14  N4  UNL     1      21.436   1.330  49.956  1.00  0.00    -0.271 NA
HETATM   15  C15 UNL     1      21.619   2.753  50.205  1.00  0.00     0.005 A 
HETATM   16  C16 UNL     1      22.368   3.688  49.341  1.00  0.00     0.038 A 
HETATM   17  C17 UNL     1      22.938   3.453  48.161  1.00  0.00     0.021 A 
HETATM   18  C18 UNL     1      23.153   4.838  48.497  1.00  0.00    -0.021 A 
HETATM   19  C19 UNL     1      22.511   5.274  49.835  1.00  0.00     0.069 A 
HETATM   20 CL1  UNL     1      21.960   6.171  51.240  1.00  0.00    -0.116 Cl
HETATM   21  C20 UNL     1      21.932   3.929  50.207  1.00  0.00     0.085 A 
HETATM   22  O1  UNL     1      23.325   6.263  48.941  1.00  0.00     0.000 OA
HETATM   23  C21 UNL     1      24.736   6.557  48.624  1.00  0.00     0.006 C 
HETATM   24  H15 UNL     1      20.878   2.012  49.527  1.00  0.00     0.151 HD
ENDROOT
BRANCH  13  25
HETATM   25  N3  UNL     1      25.509   1.005  53.105  1.00  0.00    -0.365 N 
HETATM   26  C11 UNL     1      26.579   1.552  53.876  1.00  0.00     0.124 C 
HETATM   27  C12 UNL     1      26.984   0.223  54.607  1.00  0.00     0.021 C 
HETATM   28  C13 UNL     1      27.181  -0.701  53.390  1.00  0.00     0.021 C 
HETATM   29  C14 UNL     1      26.252  -0.083  52.419  1.00  0.00     0.124 C 
ENDBRANCH  13  25
TORSDOF 2
ENDMDL
MODEL 2
REMARK VINA RESULT:      -9.7      1.609      2.179
REMARK  2 active torsions:
REMARK  status: ('A' for Active; 'I' for Inactive)
REMARK    1  A    between atoms: C10_13  and  N3_14 
REMARK    2  A    between atoms: C19_24  and  C20_26 
ROOT
HETATM    1  C1  UNL     1      27.480   4.731  48.516  1.00  0.00    -0.012 C 
HETATM    2  C2  UNL     1      27.019   4.019  49.471  1.00  0.00     0.016 A 
HETATM    3  C3  UNL     1      25.785   4.393  50.398  1.00  0.00    -0.038 A 
HETATM    4  C4  UNL     1      26.466   3.192  50.343  1.00  0.00     0.067 A 
HETATM    5  C5  UNL     1      25.955   2.124  51.239  1.00  0.00     0.111 C 
HETATM    6  F1  UNL     1      27.007   1.625  50.440  1.00  0.00    -0.244 F 
HETATM    7  C6  UNL     1      25.242   1.450  52.143  1.00  0.00     0.114 C 
HETATM    8  C7  UNL     1      24.663   0.522  53.037  1.00  0.00     0.050 A 
HETATM    9  C8  UNL     1      23.242   0.464  52.927  1.00  0.00     0.118 A 
HETATM   10  N1  UNL     1      22.765  -0.543  53.798  1.00  0.00    -0.229 NA
HETATM   11  C9  UNL     1      23.594  -1.244  54.533  1.00  0.00     0.237 A 
HETATM   12  N2  UNL     1      24.944  -1.207  54.657  1.00  0.00    -0.224 NA
HETATM   13  C10 UNL     1      25.450  -0.186  53.781  1.00  0.00     0.140 A 
HETATM   14  N4  UNL     1      21.917   0.666  52.430  1.00  0.00    -0.271 NA
HETATM   15  C15 UNL     1      22.335   2.045  52.639  1.00  0.00     0.005 A 
HETATM   16  C16 UNL     1      22.784   2.977  51.586  1.00  0.00     0.038 A 
HETATM   17  C17 UNL     1      22.821   2.787  50.269  1.00  0.00     0.021 A 
HETATM   18  C18 UNL     1      23.298   4.120  50.545  1.00  0.00    -0.021 A 
HETATM   19  C19 UNL     1      23.277   4.503  52.044  1.00  0.00     0.069 A 
HETATM   20 CL1  UNL     1      23.416   5.333  53.584  1.00  0.00    -0.116 Cl
HETATM   21  C20 UNL     1      22.748   3.187  52.563  1.00  0.00     0.085 A 
HETATM   22  O1  UNL     1      23.780   5.487  50.939  1.00  0.00     0.000 OA
HETATM   23  C21 UNL     1      24.979   5.684  50.102  1.00  0.00     0.006 C 
HETATM   24  H15 UNL     1      21.313   1.423  52.282  1.00  0.00     0.151 HD
ENDROOT
BRANCH  13  25
HETATM   25  N3  UNL     1      26.834  -0.242  53.699  1.00  0.00    -0.365 N 
HETATM   26  C11 UNL     1      28.091  -0.489  53.067  1.00  0.00     0.124 C 
HETATM   27  C12 UNL     1      28.702   0.939  53.301  1.00  0.00     0.021 C 
HETATM   28  C13 UNL     1      28.512   1.063  54.824  1.00  0.00     0.021 C 
HETATM   29  C14 UNL     1      27.327   0.202  55.027  1.00  0.00     0.124 C 
ENDBRANCH  13  25
TORSDOF 2
ENDMDL
MODEL 3
REMARK VINA RESULT:      -8.5      2.954      5.284
REMARK  2 active torsions:
REMARK  status: ('A' for Active; 'I' for Inactive)
REMARK    1  A    between atoms: C10_13  and  N3_14 
REMARK    2  A    between atoms: C19_24  and  C20_26 
ROOT
HETATM    1  C1  UNL     1      19.158  -1.106  53.916  1.00  0.00    -0.012 C 
HETATM    2  C2  UNL     1      20.244  -0.661  53.413  1.00  0.00     0.016 A 
HETATM    3  C3  UNL     1      20.393   0.050  52.001  1.00  0.00    -0.038 A 
HETATM    4  C4  UNL     1      21.350  -0.070  52.990  1.00  0.00     0.067 A 
HETATM    5  C5  UNL     1      22.657   0.572  52.700  1.00  0.00     0.111 C 
HETATM    6  F1  UNL     1      22.659   0.038  54.007  1.00  0.00    -0.244 F 
HETATM    7  C6  UNL     1      23.647   1.237  52.101  1.00  0.00     0.114 C 
HETATM    8  C7  UNL     1      24.838   1.885  51.706  1.00  0.00     0.050 A 
HETATM    9  C8  UNL     1      24.607   3.194  51.187  1.00  0.00     0.118 A 
HETATM   10  N1  UNL     1      25.857   3.788  50.896  1.00  0.00    -0.229 NA
HETATM   11  C9  UNL     1      26.976   3.142  51.115  1.00  0.00     0.237 A 
HETATM   12  N2  UNL     1      27.221   1.900  51.605  1.00  0.00    -0.224 NA
HETATM   13  C10 UNL     1      25.962   1.276  51.905  1.00  0.00     0.140 A 
HETATM   14  N4  UNL     1      23.944   4.414  50.847  1.00  0.00    -0.271 NA
HETATM   15  C15 UNL     1      23.112   3.453  50.137  1.00  0.00     0.005 A 
HETATM   16  C16 UNL     1      21.795   2.958  50.586  1.00  0.00     0.038 A 
HETATM   17  C17 UNL     1      21.085   3.333  51.648  1.00  0.00     0.021 A 
HETATM   18  C18 UNL     1      20.339   2.322  50.942  1.00  0.00    -0.021 A 
HETATM   19  C19 UNL     1      21.025   1.811  49.653  1.00  0.00     0.069 A 
HETATM   20 CL1  UNL     1      21.429   0.974  48.164  1.00  0.00    -0.116 Cl
HETATM   21  C20 UNL     1      22.269   2.661  49.758  1.00  0.00     0.085 A 
HETATM   22  O1  UNL     1      19.645   1.261  50.135  1.00  0.00     0.000 OA
HETATM   23  C21 UNL     1      19.123   0.335  51.159  1.00  0.00     0.006 C 
HETATM   24  H15 UNL     1      23.197   4.691  50.277  1.00  0.00     0.151 HD
ENDROOT
BRANCH  13  25
HETATM   25  N3  UNL     1      26.147   0.094  52.606  1.00  0.00    -0.365 N 
HETATM   26  C11 UNL     1      25.794  -1.206  53.081  1.00  0.00     0.124 C 
HETATM   27  C12 UNL     1      27.069  -1.954  52.551  1.00  0.00     0.021 C 
HETATM   28  C13 UNL     1      28.170  -1.077  53.175  1.00  0.00     0.021 C 
HETATM   29  C14 UNL     1      27.474   0.225  53.260  1.00  0.00     0.124 C 
ENDBRANCH  13  25
TORSDOF 2
ENDMDL
MODEL 4
REMARK VINA RESULT:      -8.3      6.657     10.058
REMARK  2 active torsions:
REMARK  status: ('A' for Active; 'I' for Inactive)
REMARK    1  A    between atoms: C10_13  and  N3_14 
REMARK    2  A    between atoms: C19_24  and  C20_26 
ROOT
HETATM    1  C1  UNL     1      26.840   4.338  49.196  1.00  0.00    -0.012 C 
HETATM    2  C2  UNL     1      27.782   4.986  48.627  1.00  0.00     0.016 A 
HETATM    3  C3  UNL     1      27.654   6.423  47.963  1.00  0.00    -0.038 A 
HETATM    4  C4  UNL     1      28.808   5.697  48.188  1.00  0.00     0.067 A 
HETATM    5  C5  UNL     1      30.072   6.363  47.787  1.00  0.00     0.111 C 
HETATM    6  F1  UNL     1      30.352   5.128  48.412  1.00  0.00    -0.244 F 
HETATM    7  C6  UNL     1      30.957   7.244  47.315  1.00  0.00     0.114 C 
HETATM    8  C7  UNL     1      32.084   7.981  46.892  1.00  0.00     0.050 A 
HETATM    9  C8  UNL     1      32.068   9.329  47.358  1.00  0.00     0.118 A 
HETATM   10  N1  UNL     1      33.268   9.959  46.954  1.00  0.00    -0.229 NA
HETATM   11  C9  UNL     1      34.173   9.304  46.268  1.00  0.00     0.237 A 
HETATM   12  N2  UNL     1      34.212   8.026  45.813  1.00  0.00    -0.224 NA
HETATM   13  C10 UNL     1      32.998   7.368  46.211  1.00  0.00     0.140 A 
HETATM   14  N4  UNL     1      31.694  10.502  48.086  1.00  0.00    -0.271 NA
HETATM   15  C15 UNL     1      30.446  10.208  47.397  1.00  0.00     0.005 A 
HETATM   16  C16 UNL     1      29.264   9.558  47.998  1.00  0.00     0.038 A 
HETATM   17  C17 UNL     1      29.070   9.194  49.264  1.00  0.00     0.021 A 
HETATM   18  C18 UNL     1      27.887   8.857  48.513  1.00  0.00    -0.021 A 
HETATM   19  C19 UNL     1      27.948   9.257  47.020  1.00  0.00     0.069 A 
HETATM   20 CL1  UNL     1      27.598   9.532  45.321  1.00  0.00    -0.116 Cl
HETATM   21  C20 UNL     1      29.342   9.839  47.042  1.00  0.00     0.085 A 
HETATM   22  O1  UNL     1      26.704   8.545  47.641  1.00  0.00     0.000 OA
HETATM   23  C21 UNL     1      26.309   7.188  48.067  1.00  0.00     0.006 C 
HETATM   24  H15 UNL     1      30.910  11.084  48.155  1.00  0.00     0.151 HD
ENDROOT
BRANCH  13  25
HETATM   25  N3  UNL     1      33.067   6.005  45.964  1.00  0.00    -0.365 N 
HETATM   26  C11 UNL     1      32.795   4.796  45.254  1.00  0.00     0.124 C 
HETATM   27  C12 UNL     1      34.289   4.361  45.042  1.00  0.00     0.021 C 
HETATM   28  C13 UNL     1      34.790   4.413  46.498  1.00  0.00     0.021 C 
HETATM   29  C14 UNL     1      33.894   5.445  47.063  1.00  0.00     0.124 C 
ENDBRANCH  13  25
TORSDOF 2
ENDMDL
MODEL 5
REMARK VINA RESULT:      -8.2      2.430      3.995
REMARK  2 active torsions:
REMARK  status: ('A' for Active; 'I' for Inactive)
REMARK    1  A    between atoms: C10_13  and  N3_14 
REMARK    2  A    between atoms: C19_24  and  C20_26 
ROOT
HETATM    1  C1  UNL     1      26.900   1.694  51.955  1.00  0.00    -0.012 C 
HETATM    2  C2  UNL     1      25.630   1.564  51.974  1.00  0.00     0.016 A 
HETATM    3  C3  UNL     1      24.575   2.668  51.537  1.00  0.00    -0.038 A 
HETATM    4  C4  UNL     1      24.331   1.345  51.853  1.00  0.00     0.067 A 
HETATM    5  C5  UNL     1      22.917   0.908  51.736  1.00  0.00     0.111 C 
HETATM    6  F1  UNL     1      23.737  -0.190  52.072  1.00  0.00    -0.244 F 
HETATM    7  C6  UNL     1      21.598   0.894  51.529  1.00  0.00     0.114 C 
HETATM    8  C7  UNL     1      20.224   0.605  51.380  1.00  0.00     0.050 A 
HETATM    9  C8  UNL     1      19.691   1.084  50.146  1.00  0.00     0.118 A 
HETATM   10  N1  UNL     1      18.339   0.679  50.055  1.00  0.00    -0.229 NA
HETATM   11  C9  UNL     1      17.780  -0.022  51.012  1.00  0.00     0.237 A 
HETATM   12  N2  UNL     1      18.264  -0.486  52.191  1.00  0.00    -0.224 NA
HETATM   13  C10 UNL     1      19.638  -0.083  52.306  1.00  0.00     0.140 A 
HETATM   14  N4  UNL     1      19.621   1.626  48.825  1.00  0.00    -0.271 NA
HETATM   15  C15 UNL     1      20.286   2.716  49.525  1.00  0.00     0.005 A 
HETATM   16  C16 UNL     1      21.733   3.010  49.481  1.00  0.00     0.038 A 
HETATM   17  C17 UNL     1      22.680   2.416  48.758  1.00  0.00     0.021 A 
HETATM   18  C18 UNL     1      23.296   3.463  49.533  1.00  0.00    -0.021 A 
HETATM   19  C19 UNL     1      22.307   4.275  50.403  1.00  0.00     0.069 A 
HETATM   20 CL1  UNL     1      21.563   5.421  51.505  1.00  0.00    -0.116 Cl
HETATM   21  C20 UNL     1      21.059   3.513  50.022  1.00  0.00     0.085 A 
HETATM   22  O1  UNL     1      23.840   4.575  50.384  1.00  0.00     0.000 OA
HETATM   23  C21 UNL     1      25.082   4.007  50.943  1.00  0.00     0.006 C 
HETATM   24  H15 UNL     1      19.844   2.471  48.383  1.00  0.00     0.151 HD
ENDROOT
BRANCH  13  25
HETATM   25  N3  UNL     1      20.251  -0.704  53.384  1.00  0.00    -0.365 N 
HETATM   26  C11 UNL     1      20.846  -1.793  54.092  1.00  0.00     0.124 C 
HETATM   27  C12 UNL     1      22.206  -1.081  54.423  1.00  0.00     0.021 C 
HETATM   28  C13 UNL     1      21.679   0.201  55.096  1.00  0.00     0.021 C 
HETATM   29  C14 UNL     1      20.365   0.342  54.432  1.00  0.00     0.124 C 
ENDBRANCH  13  25
TORSDOF 2
ENDMDL
MODEL 6
REMARK VINA RESULT:      -7.9      3.339      6.687
REMARK  2 active torsions:
REMARK  status: ('A' for Active; 'I' for Inactive)
REMARK    1  A    between atoms: C10_13  and  N3_14 
REMARK    2  A    between atoms: C19_24  and  C20_26 
ROOT
HETATM    1  C1  UNL     1      18.893   5.247  49.212  1.00  0.00    -0.012 C 
HETATM    2  C2  UNL     1      20.160   5.408  49.238  1.00  0.00     0.016 A 
HETATM    3  C3  UNL     1      21.137   4.918  50.391  1.00  0.00    -0.038 A 
HETATM    4  C4  UNL     1      21.480   5.446  49.161  1.00  0.00     0.067 A 
HETATM    5  C5  UNL     1      22.936   5.533  48.884  1.00  0.00     0.111 C 
HETATM    6  F1  UNL     1      22.202   5.945  47.751  1.00  0.00    -0.244 F 
HETATM    7  C6  UNL     1      24.263   5.458  48.999  1.00  0.00     0.114 C 
HETATM    8  C7  UNL     1      25.668   5.486  48.858  1.00  0.00     0.050 A 
HETATM    9  C8  UNL     1      26.284   4.254  49.227  1.00  0.00     0.118 A 
HETATM   10  N1  UNL     1      27.673   4.354  48.977  1.00  0.00    -0.229 NA
HETATM   11  C9  UNL     1      28.190   5.452  48.483  1.00  0.00     0.237 A 
HETATM   12  N2  UNL     1      27.627   6.634  48.127  1.00  0.00    -0.224 NA
HETATM   13  C10 UNL     1      26.214   6.556  48.376  1.00  0.00     0.140 A 
HETATM   14  N4  UNL     1      26.446   2.881  49.591  1.00  0.00    -0.271 NA
HETATM   15  C15 UNL     1      25.596   3.345  50.678  1.00  0.00     0.005 A 
HETATM   16  C16 UNL     1      24.141   3.119  50.789  1.00  0.00     0.038 A 
HETATM   17  C17 UNL     1      23.348   2.402  49.995  1.00  0.00     0.021 A 
HETATM   18  C18 UNL     1      22.543   2.953  51.056  1.00  0.00    -0.021 A 
HETATM   19  C19 UNL     1      23.338   3.787  52.089  1.00  0.00     0.069 A 
HETATM   20 CL1  UNL     1      23.829   4.777  53.453  1.00  0.00    -0.116 Cl
HETATM   21  C20 UNL     1      24.693   3.643  51.437  1.00  0.00     0.085 A 
HETATM   22  O1  UNL     1      21.794   3.576  52.200  1.00  0.00     0.000 OA
HETATM   23  C21 UNL     1      20.562   4.088  51.568  1.00  0.00     0.006 C 
HETATM   24  H15 UNL     1      26.187   2.300  50.337  1.00  0.00     0.151 HD
ENDROOT
BRANCH  13  25
HETATM   25  N3  UNL     1      25.552   7.649  47.836  1.00  0.00    -0.365 N 
HETATM   26  C11 UNL     1      24.571   8.310  47.036  1.00  0.00     0.124 C 
HETATM   27  C12 UNL     1      23.953   9.187  48.184  1.00  0.00     0.021 C 
HETATM   28  C13 UNL     1      25.229   9.863  48.719  1.00  0.00     0.021 C 
HETATM   29  C14 UNL     1      26.245   8.842  48.384  1.00  0.00     0.124 C 
ENDBRANCH  13  25
TORSDOF 2
ENDMDL
MODEL 7
REMARK VINA RESULT:      -7.8      5.102      8.102
REMARK  2 active torsions:
REMARK  status: ('A' for Active; 'I' for Inactive)
REMARK    1  A    between atoms: C10_13  and  N3_14 
REMARK    2  A    between atoms: C19_24  and  C20_26 
ROOT
HETATM    1  C1  UNL     1      28.021  13.294  48.691  1.00  0.00    -0.012 C 
HETATM    2  C2  UNL     1      27.693  12.064  48.581  1.00  0.00     0.016 A 
HETATM    3  C3  UNL     1      28.387  10.996  47.633  1.00  0.00    -0.038 A 
HETATM    4  C4  UNL     1      27.435  10.767  48.608  1.00  0.00     0.067 A 
HETATM    5  C5  UNL     1      27.048   9.347  48.804  1.00  0.00     0.111 C 
HETATM    6  F1  UNL     1      26.396  10.163  49.754  1.00  0.00    -0.244 F 
HETATM    7  C6  UNL     1      26.959   8.021  48.687  1.00  0.00     0.114 C 
HETATM    8  C7  UNL     1      26.677   6.640  48.775  1.00  0.00     0.050 A 
HETATM    9  C8  UNL     1      27.857   5.839  48.823  1.00  0.00     0.118 A 
HETATM   10  N1  UNL     1      27.475   4.487  48.990  1.00  0.00    -0.229 NA
HETATM   11  C9  UNL     1      26.210   4.151  49.078  1.00  0.00     0.237 A 
HETATM   12  N2  UNL     1      25.074   4.891  49.034  1.00  0.00    -0.224 NA
HETATM   13  C10 UNL     1      25.440   6.271  48.861  1.00  0.00     0.140 A 
HETATM   14  N4  UNL     1      29.233   5.466  48.932  1.00  0.00    -0.271 NA
HETATM   15  C15 UNL     1      29.287   6.347  47.774  1.00  0.00     0.005 A 
HETATM   16  C16 UNL     1      29.750   7.749  47.780  1.00  0.00     0.038 A 
HETATM   17  C17 UNL     1      30.271   8.447  48.787  1.00  0.00     0.021 A 
HETATM   18  C18 UNL     1      30.231   9.298  47.624  1.00  0.00    -0.021 A 
HETATM   19  C19 UNL     1      29.680   8.608  46.353  1.00  0.00     0.069 A 
HETATM   20 CL1  UNL     1      29.139   8.234  44.726  1.00  0.00    -0.116 Cl
HETATM   21  C20 UNL     1      29.395   7.264  46.982  1.00  0.00     0.085 A 
HETATM   22  O1  UNL     1      30.142  10.101  46.357  1.00  0.00     0.000 OA
HETATM   23  C21 UNL     1      29.637  11.410  46.813  1.00  0.00     0.006 C 
HETATM   24  H15 UNL     1      30.059   5.617  48.428  1.00  0.00     0.151 HD
ENDROOT
BRANCH  13  25
HETATM   25  N3  UNL     1      24.341   7.101  49.023  1.00  0.00    -0.365 N 
HETATM   26  C11 UNL     1      23.530   8.071  49.687  1.00  0.00     0.124 C 
HETATM   27  C12 UNL     1      23.446   9.093  48.497  1.00  0.00     0.021 C 
HETATM   28  C13 UNL     1      22.937   8.161  47.382  1.00  0.00     0.021 C 
HETATM   29  C14 UNL     1      23.486   6.863  47.831  1.00  0.00     0.124 C 
ENDBRANCH  13  25
TORSDOF 2
ENDMDL
MODEL 8
REMARK VINA RESULT:      -7.8      3.263      6.983
REMARK  2 active torsions:
REMARK  status: ('A' for Active; 'I' for Inactive)
REMARK    1  A    between atoms: C10_13  and  N3_14 
REMARK    2  A    between atoms: C19_24  and  C20_26 
ROOT
HETATM    1  C1  UNL     1      21.358  -1.919  54.406  1.00  0.00    -0.012 C 
HETATM    2  C2  UNL     1      21.970  -0.912  53.913  1.00  0.00     0.016 A 
HETATM    3  C3  UNL     1      23.469  -0.489  54.228  1.00  0.00    -0.038 A 
HETATM    4  C4  UNL     1      22.627   0.038  53.267  1.00  0.00     0.067 A 
HETATM    5  C5  UNL     1      23.213   1.102  52.414  1.00  0.00     0.111 C 
HETATM    6  F1  UNL     1      21.907   0.796  51.976  1.00  0.00    -0.244 F 
HETATM    7  C6  UNL     1      24.053   1.991  51.880  1.00  0.00     0.114 C 
HETATM    8  C7  UNL     1      24.725   2.988  51.140  1.00  0.00     0.050 A 
HETATM    9  C8  UNL     1      26.021   2.576  50.708  1.00  0.00     0.118 A 
HETATM   10  N1  UNL     1      26.577   3.605  49.914  1.00  0.00    -0.229 NA
HETATM   11  C9  UNL     1      25.911   4.710  49.681  1.00  0.00     0.237 A 
HETATM   12  N2  UNL     1      24.683   5.125  50.080  1.00  0.00    -0.224 NA
HETATM   13  C10 UNL     1      24.099   4.094  50.893  1.00  0.00     0.140 A 
HETATM   14  N4  UNL     1      27.149   1.745  50.428  1.00  0.00    -0.271 NA
HETATM   15  C15 UNL     1      27.031   1.555  51.867  1.00  0.00     0.005 A 
HETATM   16  C16 UNL     1      26.433   0.380  52.533  1.00  0.00     0.038 A 
HETATM   17  C17 UNL     1      25.973  -0.742  51.983  1.00  0.00     0.021 A 
HETATM   18  C18 UNL     1      25.812  -0.842  53.412  1.00  0.00    -0.021 A 
HETATM   19  C19 UNL     1      26.341   0.381  54.197  1.00  0.00     0.069 A 
HETATM   20 CL1  UNL     1      26.801   1.525  55.447  1.00  0.00    -0.116 Cl
HETATM   21  C20 UNL     1      26.794   1.185  53.001  1.00  0.00     0.085 A 
HETATM   22  O1  UNL     1      25.686  -0.845  54.909  1.00  0.00     0.000 OA
HETATM   23  C21 UNL     1      24.335  -1.394  55.140  1.00  0.00     0.006 C 
HETATM   24  H15 UNL     1      27.789   1.207  50.938  1.00  0.00     0.151 HD
ENDROOT
BRANCH  13  25
HETATM   25  N3  UNL     1      22.764   4.363  51.155  1.00  0.00    -0.365 N 
HETATM   26  C11 UNL     1      21.652   4.774  51.950  1.00  0.00     0.124 C 
HETATM   27  C12 UNL     1      21.124   5.886  50.975  1.00  0.00     0.021 C 
HETATM   28  C13 UNL     1      21.000   5.065  49.678  1.00  0.00     0.021 C 
HETATM   29  C14 UNL     1      22.041   4.038  49.898  1.00  0.00     0.124 C 
ENDBRANCH  13  25
TORSDOF 2
ENDMDL
MODEL 9
REMARK VINA RESULT:      -7.7      7.858     10.817
REMARK  2 active torsions:
REMARK  status: ('A' for Active; 'I' for Inactive)
REMARK    1  A    between atoms: C10_13  and  N3_14 
REMARK    2  A    between atoms: C19_24  and  C20_26 
ROOT
HETATM    1  C1  UNL     1      36.356   8.218  48.557  1.00  0.00    -0.012 C 
HETATM    2  C2  UNL     1      35.162   8.188  48.104  1.00  0.00     0.016 A 
HETATM    3  C3  UNL     1      34.293   6.881  47.858  1.00  0.00    -0.038 A 
HETATM    4  C4  UNL     1      33.877   8.197  47.788  1.00  0.00     0.067 A 
HETATM    5  C5  UNL     1      32.441   8.400  47.475  1.00  0.00     0.111 C 
HETATM    6  F1  UNL     1      33.062   9.642  47.725  1.00  0.00    -0.244 F 
HETATM    7  C6  UNL     1      31.156   8.187  47.182  1.00  0.00     0.114 C 
HETATM    8  C7  UNL     1      29.778   8.245  46.879  1.00  0.00     0.050 A 
HETATM    9  C8  UNL     1      28.999   7.364  47.686  1.00  0.00     0.118 A 
HETATM   10  N1  UNL     1      27.634   7.551  47.365  1.00  0.00    -0.229 NA
HETATM   11  C9  UNL     1      27.269   8.426  46.459  1.00  0.00     0.237 A 
HETATM   12  N2  UNL     1      27.989   9.272  45.680  1.00  0.00    -0.224 NA
HETATM   13  C10 UNL     1      29.382   9.095  45.987  1.00  0.00     0.140 A 
HETATM   14  N4  UNL     1      28.632   6.454  48.726  1.00  0.00    -0.271 NA
HETATM   15  C15 UNL     1      29.709   5.709  48.089  1.00  0.00     0.005 A 
HETATM   16  C16 UNL     1      31.093   5.599  48.591  1.00  0.00     0.038 A 
HETATM   17  C17 UNL     1      31.605   6.069  49.727  1.00  0.00     0.021 A 
HETATM   18  C18 UNL     1      32.651   5.381  49.013  1.00  0.00    -0.021 A 
HETATM   19  C19 UNL     1      32.195   4.742  47.680  1.00  0.00     0.069 A 
HETATM   20 CL1  UNL     1      32.114   3.885  46.150  1.00  0.00    -0.116 Cl
HETATM   21  C20 UNL     1      30.756   5.196  47.741  1.00  0.00     0.085 A 
HETATM   22  O1  UNL     1      33.669   4.644  48.189  1.00  0.00     0.000 OA
HETATM   23  C21 UNL     1      34.867   5.501  48.272  1.00  0.00     0.006 C 
HETATM   24  H15 UNL     1      28.883   5.552  49.012  1.00  0.00     0.151 HD
ENDROOT
BRANCH  13  25
HETATM   25  N3  UNL     1      30.153  10.076  45.383  1.00  0.00    -0.365 N 
HETATM   26  C11 UNL     1      30.969  11.248  45.341  1.00  0.00     0.124 C 
HETATM   27  C12 UNL     1      32.198  10.595  44.612  1.00  0.00     0.021 C 
HETATM   28  C13 UNL     1      31.489   9.994  43.384  1.00  0.00     0.021 C 
HETATM   29  C14 UNL     1      30.137   9.756  43.933  1.00  0.00     0.124 C 
ENDBRANCH  13  25
TORSDOF 2
ENDMDL
