MODEL 1
REMARK VINA RESULT:      -8.1      0.000      0.000
REMARK  4 active torsions:
REMARK  status: ('A' for Active; 'I' for Inactive)
REMARK    1  A    between atoms: C5_5  and  C6_6 
REMARK    2  A    between atoms: C8_8  and  O1_9 
REMARK    3  A    between atoms: O1_9  and  C9_10 
REMARK    4  A    between atoms: C9_10  and  C10_11 
ROOT
HETATM    1  C1  UNL     1      26.173   3.528  49.619  1.00  0.00     0.038 C 
HETATM    2  C2  UNL     1      25.044   4.408  50.066  1.00  0.00    -0.004 C 
HETATM    3  C3  UNL     1      24.447   4.047  51.217  1.00  0.00     0.032 C 
HETATM    4  C4  UNL     1      24.817   2.886  52.038  1.00  0.00     0.092 C 
HETATM    5  C5  UNL     1      24.061   1.655  52.107  1.00  0.00     0.160 C 
HETATM    6  N3  UNL     1      22.785   1.530  52.676  1.00  0.00    -0.309 NA
HETATM    7  C13 UNL     1      21.909   0.797  52.042  1.00  0.00     0.076 A 
HETATM    8  C14 UNL     1      21.905   0.987  50.705  1.00  0.00     0.193 A 
HETATM    9  C15 UNL     1      21.824   2.328  51.245  1.00  0.00     0.084 A 
HETATM   10 CL1  UNL     1      22.603   2.105  49.633  1.00  0.00    -0.195 Cl
HETATM   11  C16 UNL     1      21.644   3.501  51.765  1.00  0.00     0.020 C 
HETATM   12  C17 UNL     1      22.287   4.736  51.968  1.00  0.00     0.115 C 
HETATM   13  N4  UNL     1      23.478   4.925  51.716  1.00  0.00    -0.266 NA
ENDROOT
BRANCH   5  14
HETATM   14  C6  UNL     1      24.839   0.865  53.198  1.00  0.00     0.064 A 
HETATM   15  C7  UNL     1      26.121   1.100  53.597  1.00  0.00     0.087 A 
HETATM   16  C8  UNL     1      26.737   0.331  54.592  1.00  0.00     0.167 A 
HETATM   17  N1  UNL     1      25.970  -0.636  55.103  1.00  0.00    -0.218 NA
HETATM   18  C12 UNL     1      24.716  -0.919  54.760  1.00  0.00     0.236 A 
HETATM   19  N2  UNL     1      24.167  -0.156  53.804  1.00  0.00    -0.244 NA
BRANCH  16  20
HETATM   20  O1  UNL     1      28.004   0.758  54.813  1.00  0.00    -0.334 OA
BRANCH  20  21
HETATM   21  C9  UNL     1      29.045   0.804  53.939  1.00  0.00     0.177 C 
BRANCH  21  22
HETATM   22  C10 UNL     1      29.938  -0.379  53.795  1.00  0.00     0.022 C 
HETATM   23  C11 UNL     1      29.336  -1.645  53.311  1.00  0.00     0.007 C 
ENDBRANCH  21  22
ENDBRANCH  20  21
ENDBRANCH  16  20
ENDBRANCH   5  14
TORSDOF 4
ENDMDL
MODEL 2
REMARK VINA RESULT:      -7.9      0.953      1.283
REMARK  4 active torsions:
REMARK  status: ('A' for Active; 'I' for Inactive)
REMARK    1  A    between atoms: C5_5  and  C6_6 
REMARK    2  A    between atoms: C8_8  and  O1_9 
REMARK    3  A    between atoms: O1_9  and  C9_10 
REMARK    4  A    between atoms: C9_10  and  C10_11 
ROOT
HETATM    1  C1  UNL     1      26.499   3.869  49.356  1.00  0.00     0.038 C 
HETATM    2  C2  UNL     1      25.382   4.714  49.893  1.00  0.00    -0.004 C 
HETATM    3  C3  UNL     1      24.715   4.197  50.942  1.00  0.00     0.032 C 
HETATM    4  C4  UNL     1      25.001   2.902  51.575  1.00  0.00     0.092 C 
HETATM    5  C5  UNL     1      24.197   1.712  51.406  1.00  0.00     0.160 C 
HETATM    6  N3  UNL     1      22.891   1.553  51.892  1.00  0.00    -0.309 NA
HETATM    7  C13 UNL     1      22.020   0.973  51.109  1.00  0.00     0.076 A 
HETATM    8  C14 UNL     1      22.090   1.380  49.822  1.00  0.00     0.193 A 
HETATM    9  C15 UNL     1      22.032   2.616  50.572  1.00  0.00     0.084 A 
HETATM   10 CL1  UNL     1      22.881   2.625  48.981  1.00  0.00    -0.195 Cl
HETATM   11  C16 UNL     1      21.871   3.696  51.272  1.00  0.00     0.020 C 
HETATM   12  C17 UNL     1      22.549   4.850  51.703  1.00  0.00     0.115 C 
HETATM   13  N4  UNL     1      23.757   5.024  51.537  1.00  0.00    -0.266 NA
ENDROOT
BRANCH   5  14
HETATM   14  C6  UNL     1      24.890   0.720  52.384  1.00  0.00     0.064 A 
HETATM   15  C7  UNL     1      26.193   0.321  52.332  1.00  0.00     0.087 A 
HETATM   16  C8  UNL     1      26.726  -0.580  53.263  1.00  0.00     0.167 A 
HETATM   17  N1  UNL     1      25.859  -1.006  54.185  1.00  0.00    -0.218 NA
HETATM   18  C12 UNL     1      24.579  -0.659  54.292  1.00  0.00     0.236 A 
HETATM   19  N2  UNL     1      24.112   0.206  53.381  1.00  0.00    -0.244 NA
BRANCH  16  20
HETATM   20  O1  UNL     1      28.035  -0.816  53.005  1.00  0.00    -0.334 OA
BRANCH  20  21
HETATM   21  C9  UNL     1      29.123  -0.403  53.709  1.00  0.00     0.177 C 
BRANCH  21  22
HETATM   22  C10 UNL     1      29.024   0.807  54.572  1.00  0.00     0.022 C 
HETATM   23  C11 UNL     1      29.002   2.132  53.906  1.00  0.00     0.007 C 
ENDBRANCH  21  22
ENDBRANCH  20  21
ENDBRANCH  16  20
ENDBRANCH   5  14
TORSDOF 4
ENDMDL
MODEL 3
REMARK VINA RESULT:      -7.7      1.781      3.422
REMARK  4 active torsions:
REMARK  status: ('A' for Active; 'I' for Inactive)
REMARK    1  A    between atoms: C5_5  and  C6_6 
REMARK    2  A    between atoms: C8_8  and  O1_9 
REMARK    3  A    between atoms: O1_9  and  C9_10 
REMARK    4  A    between atoms: C9_10  and  C10_11 
ROOT
HETATM    1  C1  UNL     1      18.970   0.235  52.313  1.00  0.00     0.038 C 
HETATM    2  C2  UNL     1      19.508   0.597  50.961  1.00  0.00    -0.004 C 
HETATM    3  C3  UNL     1      20.850   0.589  50.849  1.00  0.00     0.032 C 
HETATM    4  C4  UNL     1      21.790   0.259  51.929  1.00  0.00     0.092 C 
HETATM    5  C5  UNL     1      22.582   1.229  52.651  1.00  0.00     0.160 C 
HETATM    6  N3  UNL     1      23.631   1.978  52.097  1.00  0.00    -0.309 NA
HETATM    7  C13 UNL     1      23.709   3.242  52.420  1.00  0.00     0.076 A 
HETATM    8  C14 UNL     1      22.517   3.876  52.429  1.00  0.00     0.193 A 
HETATM    9  C15 UNL     1      22.544   3.211  51.144  1.00  0.00     0.084 A 
HETATM   10 CL1  UNL     1      20.940   3.511  51.913  1.00  0.00    -0.195 Cl
HETATM   11  C16 UNL     1      22.653   2.689  49.963  1.00  0.00     0.020 C 
HETATM   12  C17 UNL     1      22.135   1.666  49.149  1.00  0.00     0.115 C 
HETATM   13  N4  UNL     1      21.367   0.797  49.566  1.00  0.00    -0.266 NA
ENDROOT
BRANCH   5  14
HETATM   14  C6  UNL     1      23.455   0.315  53.558  1.00  0.00     0.064 A 
HETATM   15  C7  UNL     1      24.815   0.218  53.527  1.00  0.00     0.087 A 
HETATM   16  C8  UNL     1      25.513  -0.638  54.388  1.00  0.00     0.167 A 
HETATM   17  N1  UNL     1      24.742  -1.337  55.225  1.00  0.00    -0.218 NA
HETATM   18  C12 UNL     1      23.414  -1.291  55.307  1.00  0.00     0.236 A 
HETATM   19  N2  UNL     1      22.788  -0.458  54.464  1.00  0.00    -0.244 NA
BRANCH  16  20
HETATM   20  O1  UNL     1      26.847  -0.555  54.169  1.00  0.00    -0.334 OA
BRANCH  20  21
HETATM   21  C9  UNL     1      27.538  -0.859  53.036  1.00  0.00     0.177 C 
BRANCH  21  22
HETATM   22  C10 UNL     1      28.804  -1.636  53.134  1.00  0.00     0.022 C 
HETATM   23  C11 UNL     1      29.990  -0.959  53.712  1.00  0.00     0.007 C 
ENDBRANCH  21  22
ENDBRANCH  20  21
ENDBRANCH  16  20
ENDBRANCH   5  14
TORSDOF 4
ENDMDL
MODEL 4
REMARK VINA RESULT:      -7.4      2.009      3.027
REMARK  4 active torsions:
REMARK  status: ('A' for Active; 'I' for Inactive)
REMARK    1  A    between atoms: C5_5  and  C6_6 
REMARK    2  A    between atoms: C8_8  and  O1_9 
REMARK    3  A    between atoms: O1_9  and  C9_10 
REMARK    4  A    between atoms: C9_10  and  C10_11 
ROOT
HETATM    1  C1  UNL     1      21.804   1.464  47.939  1.00  0.00     0.038 C 
HETATM    2  C2  UNL     1      20.873   2.242  48.819  1.00  0.00    -0.004 C 
HETATM    3  C3  UNL     1      21.408   2.707  49.964  1.00  0.00     0.032 C 
HETATM    4  C4  UNL     1      22.799   2.508  50.393  1.00  0.00     0.092 C 
HETATM    5  C5  UNL     1      23.215   1.584  51.425  1.00  0.00     0.160 C 
HETATM    6  N3  UNL     1      22.914   1.720  52.789  1.00  0.00    -0.309 NA
HETATM    7  C13 UNL     1      22.564   0.642  53.441  1.00  0.00     0.076 A 
HETATM    8  C14 UNL     1      21.711  -0.153  52.759  1.00  0.00     0.193 A 
HETATM    9  C15 UNL     1      21.103   1.157  52.674  1.00  0.00     0.084 A 
HETATM   10 CL1  UNL     1      20.789  -0.014  51.339  1.00  0.00    -0.195 Cl
HETATM   11  C16 UNL     1      20.538   2.324  52.712  1.00  0.00     0.020 C 
HETATM   12  C17 UNL     1      20.206   3.423  51.899  1.00  0.00     0.115 C 
HETATM   13  N4  UNL     1      20.593   3.542  50.736  1.00  0.00    -0.266 NA
ENDROOT
BRANCH   5  14
HETATM   14  C6  UNL     1      24.736   1.890  51.530  1.00  0.00     0.064 A 
HETATM   15  C7  UNL     1      25.610   1.318  52.406  1.00  0.00     0.087 A 
HETATM   16  C8  UNL     1      26.968   1.660  52.424  1.00  0.00     0.167 A 
HETATM   17  N1  UNL     1      27.322   2.581  51.523  1.00  0.00    -0.218 NA
HETATM   18  C12 UNL     1      26.522   3.179  50.642  1.00  0.00     0.236 A 
HETATM   19  N2  UNL     1      25.232   2.819  50.662  1.00  0.00    -0.244 NA
BRANCH  16  20
HETATM   20  O1  UNL     1      27.628   0.958  53.376  1.00  0.00    -0.334 OA
BRANCH  20  21
HETATM   21  C9  UNL     1      28.961   0.700  53.464  1.00  0.00     0.177 C 
BRANCH  21  22
HETATM   22  C10 UNL     1      29.425  -0.558  54.112  1.00  0.00     0.022 C 
HETATM   23  C11 UNL     1      29.338  -1.814  53.327  1.00  0.00     0.007 C 
ENDBRANCH  21  22
ENDBRANCH  20  21
ENDBRANCH  16  20
ENDBRANCH   5  14
TORSDOF 4
ENDMDL
MODEL 5
REMARK VINA RESULT:      -6.9      1.820      2.479
REMARK  4 active torsions:
REMARK  status: ('A' for Active; 'I' for Inactive)
REMARK    1  A    between atoms: C5_5  and  C6_6 
REMARK    2  A    between atoms: C8_8  and  O1_9 
REMARK    3  A    between atoms: O1_9  and  C9_10 
REMARK    4  A    between atoms: C9_10  and  C10_11 
ROOT
HETATM    1  C1  UNL     1      23.349   5.642  51.365  1.00  0.00     0.038 C 
HETATM    2  C2  UNL     1      21.874   5.420  51.521  1.00  0.00    -0.004 C 
HETATM    3  C3  UNL     1      21.511   4.182  51.907  1.00  0.00     0.032 C 
HETATM    4  C4  UNL     1      22.435   3.072  52.178  1.00  0.00     0.092 C 
HETATM    5  C5  UNL     1      22.646   1.947  51.294  1.00  0.00     0.160 C 
HETATM    6  N3  UNL     1      21.691   0.958  51.015  1.00  0.00    -0.309 NA
HETATM    7  C13 UNL     1      21.579   0.557  49.776  1.00  0.00     0.076 A 
HETATM    8  C14 UNL     1      21.620   1.561  48.874  1.00  0.00     0.193 A 
HETATM    9  C15 UNL     1      20.630   2.000  49.834  1.00  0.00     0.084 A 
HETATM   10 CL1  UNL     1      21.562   3.257  48.937  1.00  0.00    -0.195 Cl
HETATM   11  C16 UNL     1      19.675   2.308  50.655  1.00  0.00     0.020 C 
HETATM   12  C17 UNL     1      19.343   3.208  51.683  1.00  0.00     0.115 C 
HETATM   13  N4  UNL     1      20.153   3.990  52.182  1.00  0.00    -0.266 NA
ENDROOT
BRANCH   5  14
HETATM   14  C6  UNL     1      23.606   1.058  52.135  1.00  0.00     0.064 A 
HETATM   15  C7  UNL     1      24.962   0.998  52.007  1.00  0.00     0.087 A 
HETATM   16  C8  UNL     1      25.744   0.163  52.816  1.00  0.00     0.167 A 
HETATM   17  N1  UNL     1      25.054  -0.556  53.704  1.00  0.00    -0.218 NA
HETATM   18  C12 UNL     1      23.734  -0.546  53.881  1.00  0.00     0.236 A 
HETATM   19  N2  UNL     1      23.028   0.268  53.086  1.00  0.00    -0.244 NA
BRANCH  16  20
HETATM   20  O1  UNL     1      27.056   0.282  52.501  1.00  0.00    -0.334 OA
BRANCH  20  21
HETATM   21  C9  UNL     1      28.139  -0.083  53.240  1.00  0.00     0.177 C 
BRANCH  21  22
HETATM   22  C10 UNL     1      28.889   0.950  54.005  1.00  0.00     0.022 C 
HETATM   23  C11 UNL     1      28.672   2.372  53.645  1.00  0.00     0.007 C 
ENDBRANCH  21  22
ENDBRANCH  20  21
ENDBRANCH  16  20
ENDBRANCH   5  14
TORSDOF 4
ENDMDL
MODEL 6
REMARK VINA RESULT:      -6.9      2.460      3.849
REMARK  4 active torsions:
REMARK  status: ('A' for Active; 'I' for Inactive)
REMARK    1  A    between atoms: C5_5  and  C6_6 
REMARK    2  A    between atoms: C8_8  and  O1_9 
REMARK    3  A    between atoms: O1_9  and  C9_10 
REMARK    4  A    between atoms: C9_10  and  C10_11 
ROOT
HETATM    1  C1  UNL     1      25.051   7.118  50.545  1.00  0.00     0.038 C 
HETATM    2  C2  UNL     1      23.562   7.068  50.715  1.00  0.00    -0.004 C 
HETATM    3  C3  UNL     1      23.065   5.890  51.138  1.00  0.00     0.032 C 
HETATM    4  C4  UNL     1      23.861   4.691  51.437  1.00  0.00     0.092 C 
HETATM    5  C5  UNL     1      23.937   3.525  50.585  1.00  0.00     0.160 C 
HETATM    6  N3  UNL     1      22.875   2.642  50.339  1.00  0.00    -0.309 NA
HETATM    7  C13 UNL     1      22.708   2.221  49.113  1.00  0.00     0.076 A 
HETATM    8  C14 UNL     1      22.855   3.189  48.181  1.00  0.00     0.193 A 
HETATM    9  C15 UNL     1      21.928   3.764  49.133  1.00  0.00     0.084 A 
HETATM   10 CL1  UNL     1      22.989   4.882  48.196  1.00  0.00    -0.195 Cl
HETATM   11  C16 UNL     1      21.020   4.200  49.949  1.00  0.00     0.020 C 
HETATM   12  C17 UNL     1      20.799   5.161  50.952  1.00  0.00     0.115 C 
HETATM   13  N4  UNL     1      21.696   5.860  51.425  1.00  0.00    -0.266 NA
ENDROOT
BRANCH   5  14
HETATM   14  C6  UNL     1      24.798   2.558  51.447  1.00  0.00     0.064 A 
HETATM   15  C7  UNL     1      24.323   1.618  52.313  1.00  0.00     0.087 A 
HETATM   16  C8  UNL     1      25.182   0.791  53.048  1.00  0.00     0.167 A 
HETATM   17  N1  UNL     1      26.482   1.003  52.829  1.00  0.00    -0.218 NA
HETATM   18  C12 UNL     1      27.011   1.901  52.001  1.00  0.00     0.236 A 
HETATM   19  N2  UNL     1      26.152   2.669  51.318  1.00  0.00    -0.244 NA
BRANCH  16  20
HETATM   20  O1  UNL     1      24.475  -0.059  53.832  1.00  0.00    -0.334 OA
BRANCH  20  21
HETATM   21  C9  UNL     1      23.298  -0.682  53.557  1.00  0.00     0.177 C 
BRANCH  21  22
HETATM   22  C10 UNL     1      22.298  -0.877  54.643  1.00  0.00     0.022 C 
HETATM   23  C11 UNL     1      21.019  -1.543  54.295  1.00  0.00     0.007 C 
ENDBRANCH  21  22
ENDBRANCH  20  21
ENDBRANCH  16  20
ENDBRANCH   5  14
TORSDOF 4
ENDMDL
MODEL 7
REMARK VINA RESULT:      -6.8      2.126      3.509
REMARK  4 active torsions:
REMARK  status: ('A' for Active; 'I' for Inactive)
REMARK    1  A    between atoms: C5_5  and  C6_6 
REMARK    2  A    between atoms: C8_8  and  O1_9 
REMARK    3  A    between atoms: O1_9  and  C9_10 
REMARK    4  A    between atoms: C9_10  and  C10_11 
ROOT
HETATM    1  C1  UNL     1      21.171   1.910  47.980  1.00  0.00     0.038 C 
HETATM    2  C2  UNL     1      22.440   2.698  47.857  1.00  0.00    -0.004 C 
HETATM    3  C3  UNL     1      23.198   2.756  48.969  1.00  0.00     0.032 C 
HETATM    4  C4  UNL     1      22.873   2.117  50.252  1.00  0.00     0.092 C 
HETATM    5  C5  UNL     1      22.392   2.822  51.420  1.00  0.00     0.160 C 
HETATM    6  N3  UNL     1      23.148   3.732  52.173  1.00  0.00    -0.309 NA
HETATM    7  C13 UNL     1      22.555   4.826  52.573  1.00  0.00     0.076 A 
HETATM    8  C14 UNL     1      21.774   5.397  51.630  1.00  0.00     0.193 A 
HETATM    9  C15 UNL     1      23.034   5.182  50.950  1.00  0.00     0.084 A 
HETATM   10 CL1  UNL     1      21.524   5.183  49.964  1.00  0.00    -0.195 Cl
HETATM   11  C16 UNL     1      24.207   5.070  50.411  1.00  0.00     0.020 C 
HETATM   12  C17 UNL     1      24.914   4.351  49.430  1.00  0.00     0.115 C 
HETATM   13  N4  UNL     1      24.444   3.378  48.839  1.00  0.00    -0.266 NA
ENDROOT
BRANCH   5  14
HETATM   14  C6  UNL     1      22.345   1.684  52.479  1.00  0.00     0.064 A 
HETATM   15  C7  UNL     1      23.401   0.922  52.885  1.00  0.00     0.087 A 
HETATM   16  C8  UNL     1      23.258  -0.083  53.850  1.00  0.00     0.167 A 
HETATM   17  N1  UNL     1      22.018  -0.226  54.326  1.00  0.00    -0.218 NA
HETATM   18  C12 UNL     1      20.946   0.481  53.974  1.00  0.00     0.236 A 
HETATM   19  N2  UNL     1      21.131   1.432  53.049  1.00  0.00    -0.244 NA
BRANCH  16  20
HETATM   20  O1  UNL     1      24.444  -0.694  54.085  1.00  0.00    -0.334 OA
BRANCH  20  21
HETATM   21  C9  UNL     1      25.646  -0.125  54.374  1.00  0.00     0.177 C 
BRANCH  21  22
HETATM   22  C10 UNL     1      26.817  -0.397  53.496  1.00  0.00     0.022 C 
HETATM   23  C11 UNL     1      26.704  -1.502  52.513  1.00  0.00     0.007 C 
ENDBRANCH  21  22
ENDBRANCH  20  21
ENDBRANCH  16  20
ENDBRANCH   5  14
TORSDOF 4
ENDMDL
MODEL 8
REMARK VINA RESULT:      -6.7      3.096      5.493
REMARK  4 active torsions:
REMARK  status: ('A' for Active; 'I' for Inactive)
REMARK    1  A    between atoms: C5_5  and  C6_6 
REMARK    2  A    between atoms: C8_8  and  O1_9 
REMARK    3  A    between atoms: O1_9  and  C9_10 
REMARK    4  A    between atoms: C9_10  and  C10_11 
ROOT
HETATM    1  C1  UNL     1      26.404   1.073  51.672  1.00  0.00     0.038 C 
HETATM    2  C2  UNL     1      25.974   2.484  51.945  1.00  0.00    -0.004 C 
HETATM    3  C3  UNL     1      24.788   2.619  52.568  1.00  0.00     0.032 C 
HETATM    4  C4  UNL     1      23.917   1.512  52.986  1.00  0.00     0.092 C 
HETATM    5  C5  UNL     1      22.697   1.129  52.311  1.00  0.00     0.160 C 
HETATM    6  N3  UNL     1      21.529   1.905  52.268  1.00  0.00    -0.309 NA
HETATM    7  C13 UNL     1      20.889   1.972  51.130  1.00  0.00     0.076 A 
HETATM    8  C14 UNL     1      21.699   2.125  50.059  1.00  0.00     0.193 A 
HETATM    9  C15 UNL     1      22.141   3.155  50.974  1.00  0.00     0.084 A 
HETATM   10 CL1  UNL     1      23.343   2.473  49.817  1.00  0.00    -0.195 Cl
HETATM   11  C16 UNL     1      22.434   4.131  51.776  1.00  0.00     0.020 C 
HETATM   12  C17 UNL     1      23.444   4.592  52.640  1.00  0.00     0.115 C 
HETATM   13  N4  UNL     1      24.429   3.918  52.944  1.00  0.00    -0.266 NA
ENDROOT
BRANCH   5  14
HETATM   14  C6  UNL     1      22.154   0.012  53.248  1.00  0.00     0.064 A 
HETATM   15  C7  UNL     1      20.903  -0.530  53.208  1.00  0.00     0.087 A 
HETATM   16  C8  UNL     1      20.507  -1.536  54.098  1.00  0.00     0.167 A 
HETATM   17  N1  UNL     1      21.445  -1.908  54.972  1.00  0.00    -0.218 NA
HETATM   18  C12 UNL     1      22.681  -1.422  55.065  1.00  0.00     0.236 A 
HETATM   19  N2  UNL     1      23.016  -0.462  54.193  1.00  0.00    -0.244 NA
BRANCH  16  20
HETATM   20  O1  UNL     1      19.227  -1.911  53.858  1.00  0.00    -0.334 OA
BRANCH  20  21
HETATM   21  C9  UNL     1      18.178  -1.137  53.467  1.00  0.00     0.177 C 
BRANCH  21  22
HETATM   22  C10 UNL     1      17.153  -1.699  52.546  1.00  0.00     0.022 C 
HETATM   23  C11 UNL     1      16.494  -0.772  51.594  1.00  0.00     0.007 C 
ENDBRANCH  21  22
ENDBRANCH  20  21
ENDBRANCH  16  20
ENDBRANCH   5  14
TORSDOF 4
ENDMDL
MODEL 9
REMARK VINA RESULT:      -6.6      2.807      4.327
REMARK  4 active torsions:
REMARK  status: ('A' for Active; 'I' for Inactive)
REMARK    1  A    between atoms: C5_5  and  C6_6 
REMARK    2  A    between atoms: C8_8  and  O1_9 
REMARK    3  A    between atoms: O1_9  and  C9_10 
REMARK    4  A    between atoms: C9_10  and  C10_11 
ROOT
HETATM    1  C1  UNL     1      27.107   6.244  48.450  1.00  0.00     0.038 C 
HETATM    2  C2  UNL     1      26.121   7.188  49.071  1.00  0.00    -0.004 C 
HETATM    3  C3  UNL     1      25.303   6.648  49.995  1.00  0.00     0.032 C 
HETATM    4  C4  UNL     1      25.314   5.242  50.421  1.00  0.00     0.092 C 
HETATM    5  C5  UNL     1      24.328   4.259  50.029  1.00  0.00     0.160 C 
HETATM    6  N3  UNL     1      22.984   4.271  50.430  1.00  0.00    -0.309 NA
HETATM    7  C13 UNL     1      22.081   3.986  49.528  1.00  0.00     0.076 A 
HETATM    8  C14 UNL     1      22.310   4.563  48.328  1.00  0.00     0.193 A 
HETATM    9  C15 UNL     1      22.417   5.661  49.265  1.00  0.00     0.084 A 
HETATM   10 CL1  UNL     1      23.363   5.756  47.733  1.00  0.00    -0.195 Cl
HETATM   11  C16 UNL     1      22.399   6.633  50.123  1.00  0.00     0.020 C 
HETATM   12  C17 UNL     1      23.236   7.565  50.762  1.00  0.00     0.115 C 
HETATM   13  N4  UNL     1      24.464   7.537  50.676  1.00  0.00    -0.266 NA
ENDROOT
BRANCH   5  14
HETATM   14  C6  UNL     1      24.768   3.021  50.861  1.00  0.00     0.064 A 
HETATM   15  C7  UNL     1      23.956   2.246  51.636  1.00  0.00     0.087 A 
HETATM   16  C8  UNL     1      24.448   1.146  52.350  1.00  0.00     0.167 A 
HETATM   17  N1  UNL     1      25.758   0.930  52.208  1.00  0.00    -0.218 NA
HETATM   18  C12 UNL     1      26.605   1.646  51.471  1.00  0.00     0.236 A 
HETATM   19  N2  UNL     1      26.090   2.688  50.804  1.00  0.00    -0.244 NA
BRANCH  16  20
HETATM   20  O1  UNL     1      23.453   0.537  53.038  1.00  0.00    -0.334 OA
BRANCH  20  21
HETATM   21  C9  UNL     1      23.518  -0.587  53.803  1.00  0.00     0.177 C 
BRANCH  21  22
HETATM   22  C10 UNL     1      22.326  -1.014  54.585  1.00  0.00     0.022 C 
HETATM   23  C11 UNL     1      21.183  -0.073  54.675  1.00  0.00     0.007 C 
ENDBRANCH  21  22
ENDBRANCH  20  21
ENDBRANCH  16  20
ENDBRANCH   5  14
TORSDOF 4
ENDMDL
