MODEL 1
REMARK VINA RESULT:      -7.7      0.000      0.000
REMARK  6 active torsions:
REMARK  status: ('A' for Active; 'I' for Inactive)
REMARK    1  A    between atoms: O1_2  and  C2_3 
REMARK    2  A    between atoms: C2_3  and  C3_4 
REMARK    3  A    between atoms: C8_10  and  N1_11 
REMARK    4  A    between atoms: N1_11  and  C9_12 
REMARK    5  A    between atoms: C12_15  and  N2_16 
REMARK    6  A    between atoms: C15_21  and  O2_22 
ROOT
HETATM    1  C9  UNL     1      24.559   1.373  51.790  1.00  0.00     0.016 A 
HETATM    2  C10 UNL     1      23.436   0.982  52.372  1.00  0.00     0.043 A 
HETATM    3  C11 UNL     1      23.472   0.093  53.529  1.00  0.00     0.041 A 
HETATM    4  C12 UNL     1      22.358  -0.305  54.121  1.00  0.00     0.135 A 
HETATM    5  N3  UNL     1      22.411  -1.166  55.239  1.00  0.00    -0.226 NA
HETATM    6  C13 UNL     1      23.524  -1.605  55.741  1.00  0.00     0.209 A 
HETATM    7  N4  UNL     1      24.786  -1.236  55.179  1.00  0.00    -0.348 N 
HETATM    8  C14 UNL     1      24.759  -0.364  54.042  1.00  0.00     0.077 A 
HETATM    9  C15 UNL     1      25.858   0.050  53.431  1.00  0.00     0.079 A 
HETATM   10  C17 UNL     1      25.902   0.951  52.253  1.00  0.00     0.124 A 
HETATM   11  H14 UNL     1      25.712  -1.562  55.545  1.00  0.00     0.167 HD
ENDROOT
BRANCH   1  12
HETATM   12  N1  UNL     1      24.342   2.221  50.696  1.00  0.00    -0.359 N 
HETATM   13  H9  UNL     1      23.488   2.117  50.094  1.00  0.00     0.166 HD
BRANCH  12  14
HETATM   14  C8  UNL     1      25.066   3.296  50.141  1.00  0.00     0.041 A 
HETATM   15  C3  UNL     1      24.523   4.582  50.032  1.00  0.00    -0.006 A 
HETATM   16  C4  UNL     1      25.331   5.538  49.466  1.00  0.00     0.035 A 
HETATM   17  C5  UNL     1      26.610   5.391  48.991  1.00  0.00     0.034 A 
HETATM   18 CL1  UNL     1      27.523   6.705  48.290  1.00  0.00    -0.084 Cl
HETATM   19  C6  UNL     1      27.140   4.103  49.106  1.00  0.00     0.026 A 
HETATM   20  C7  UNL     1      26.366   3.105  49.669  1.00  0.00     0.032 A 
BRANCH  15  21
HETATM   21  C2  UNL     1      23.157   4.885  50.507  1.00  0.00     0.208 C 
BRANCH  21  22
HETATM   22  O1  UNL     1      23.137   4.695  51.893  1.00  0.00    -0.391 OA
HETATM   23  C1  UNL     1      21.841   4.365  52.289  1.00  0.00     0.201 C 
ENDBRANCH  21  22
ENDBRANCH  15  21
ENDBRANCH  12  14
ENDBRANCH   1  12
BRANCH   9  24
HETATM   24  O2  UNL     1      27.022  -0.425  53.974  1.00  0.00    -0.358 OA
HETATM   25  C16 UNL     1      27.984   0.280  54.686  1.00  0.00     0.209 C 
ENDBRANCH   9  24
BRANCH   4  26
HETATM   26  N2  UNL     1      21.070   0.095  53.679  1.00  0.00    -0.383 N 
HETATM   27  H11 UNL     1      21.034   1.005  53.169  1.00  0.00     0.157 HD
HETATM   28  H12 UNL     1      20.098  -0.267  53.715  1.00  0.00     0.157 HD
ENDBRANCH   4  26
TORSDOF 6
ENDMDL
MODEL 2
REMARK VINA RESULT:      -7.7      1.991      3.399
REMARK  6 active torsions:
REMARK  status: ('A' for Active; 'I' for Inactive)
REMARK    1  A    between atoms: O1_2  and  C2_3 
REMARK    2  A    between atoms: C2_3  and  C3_4 
REMARK    3  A    between atoms: C8_10  and  N1_11 
REMARK    4  A    between atoms: N1_11  and  C9_12 
REMARK    5  A    between atoms: C12_15  and  N2_16 
REMARK    6  A    between atoms: C15_21  and  O2_22 
ROOT
HETATM    1  C9  UNL     1      25.356   2.395  51.572  1.00  0.00     0.016 A 
HETATM    2  C10 UNL     1      26.551   2.599  52.107  1.00  0.00     0.043 A 
HETATM    3  C11 UNL     1      27.067   1.694  53.129  1.00  0.00     0.041 A 
HETATM    4  C12 UNL     1      28.259   1.885  53.672  1.00  0.00     0.135 A 
HETATM    5  N3  UNL     1      28.743   1.000  54.661  1.00  0.00    -0.226 NA
HETATM    6  C13 UNL     1      28.070  -0.025  55.084  1.00  0.00     0.209 A 
HETATM    7  N4  UNL     1      26.772  -0.324  54.563  1.00  0.00    -0.348 N 
HETATM    8  C14 UNL     1      26.256   0.560  53.560  1.00  0.00     0.077 A 
HETATM    9  C15 UNL     1      25.068   0.393  52.999  1.00  0.00     0.079 A 
HETATM   10  C17 UNL     1      24.476   1.267  51.957  1.00  0.00     0.124 A 
HETATM   11  H14 UNL     1      26.187  -1.138  54.869  1.00  0.00     0.167 HD
ENDROOT
BRANCH   1  12
HETATM   12  N1  UNL     1      25.018   3.356  50.611  1.00  0.00    -0.359 N 
HETATM   13  H9  UNL     1      24.043   3.412  50.223  1.00  0.00     0.166 HD
BRANCH  12  14
HETATM   14  C8  UNL     1      25.741   4.377  49.961  1.00  0.00     0.041 A 
HETATM   15  C3  UNL     1      25.359   5.722  50.034  1.00  0.00    -0.006 A 
HETATM   16  C4  UNL     1      26.146   6.616  49.350  1.00  0.00     0.035 A 
HETATM   17  C5  UNL     1      27.265   6.357  48.599  1.00  0.00     0.034 A 
HETATM   18 CL1  UNL     1      28.172   7.604  47.777  1.00  0.00    -0.084 Cl
HETATM   19  C6  UNL     1      27.636   5.011  48.535  1.00  0.00     0.026 A 
HETATM   20  C7  UNL     1      26.876   4.071  49.206  1.00  0.00     0.032 A 
BRANCH  15  21
HETATM   21  C2  UNL     1      24.176   6.147  50.810  1.00  0.00     0.208 C 
BRANCH  21  22
HETATM   22  O1  UNL     1      23.067   5.462  50.303  1.00  0.00    -0.391 OA
HETATM   23  C1  UNL     1      22.040   5.495  51.246  1.00  0.00     0.201 C 
ENDBRANCH  21  22
ENDBRANCH  15  21
ENDBRANCH  12  14
ENDBRANCH   1  12
BRANCH   9  24
HETATM   24  O2  UNL     1      24.372  -0.693  53.459  1.00  0.00    -0.358 OA
HETATM   25  C16 UNL     1      23.066  -0.735  53.929  1.00  0.00     0.209 C 
ENDBRANCH   9  24
BRANCH   4  26
HETATM   26  N2  UNL     1      29.103   2.965  53.307  1.00  0.00    -0.383 N 
HETATM   27  H11 UNL     1      30.103   2.868  53.592  1.00  0.00     0.157 HD
HETATM   28  H12 UNL     1      29.018   3.875  52.815  1.00  0.00     0.157 HD
ENDBRANCH   4  26
TORSDOF 6
ENDMDL
MODEL 3
REMARK VINA RESULT:      -7.2      3.250      6.578
REMARK  6 active torsions:
REMARK  status: ('A' for Active; 'I' for Inactive)
REMARK    1  A    between atoms: O1_2  and  C2_3 
REMARK    2  A    between atoms: C2_3  and  C3_4 
REMARK    3  A    between atoms: C8_10  and  N1_11 
REMARK    4  A    between atoms: N1_11  and  C9_12 
REMARK    5  A    between atoms: C12_15  and  N2_16 
REMARK    6  A    between atoms: C15_21  and  O2_22 
ROOT
HETATM    1  C9  UNL     1      24.294   2.609  52.151  1.00  0.00     0.016 A 
HETATM    2  C10 UNL     1      24.294   3.934  52.148  1.00  0.00     0.043 A 
HETATM    3  C11 UNL     1      23.600   4.671  51.097  1.00  0.00     0.041 A 
HETATM    4  C12 UNL     1      23.592   5.994  51.080  1.00  0.00     0.135 A 
HETATM    5  N3  UNL     1      22.916   6.691  50.055  1.00  0.00    -0.226 NA
HETATM    6  C13 UNL     1      22.277   6.095  49.095  1.00  0.00     0.209 A 
HETATM    7  N4  UNL     1      22.222   4.668  49.018  1.00  0.00    -0.348 N 
HETATM    8  C14 UNL     1      22.902   3.936  50.046  1.00  0.00     0.077 A 
HETATM    9  C15 UNL     1      22.927   2.613  50.088  1.00  0.00     0.079 A 
HETATM   10  C17 UNL     1      23.609   1.795  51.121  1.00  0.00     0.124 A 
HETATM   11  H14 UNL     1      21.722   4.137  48.266  1.00  0.00     0.167 HD
ENDROOT
BRANCH   1  12
HETATM   12  N1  UNL     1      25.006   2.066  53.228  1.00  0.00    -0.359 N 
HETATM   13  H9  UNL     1      24.648   2.152  54.212  1.00  0.00     0.166 HD
BRANCH  12  14
HETATM   14  C8  UNL     1      26.221   1.357  53.330  1.00  0.00     0.041 A 
HETATM   15  C3  UNL     1      26.268  -0.043  53.333  1.00  0.00    -0.006 A 
HETATM   16  C4  UNL     1      27.514  -0.609  53.445  1.00  0.00     0.035 A 
HETATM   17  C5  UNL     1      28.726   0.026  53.556  1.00  0.00     0.034 A 
HETATM   18 CL1  UNL     1      30.242  -0.831  53.694  1.00  0.00    -0.084 Cl
HETATM   19  C6  UNL     1      28.665   1.422  53.552  1.00  0.00     0.026 A 
HETATM   20  C7  UNL     1      27.434   2.042  53.441  1.00  0.00     0.032 A 
BRANCH  15  21
HETATM   21  C2  UNL     1      25.040  -0.856  53.216  1.00  0.00     0.208 C 
BRANCH  21  22
HETATM   22  O1  UNL     1      24.231  -0.563  54.320  1.00  0.00    -0.391 OA
HETATM   23  C1  UNL     1      22.896  -0.769  53.973  1.00  0.00     0.201 C 
ENDBRANCH  21  22
ENDBRANCH  15  21
ENDBRANCH  12  14
ENDBRANCH   1  12
BRANCH   9  24
HETATM   24  O2  UNL     1      22.250   2.002  49.066  1.00  0.00    -0.358 OA
HETATM   25  C16 UNL     1      21.209   1.087  49.157  1.00  0.00     0.209 C 
ENDBRANCH   9  24
BRANCH   4  26
HETATM   26  N2  UNL     1      24.248   6.777  52.065  1.00  0.00    -0.383 N 
HETATM   27  H11 UNL     1      24.649   7.679  51.726  1.00  0.00     0.157 HD
HETATM   28  H12 UNL     1      24.462   6.715  53.079  1.00  0.00     0.157 HD
ENDBRANCH   4  26
TORSDOF 6
ENDMDL
MODEL 4
REMARK VINA RESULT:      -7.1      3.390      7.095
REMARK  6 active torsions:
REMARK  status: ('A' for Active; 'I' for Inactive)
REMARK    1  A    between atoms: O1_2  and  C2_3 
REMARK    2  A    between atoms: C2_3  and  C3_4 
REMARK    3  A    between atoms: C8_10  and  N1_11 
REMARK    4  A    between atoms: N1_11  and  C9_12 
REMARK    5  A    between atoms: C12_15  and  N2_16 
REMARK    6  A    between atoms: C15_21  and  O2_22 
ROOT
HETATM    1  C9  UNL     1      25.418   2.874  51.020  1.00  0.00     0.016 A 
HETATM    2  C10 UNL     1      24.478   3.683  51.485  1.00  0.00     0.043 A 
HETATM    3  C11 UNL     1      24.340   5.036  50.956  1.00  0.00     0.041 A 
HETATM    4  C12 UNL     1      23.406   5.856  51.410  1.00  0.00     0.135 A 
HETATM    5  N3  UNL     1      23.285   7.162  50.887  1.00  0.00    -0.226 NA
HETATM    6  C13 UNL     1      24.060   7.624  49.954  1.00  0.00     0.209 A 
HETATM    7  N4  UNL     1      25.101   6.822  49.392  1.00  0.00    -0.348 N 
HETATM    8  C14 UNL     1      25.246   5.492  49.907  1.00  0.00     0.077 A 
HETATM    9  C15 UNL     1      26.170   4.651  49.470  1.00  0.00     0.079 A 
HETATM   10  C17 UNL     1      26.374   3.265  49.957  1.00  0.00     0.124 A 
HETATM   11  H14 UNL     1      25.753   7.146  48.638  1.00  0.00     0.167 HD
ENDROOT
BRANCH   1  12
HETATM   12  N1  UNL     1      25.411   1.617  51.638  1.00  0.00    -0.359 N 
HETATM   13  H9  UNL     1      26.275   1.020  51.661  1.00  0.00     0.166 HD
BRANCH  12  14
HETATM   14  C8  UNL     1      24.420   0.870  52.309  1.00  0.00     0.041 A 
HETATM   15  C3  UNL     1      24.712   0.085  53.432  1.00  0.00    -0.006 A 
HETATM   16  C4  UNL     1      23.658  -0.598  53.987  1.00  0.00     0.035 A 
HETATM   17  C5  UNL     1      22.348  -0.609  53.580  1.00  0.00     0.034 A 
HETATM   18 CL1  UNL     1      21.106  -1.534  54.389  1.00  0.00    -0.084 Cl
HETATM   19  C6  UNL     1      22.070   0.179  52.460  1.00  0.00     0.026 A 
HETATM   20  C7  UNL     1      23.097   0.886  51.863  1.00  0.00     0.032 A 
BRANCH  15  21
HETATM   21  C2  UNL     1      26.081   0.005  53.982  1.00  0.00     0.208 C 
BRANCH  21  22
HETATM   22  O1  UNL     1      26.877  -0.665  53.046  1.00  0.00    -0.391 OA
HETATM   23  C1  UNL     1      28.220  -0.477  53.372  1.00  0.00     0.201 C 
ENDBRANCH  21  22
ENDBRANCH  15  21
ENDBRANCH  12  14
ENDBRANCH   1  12
BRANCH   9  24
HETATM   24  O2  UNL     1      26.979   5.158  48.488  1.00  0.00    -0.358 OA
HETATM   25  C16 UNL     1      28.366   5.227  48.473  1.00  0.00     0.209 C 
ENDBRANCH   9  24
BRANCH   4  26
HETATM   26  N2  UNL     1      22.490   5.485  52.428  1.00  0.00    -0.383 N 
HETATM   27  H11 UNL     1      21.564   5.138  52.094  1.00  0.00     0.157 HD
HETATM   28  H12 UNL     1      22.465   5.455  53.466  1.00  0.00     0.157 HD
ENDBRANCH   4  26
TORSDOF 6
ENDMDL
MODEL 5
REMARK VINA RESULT:      -7.0      3.801      5.997
REMARK  6 active torsions:
REMARK  status: ('A' for Active; 'I' for Inactive)
REMARK    1  A    between atoms: O1_2  and  C2_3 
REMARK    2  A    between atoms: C2_3  and  C3_4 
REMARK    3  A    between atoms: C8_10  and  N1_11 
REMARK    4  A    between atoms: N1_11  and  C9_12 
REMARK    5  A    between atoms: C12_15  and  N2_16 
REMARK    6  A    between atoms: C15_21  and  O2_22 
ROOT
HETATM    1  C9  UNL     1      23.670   1.579  52.397  1.00  0.00     0.016 A 
HETATM    2  C10 UNL     1      24.140   0.757  53.323  1.00  0.00     0.043 A 
HETATM    3  C11 UNL     1      25.577   0.548  53.465  1.00  0.00     0.041 A 
HETATM    4  C12 UNL     1      26.062  -0.270  54.385  1.00  0.00     0.135 A 
HETATM    5  N3  UNL     1      27.456  -0.461  54.509  1.00  0.00    -0.226 NA
HETATM    6  C13 UNL     1      28.322   0.138  53.751  1.00  0.00     0.209 A 
HETATM    7  N4  UNL     1      27.907   1.044  52.725  1.00  0.00    -0.348 N 
HETATM    8  C14 UNL     1      26.496   1.254  52.578  1.00  0.00     0.077 A 
HETATM    9  C15 UNL     1      25.984   2.067  51.666  1.00  0.00     0.079 A 
HETATM   10  C17 UNL     1      24.539   2.330  51.461  1.00  0.00     0.124 A 
HETATM   11  H14 UNL     1      28.563   1.553  52.087  1.00  0.00     0.167 HD
ENDROOT
BRANCH   1  12
HETATM   12  N1  UNL     1      22.271   1.661  52.399  1.00  0.00    -0.359 N 
HETATM   13  H9  UNL     1      21.782   2.561  52.167  1.00  0.00     0.166 HD
BRANCH  12  14
HETATM   14  C8  UNL     1      21.244   0.732  52.667  1.00  0.00     0.041 A 
HETATM   15  C3  UNL     1      20.094   0.644  51.872  1.00  0.00    -0.006 A 
HETATM   16  C4  UNL     1      19.168  -0.298  52.246  1.00  0.00     0.035 A 
HETATM   17  C5  UNL     1      19.226  -1.169  53.305  1.00  0.00     0.034 A 
HETATM   18 CL1  UNL     1      17.962  -2.321  53.663  1.00  0.00    -0.084 Cl
HETATM   19  C6  UNL     1      20.378  -1.071  54.089  1.00  0.00     0.026 A 
HETATM   20  C7  UNL     1      21.342  -0.138  53.755  1.00  0.00     0.032 A 
BRANCH  15  21
HETATM   21  C2  UNL     1      19.900   1.518  50.697  1.00  0.00     0.208 C 
BRANCH  21  22
HETATM   22  O1  UNL     1      19.963   2.844  51.139  1.00  0.00    -0.391 OA
HETATM   23  C1  UNL     1      18.697   3.241  51.570  1.00  0.00     0.201 C 
ENDBRANCH  21  22
ENDBRANCH  15  21
ENDBRANCH  12  14
ENDBRANCH   1  12
BRANCH   9  24
HETATM   24  O2  UNL     1      26.913   2.688  50.875  1.00  0.00    -0.358 OA
HETATM   25  C16 UNL     1      26.690   3.567  49.823  1.00  0.00     0.209 C 
ENDBRANCH   9  24
BRANCH   4  26
HETATM   26  N2  UNL     1      25.233  -0.992  55.282  1.00  0.00    -0.383 N 
HETATM   27  H11 UNL     1      24.994  -0.496  56.169  1.00  0.00     0.157 HD
HETATM   28  H12 UNL     1      24.767  -1.918  55.321  1.00  0.00     0.157 HD
ENDBRANCH   4  26
TORSDOF 6
ENDMDL
MODEL 6
REMARK VINA RESULT:      -7.0      3.749      7.334
REMARK  6 active torsions:
REMARK  status: ('A' for Active; 'I' for Inactive)
REMARK    1  A    between atoms: O1_2  and  C2_3 
REMARK    2  A    between atoms: C2_3  and  C3_4 
REMARK    3  A    between atoms: C8_10  and  N1_11 
REMARK    4  A    between atoms: N1_11  and  C9_12 
REMARK    5  A    between atoms: C12_15  and  N2_16 
REMARK    6  A    between atoms: C15_21  and  O2_22 
ROOT
HETATM    1  C9  UNL     1      25.986   4.440  49.711  1.00  0.00     0.016 A 
HETATM    2  C10 UNL     1      25.341   5.489  50.197  1.00  0.00     0.043 A 
HETATM    3  C11 UNL     1      25.788   6.843  49.883  1.00  0.00     0.041 A 
HETATM    4  C12 UNL     1      25.153   7.901  50.361  1.00  0.00     0.135 A 
HETATM    5  N3  UNL     1      25.600   9.204  50.047  1.00  0.00    -0.226 NA
HETATM    6  C13 UNL     1      26.629   9.436  49.292  1.00  0.00     0.209 A 
HETATM    7  N4  UNL     1      27.386   8.366  48.723  1.00  0.00    -0.348 N 
HETATM    8  C14 UNL     1      26.955   7.033  49.027  1.00  0.00     0.077 A 
HETATM    9  C15 UNL     1      27.570   5.957  48.562  1.00  0.00     0.079 A 
HETATM   10  C17 UNL     1      27.176   4.553  48.836  1.00  0.00     0.124 A 
HETATM   11  H14 UNL     1      28.224   8.498  48.107  1.00  0.00     0.167 HD
ENDROOT
BRANCH   1  12
HETATM   12  N1  UNL     1      25.425   3.221  50.111  1.00  0.00    -0.359 N 
HETATM   13  H9  UNL     1      24.747   2.709  49.493  1.00  0.00     0.166 HD
BRANCH  12  14
HETATM   14  C8  UNL     1      25.557   2.423  51.267  1.00  0.00     0.041 A 
HETATM   15  C3  UNL     1      24.446   1.920  51.955  1.00  0.00    -0.006 A 
HETATM   16  C4  UNL     1      24.712   1.162  53.069  1.00  0.00     0.035 A 
HETATM   17  C5  UNL     1      25.936   0.835  53.597  1.00  0.00     0.034 A 
HETATM   18 CL1  UNL     1      26.124  -0.143  55.032  1.00  0.00    -0.084 Cl
HETATM   19  C6  UNL     1      27.036   1.343  52.901  1.00  0.00     0.026 A 
HETATM   20  C7  UNL     1      26.821   2.112  51.772  1.00  0.00     0.032 A 
BRANCH  15  21
HETATM   21  C2  UNL     1      23.067   2.190  51.497  1.00  0.00     0.208 C 
BRANCH  21  22
HETATM   22  O1  UNL     1      22.808   3.549  51.709  1.00  0.00    -0.391 OA
HETATM   23  C1  UNL     1      21.484   3.702  52.121  1.00  0.00     0.201 C 
ENDBRANCH  21  22
ENDBRANCH  15  21
ENDBRANCH  12  14
ENDBRANCH   1  12
BRANCH   9  24
HETATM   24  O2  UNL     1      28.654   6.222  47.769  1.00  0.00    -0.358 OA
HETATM   25  C16 UNL     1      29.970   5.816  47.954  1.00  0.00     0.209 C 
ENDBRANCH   9  24
BRANCH   4  26
HETATM   26  N2  UNL     1      24.014   7.797  51.199  1.00  0.00    -0.383 N 
HETATM   27  H11 UNL     1      23.885   8.579  51.879  1.00  0.00     0.157 HD
HETATM   28  H12 UNL     1      23.227   7.137  51.348  1.00  0.00     0.157 HD
ENDBRANCH   4  26
TORSDOF 6
ENDMDL
MODEL 7
REMARK VINA RESULT:      -7.0      2.588      3.986
REMARK  6 active torsions:
REMARK  status: ('A' for Active; 'I' for Inactive)
REMARK    1  A    between atoms: O1_2  and  C2_3 
REMARK    2  A    between atoms: C2_3  and  C3_4 
REMARK    3  A    between atoms: C8_10  and  N1_11 
REMARK    4  A    between atoms: N1_11  and  C9_12 
REMARK    5  A    between atoms: C12_15  and  N2_16 
REMARK    6  A    between atoms: C15_21  and  O2_22 
ROOT
HETATM    1  C9  UNL     1      23.547   2.077  52.192  1.00  0.00     0.016 A 
HETATM    2  C10 UNL     1      24.847   2.321  52.255  1.00  0.00     0.043 A 
HETATM    3  C11 UNL     1      25.728   1.442  53.018  1.00  0.00     0.041 A 
HETATM    4  C12 UNL     1      27.029   1.673  53.091  1.00  0.00     0.135 A 
HETATM    5  N3  UNL     1      27.867   0.813  53.834  1.00  0.00    -0.226 NA
HETATM    6  C13 UNL     1      27.426  -0.228  54.471  1.00  0.00     0.209 A 
HETATM    7  N4  UNL     1      26.038  -0.569  54.459  1.00  0.00    -0.348 N 
HETATM    8  C14 UNL     1      25.165   0.289  53.713  1.00  0.00     0.077 A 
HETATM    9  C15 UNL     1      23.860   0.081  53.623  1.00  0.00     0.079 A 
HETATM   10  C17 UNL     1      22.902   0.927  52.869  1.00  0.00     0.124 A 
HETATM   11  H14 UNL     1      25.630  -1.397  54.955  1.00  0.00     0.167 HD
ENDROOT
BRANCH   1  12
HETATM   12  N1  UNL     1      22.852   3.018  51.421  1.00  0.00    -0.359 N 
HETATM   13  H9  UNL     1      22.331   3.809  51.874  1.00  0.00     0.166 HD
BRANCH  12  14
HETATM   14  C8  UNL     1      22.654   3.182  50.034  1.00  0.00     0.041 A 
HETATM   15  C3  UNL     1      22.727   4.435  49.415  1.00  0.00    -0.006 A 
HETATM   16  C4  UNL     1      22.508   4.458  48.059  1.00  0.00     0.035 A 
HETATM   17  C5  UNL     1      22.224   3.402  47.230  1.00  0.00     0.034 A 
HETATM   18 CL1  UNL     1      21.965   3.582  45.512  1.00  0.00    -0.084 Cl
HETATM   19  C6  UNL     1      22.153   2.157  47.861  1.00  0.00     0.026 A 
HETATM   20  C7  UNL     1      22.367   2.080  49.225  1.00  0.00     0.032 A 
BRANCH  15  21
HETATM   21  C2  UNL     1      23.029   5.660  50.185  1.00  0.00     0.208 C 
BRANCH  21  22
HETATM   22  O1  UNL     1      24.241   5.453  50.854  1.00  0.00    -0.391 OA
HETATM   23  C1  UNL     1      25.287   5.915  50.054  1.00  0.00     0.201 C 
ENDBRANCH  21  22
ENDBRANCH  15  21
ENDBRANCH  12  14
ENDBRANCH   1  12
BRANCH   9  24
HETATM   24  O2  UNL     1      23.413  -1.020  54.304  1.00  0.00    -0.358 OA
HETATM   25  C16 UNL     1      22.140  -1.256  54.807  1.00  0.00     0.209 C 
ENDBRANCH   9  24
BRANCH   4  26
HETATM   26  N2  UNL     1      27.648   2.774  52.445  1.00  0.00    -0.383 N 
HETATM   27  H11 UNL     1      28.375   3.271  53.005  1.00  0.00     0.157 HD
HETATM   28  H12 UNL     1      27.590   3.260  51.530  1.00  0.00     0.157 HD
ENDBRANCH   4  26
TORSDOF 6
ENDMDL
MODEL 8
REMARK VINA RESULT:      -6.9      3.534      7.968
REMARK  6 active torsions:
REMARK  status: ('A' for Active; 'I' for Inactive)
REMARK    1  A    between atoms: O1_2  and  C2_3 
REMARK    2  A    between atoms: C2_3  and  C3_4 
REMARK    3  A    between atoms: C8_10  and  N1_11 
REMARK    4  A    between atoms: N1_11  and  C9_12 
REMARK    5  A    between atoms: C12_15  and  N2_16 
REMARK    6  A    between atoms: C15_21  and  O2_22 
ROOT
HETATM    1  C9  UNL     1      25.614   3.545  49.919  1.00  0.00     0.016 A 
HETATM    2  C10 UNL     1      26.691   4.221  49.549  1.00  0.00     0.043 A 
HETATM    3  C11 UNL     1      26.560   5.487  48.834  1.00  0.00     0.041 A 
HETATM    4  C12 UNL     1      27.626   6.174  48.458  1.00  0.00     0.135 A 
HETATM    5  N3  UNL     1      27.481   7.397  47.767  1.00  0.00    -0.226 NA
HETATM    6  C13 UNL     1      26.326   7.908  47.468  1.00  0.00     0.209 A 
HETATM    7  N4  UNL     1      25.110   7.249  47.829  1.00  0.00    -0.348 N 
HETATM    8  C14 UNL     1      25.229   6.004  48.530  1.00  0.00     0.077 A 
HETATM    9  C15 UNL     1      24.180   5.296  48.918  1.00  0.00     0.079 A 
HETATM   10  C17 UNL     1      24.233   4.005  49.646  1.00  0.00     0.124 A 
HETATM   11  H14 UNL     1      24.153   7.617  47.613  1.00  0.00     0.167 HD
ENDROOT
BRANCH   1  12
HETATM   12  N1  UNL     1      25.922   2.355  50.591  1.00  0.00    -0.359 N 
HETATM   13  H9  UNL     1      26.824   1.848  50.408  1.00  0.00     0.166 HD
BRANCH  12  14
HETATM   14  C8  UNL     1      25.246   1.582  51.557  1.00  0.00     0.041 A 
HETATM   15  C3  UNL     1      25.929   0.840  52.529  1.00  0.00    -0.006 A 
HETATM   16  C4  UNL     1      25.152   0.125  53.407  1.00  0.00     0.035 A 
HETATM   17  C5  UNL     1      23.783   0.044  53.452  1.00  0.00     0.034 A 
HETATM   18 CL1  UNL     1      22.923  -0.914  54.634  1.00  0.00    -0.084 Cl
HETATM   19  C6  UNL     1      23.113   0.789  52.478  1.00  0.00     0.026 A 
HETATM   20  C7  UNL     1      23.850   1.526  51.570  1.00  0.00     0.032 A 
BRANCH  15  21
HETATM   21  C2  UNL     1      27.405   0.838  52.601  1.00  0.00     0.208 C 
BRANCH  21  22
HETATM   22  O1  UNL     1      27.832   2.170  52.609  1.00  0.00    -0.391 OA
HETATM   23  C1  UNL     1      28.707   2.361  53.679  1.00  0.00     0.201 C 
ENDBRANCH  21  22
ENDBRANCH  15  21
ENDBRANCH  12  14
ENDBRANCH   1  12
BRANCH   9  24
HETATM   24  O2  UNL     1      22.971   5.851  48.593  1.00  0.00    -0.358 OA
HETATM   25  C16 UNL     1      21.956   5.298  47.821  1.00  0.00     0.209 C 
ENDBRANCH   9  24
BRANCH   4  26
HETATM   26  N2  UNL     1      28.950   5.736  48.716  1.00  0.00    -0.383 N 
HETATM   27  H11 UNL     1      29.454   5.325  47.899  1.00  0.00     0.157 HD
HETATM   28  H12 UNL     1      29.604   5.698  49.521  1.00  0.00     0.157 HD
ENDBRANCH   4  26
TORSDOF 6
ENDMDL
MODEL 9
REMARK VINA RESULT:      -6.9      2.066      4.330
REMARK  6 active torsions:
REMARK  status: ('A' for Active; 'I' for Inactive)
REMARK    1  A    between atoms: O1_2  and  C2_3 
REMARK    2  A    between atoms: C2_3  and  C3_4 
REMARK    3  A    between atoms: C8_10  and  N1_11 
REMARK    4  A    between atoms: N1_11  and  C9_12 
REMARK    5  A    between atoms: C12_15  and  N2_16 
REMARK    6  A    between atoms: C15_21  and  O2_22 
ROOT
HETATM    1  C9  UNL     1      23.232   3.435  52.231  1.00  0.00     0.016 A 
HETATM    2  C10 UNL     1      23.475   2.182  52.584  1.00  0.00     0.043 A 
HETATM    3  C11 UNL     1      22.373   1.265  52.858  1.00  0.00     0.041 A 
HETATM    4  C12 UNL     1      22.600   0.010  53.213  1.00  0.00     0.135 A 
HETATM    5  N3  UNL     1      21.522  -0.864  53.475  1.00  0.00    -0.226 NA
HETATM    6  C13 UNL     1      20.279  -0.502  53.385  1.00  0.00     0.209 A 
HETATM    7  N4  UNL     1      19.922   0.831  53.010  1.00  0.00    -0.348 N 
HETATM    8  C14 UNL     1      20.998   1.739  52.739  1.00  0.00     0.077 A 
HETATM    9  C15 UNL     1      20.800   2.999  52.383  1.00  0.00     0.079 A 
HETATM   10  C17 UNL     1      21.865   3.989  52.089  1.00  0.00     0.124 A 
HETATM   11  H14 UNL     1      18.936   1.175  52.922  1.00  0.00     0.167 HD
ENDROOT
BRANCH   1  12
HETATM   12  N1  UNL     1      24.401   4.175  52.007  1.00  0.00    -0.359 N 
HETATM   13  H9  UNL     1      25.144   4.247  52.746  1.00  0.00     0.166 HD
BRANCH  12  14
HETATM   14  C8  UNL     1      24.878   4.933  50.918  1.00  0.00     0.041 A 
HETATM   15  C3  UNL     1      25.781   4.409  49.985  1.00  0.00    -0.006 A 
HETATM   16  C4  UNL     1      26.172   5.254  48.976  1.00  0.00     0.035 A 
HETATM   17  C5  UNL     1      25.788   6.554  48.764  1.00  0.00     0.034 A 
HETATM   18 CL1  UNL     1      26.373   7.515  47.427  1.00  0.00    -0.084 Cl
HETATM   19  C6  UNL     1      24.886   7.065  49.701  1.00  0.00     0.026 A 
HETATM   20  C7  UNL     1      24.461   6.254  50.738  1.00  0.00     0.032 A 
BRANCH  15  21
HETATM   21  C2  UNL     1      26.278   3.021  50.088  1.00  0.00     0.208 C 
BRANCH  21  22
HETATM   22  O1  UNL     1      27.047   2.930  51.253  1.00  0.00    -0.391 OA
HETATM   23  C1  UNL     1      26.956   1.634  51.760  1.00  0.00     0.201 C 
ENDBRANCH  21  22
ENDBRANCH  15  21
ENDBRANCH  12  14
ENDBRANCH   1  12
BRANCH   9  24
HETATM   24  O2  UNL     1      19.483   3.363  52.296  1.00  0.00    -0.358 OA
HETATM   25  C16 UNL     1      18.798   3.837  51.184  1.00  0.00     0.209 C 
ENDBRANCH   9  24
BRANCH   4  26
HETATM   26  N2  UNL     1      23.907  -0.522  53.351  1.00  0.00    -0.383 N 
HETATM   27  H11 UNL     1      24.675   0.183  53.412  1.00  0.00     0.157 HD
HETATM   28  H12 UNL     1      24.354  -1.458  53.411  1.00  0.00     0.157 HD
ENDBRANCH   4  26
TORSDOF 6
ENDMDL
