MODEL 1
REMARK VINA RESULT:      -9.2      0.000      0.000
REMARK  3 active torsions:
REMARK  status: ('A' for Active; 'I' for Inactive)
REMARK    1  A    between atoms: C5_6  and  C6_7 
REMARK    2  A    between atoms: C10_12  and  N2_13 
REMARK    3  A    between atoms: N2_13  and  C11_14 
ROOT
HETATM    1  C1  UNL     1      21.583   1.355  48.481  1.00  0.00     0.038 C 
HETATM    2  C2  UNL     1      21.322   1.193  49.766  1.00  0.00     0.003 C 
HETATM    3  N1  UNL     1      20.005   0.821  50.133  1.00  0.00    -0.389 N 
HETATM    4  C3  UNL     1      18.975   0.498  51.013  1.00  0.00     0.156 C 
HETATM    5  C4  UNL     1      19.382   0.026  52.393  1.00  0.00    -0.035 C 
HETATM    6  C5  UNL     1      18.876  -1.126  53.102  1.00  0.00     0.101 C 
HETATM    7  C7  UNL     1      20.331   0.752  53.040  1.00  0.00     0.014 C 
HETATM    8  C8  UNL     1      21.134   2.049  52.845  1.00  0.00     0.094 C 
HETATM    9  C9  UNL     1      22.268   1.484  52.008  1.00  0.00    -0.037 C 
HETATM   10  C10 UNL     1      23.321   0.777  52.359  1.00  0.00     0.053 C 
HETATM   11  C17 UNL     1      23.515  -0.245  53.413  1.00  0.00     0.142 C 
HETATM   12  N3  UNL     1      22.734  -0.874  54.226  1.00  0.00    -0.280 NA
HETATM   13  C18 UNL     1      21.503  -0.615  54.916  1.00  0.00     0.270 C 
HETATM   14  N4  UNL     1      20.392  -0.235  54.082  1.00  0.00    -0.373 N 
HETATM   15  C19 UNL     1      22.573   1.462  50.591  1.00  0.00     0.062 C 
HETATM   16  C20 UNL     1      23.073   2.791  50.086  1.00  0.00     0.021 C 
HETATM   17  H3  UNL     1      19.529   0.753  49.180  1.00  0.00     0.159 HD
HETATM   18  H18 UNL     1      19.416  -0.605  54.074  1.00  0.00     0.169 HD
ENDROOT
BRANCH  10  19
HETATM   19  N2  UNL     1      24.451   1.084  51.548  1.00  0.00    -0.355 N 
HETATM   20  H11 UNL     1      24.767   1.311  50.555  1.00  0.00     0.166 HD
BRANCH  19  21
HETATM   21  C11 UNL     1      25.646   1.055  52.381  1.00  0.00     0.034 A 
HETATM   22  C12 UNL     1      26.036   2.098  53.215  1.00  0.00     0.032 A 
HETATM   23  C13 UNL     1      27.161   2.089  54.006  1.00  0.00     0.046 A 
HETATM   24  C14 UNL     1      27.964   0.996  53.989  1.00  0.00     0.138 A 
HETATM   25  F1  UNL     1      29.071   0.964  54.754  1.00  0.00    -0.204 F 
HETATM   26  C15 UNL     1      27.679  -0.082  53.211  1.00  0.00     0.074 A 
HETATM   27 CL1  UNL     1      28.694  -1.486  53.177  1.00  0.00    -0.081 Cl
HETATM   28  C16 UNL     1      26.544  -0.021  52.441  1.00  0.00     0.056 A 
ENDBRANCH  19  21
ENDBRANCH  10  19
BRANCH   6  29
HETATM   29  C6  UNL     1      17.371  -1.226  53.399  1.00  0.00     0.233 C 
HETATM   30  O1  UNL     1      16.788  -1.942  52.611  1.00  0.00    -0.307 OA
ENDBRANCH   6  29
TORSDOF 3
ENDMDL
MODEL 2
REMARK VINA RESULT:      -9.2      4.362      5.801
REMARK  3 active torsions:
REMARK  status: ('A' for Active; 'I' for Inactive)
REMARK    1  A    between atoms: C5_6  and  C6_7 
REMARK    2  A    between atoms: C10_12  and  N2_13 
REMARK    3  A    between atoms: N2_13  and  C11_14 
ROOT
HETATM    1  C1  UNL     1      21.615   1.471  49.463  1.00  0.00     0.038 C 
HETATM    2  C2  UNL     1      22.464   1.625  50.463  1.00  0.00     0.003 C 
HETATM    3  N1  UNL     1      22.364   0.733  51.559  1.00  0.00    -0.389 N 
HETATM    4  C3  UNL     1      22.704   0.206  52.803  1.00  0.00     0.156 C 
HETATM    5  C4  UNL     1      24.092   0.523  53.320  1.00  0.00    -0.035 C 
HETATM    6  C5  UNL     1      25.042  -0.406  53.887  1.00  0.00     0.101 C 
HETATM    7  C7  UNL     1      24.500   1.815  53.240  1.00  0.00     0.014 C 
HETATM    8  C8  UNL     1      23.938   3.189  52.836  1.00  0.00     0.094 C 
HETATM    9  C9  UNL     1      24.205   3.108  51.344  1.00  0.00    -0.037 C 
HETATM   10  C10 UNL     1      25.322   3.264  50.664  1.00  0.00     0.053 C 
HETATM   11  C17 UNL     1      26.728   2.935  50.991  1.00  0.00     0.142 C 
HETATM   12  N3  UNL     1      27.315   2.288  51.942  1.00  0.00    -0.280 NA
HETATM   13  C18 UNL     1      27.090   2.033  53.336  1.00  0.00     0.270 C 
HETATM   14  N4  UNL     1      25.820   1.436  53.662  1.00  0.00    -0.373 N 
HETATM   15  C19 UNL     1      23.398   2.794  50.181  1.00  0.00     0.062 C 
HETATM   16  C20 UNL     1      22.477   3.922  49.795  1.00  0.00     0.021 C 
HETATM   17  H3  UNL     1      21.558   0.104  51.251  1.00  0.00     0.159 HD
HETATM   18  H18 UNL     1      25.615   0.611  54.266  1.00  0.00     0.169 HD
ENDROOT
BRANCH  10  19
HETATM   19  N2  UNL     1      25.081   3.857  49.392  1.00  0.00    -0.355 N 
HETATM   20  H11 UNL     1      24.606   3.715  48.448  1.00  0.00     0.166 HD
BRANCH  19  21
HETATM   21  C11 UNL     1      25.763   5.143  49.339  1.00  0.00     0.034 A 
HETATM   22  C12 UNL     1      25.368   6.262  50.066  1.00  0.00     0.032 A 
HETATM   23  C13 UNL     1      25.998   7.484  50.027  1.00  0.00     0.046 A 
HETATM   24  C14 UNL     1      27.084   7.634  49.230  1.00  0.00     0.138 A 
HETATM   25  F1  UNL     1      27.718   8.820  49.174  1.00  0.00    -0.204 F 
HETATM   26  C15 UNL     1      27.559   6.607  48.475  1.00  0.00     0.074 A 
HETATM   27 CL1  UNL     1      28.946   6.782  47.451  1.00  0.00    -0.081 Cl
HETATM   28  C16 UNL     1      26.893   5.409  48.551  1.00  0.00     0.056 A 
ENDBRANCH  19  21
ENDBRANCH  10  19
BRANCH   6  29
HETATM   29  C6  UNL     1      24.650  -1.218  55.132  1.00  0.00     0.233 C 
HETATM   30  O1  UNL     1      25.381  -1.004  56.077  1.00  0.00    -0.307 OA
ENDBRANCH   6  29
TORSDOF 3
ENDMDL
MODEL 3
REMARK VINA RESULT:      -8.8      0.972      1.312
REMARK  3 active torsions:
REMARK  status: ('A' for Active; 'I' for Inactive)
REMARK    1  A    between atoms: C5_6  and  C6_7 
REMARK    2  A    between atoms: C10_12  and  N2_13 
REMARK    3  A    between atoms: N2_13  and  C11_14 
ROOT
HETATM    1  C1  UNL     1      21.601   1.362  48.531  1.00  0.00     0.038 C 
HETATM    2  C2  UNL     1      21.352   1.182  49.816  1.00  0.00     0.003 C 
HETATM    3  N1  UNL     1      20.063   0.724  50.183  1.00  0.00    -0.389 N 
HETATM    4  C3  UNL     1      19.057   0.334  51.064  1.00  0.00     0.156 C 
HETATM    5  C4  UNL     1      19.494  -0.109  52.444  1.00  0.00    -0.035 C 
HETATM    6  C5  UNL     1      19.066  -1.292  53.154  1.00  0.00     0.101 C 
HETATM    7  C7  UNL     1      20.393   0.678  53.090  1.00  0.00     0.014 C 
HETATM    8  C8  UNL     1      21.108   2.026  52.895  1.00  0.00     0.094 C 
HETATM    9  C9  UNL     1      22.277   1.537  52.058  1.00  0.00    -0.037 C 
HETATM   10  C10 UNL     1      23.375   0.902  52.409  1.00  0.00     0.053 C 
HETATM   11  C17 UNL     1      23.636  -0.105  53.464  1.00  0.00     0.142 C 
HETATM   12  N3  UNL     1      22.899  -0.785  54.277  1.00  0.00    -0.280 NA
HETATM   13  C18 UNL     1      21.654  -0.607  54.967  1.00  0.00     0.270 C 
HETATM   14  N4  UNL     1      20.519  -0.302  54.133  1.00  0.00    -0.373 N 
HETATM   15  C19 UNL     1      22.583   1.534  50.641  1.00  0.00     0.062 C 
HETATM   16  C20 UNL     1      22.993   2.893  50.136  1.00  0.00     0.021 C 
HETATM   17  H3  UNL     1      19.592   0.625  49.231  1.00  0.00     0.159 HD
HETATM   18  H18 UNL     1      19.570  -0.736  54.125  1.00  0.00     0.169 HD
ENDROOT
BRANCH  10  19
HETATM   19  N2  UNL     1      24.481   1.282  51.597  1.00  0.00    -0.355 N 
HETATM   20  H11 UNL     1      24.762   1.765  50.689  1.00  0.00     0.166 HD
BRANCH  19  21
HETATM   21  C11 UNL     1      25.708   0.816  52.231  1.00  0.00     0.034 A 
HETATM   22  C12 UNL     1      26.056  -0.526  52.354  1.00  0.00     0.032 A 
HETATM   23  C13 UNL     1      27.208  -0.984  52.949  1.00  0.00     0.046 A 
HETATM   24  C14 UNL     1      28.082  -0.083  53.462  1.00  0.00     0.138 A 
HETATM   25  F1  UNL     1      29.216  -0.507  54.050  1.00  0.00    -0.204 F 
HETATM   26  C15 UNL     1      27.844   1.254  53.397  1.00  0.00     0.074 A 
HETATM   27 CL1  UNL     1      28.951   2.418  54.046  1.00  0.00    -0.081 Cl
HETATM   28  C16 UNL     1      26.680   1.658  52.791  1.00  0.00     0.056 A 
ENDBRANCH  19  21
ENDBRANCH  10  19
BRANCH   6  29
HETATM   29  C6  UNL     1      17.571  -1.492  53.450  1.00  0.00     0.233 C 
HETATM   30  O1  UNL     1      16.932  -0.467  53.337  1.00  0.00    -0.307 OA
ENDBRANCH   6  29
TORSDOF 3
ENDMDL
MODEL 4
REMARK VINA RESULT:      -8.6      2.551      4.363
REMARK  3 active torsions:
REMARK  status: ('A' for Active; 'I' for Inactive)
REMARK    1  A    between atoms: C5_6  and  C6_7 
REMARK    2  A    between atoms: C10_12  and  N2_13 
REMARK    3  A    between atoms: N2_13  and  C11_14 
ROOT
HETATM    1  C1  UNL     1      20.410   0.249  54.626  1.00  0.00     0.038 C 
HETATM    2  C2  UNL     1      20.975   0.856  53.597  1.00  0.00     0.003 C 
HETATM    3  N1  UNL     1      20.214   1.827  52.901  1.00  0.00    -0.389 N 
HETATM    4  C3  UNL     1      19.966   2.779  51.915  1.00  0.00     0.156 C 
HETATM    5  C4  UNL     1      21.177   3.404  51.253  1.00  0.00    -0.035 C 
HETATM    6  C5  UNL     1      21.409   4.809  51.013  1.00  0.00     0.101 C 
HETATM    7  C7  UNL     1      22.160   2.561  50.844  1.00  0.00     0.014 C 
HETATM    8  C8  UNL     1      22.432   1.050  50.753  1.00  0.00     0.094 C 
HETATM    9  C9  UNL     1      22.960   0.836  52.161  1.00  0.00    -0.037 C 
HETATM   10  C10 UNL     1      24.137   1.108  52.685  1.00  0.00     0.053 C 
HETATM   11  C17 UNL     1      25.098   2.207  52.431  1.00  0.00     0.142 C 
HETATM   12  N3  UNL     1      25.069   3.302  51.749  1.00  0.00    -0.280 NA
HETATM   13  C18 UNL     1      24.438   3.780  50.552  1.00  0.00     0.270 C 
HETATM   14  N4  UNL     1      23.001   3.681  50.523  1.00  0.00    -0.373 N 
HETATM   15  C19 UNL     1      22.391   0.334  53.395  1.00  0.00     0.062 C 
HETATM   16  C20 UNL     1      22.238  -1.165  53.394  1.00  0.00     0.021 C 
HETATM   17  H3  UNL     1      19.300   1.818  53.452  1.00  0.00     0.159 HD
HETATM   18  H18 UNL     1      22.295   4.404  50.266  1.00  0.00     0.169 HD
ENDROOT
BRANCH  10  19
HETATM   19  N2  UNL     1      24.506   0.148  53.669  1.00  0.00    -0.355 N 
HETATM   20  H11 UNL     1      24.147  -0.434  54.487  1.00  0.00     0.166 HD
BRANCH  19  21
HETATM   21  C11 UNL     1      25.928  -0.140  53.531  1.00  0.00     0.034 A 
HETATM   22  C12 UNL     1      26.434  -1.250  52.862  1.00  0.00     0.032 A 
HETATM   23  C13 UNL     1      27.772  -1.538  52.723  1.00  0.00     0.046 A 
HETATM   24  C14 UNL     1      28.682  -0.695  53.270  1.00  0.00     0.138 A 
HETATM   25  F1  UNL     1      29.996  -0.956  53.148  1.00  0.00    -0.204 F 
HETATM   26  C15 UNL     1      28.300   0.421  53.945  1.00  0.00     0.074 A 
HETATM   27 CL1  UNL     1      29.451   1.510  54.648  1.00  0.00    -0.081 Cl
HETATM   28  C16 UNL     1      26.953   0.663  54.054  1.00  0.00     0.056 A 
ENDBRANCH  19  21
ENDBRANCH  10  19
BRANCH   6  29
HETATM   29  C6  UNL     1      20.404   5.603  50.162  1.00  0.00     0.233 C 
HETATM   30  O1  UNL     1      20.299   5.166  49.035  1.00  0.00    -0.307 OA
ENDBRANCH   6  29
TORSDOF 3
ENDMDL
MODEL 5
REMARK VINA RESULT:      -8.5      4.360      6.111
REMARK  3 active torsions:
REMARK  status: ('A' for Active; 'I' for Inactive)
REMARK    1  A    between atoms: C5_6  and  C6_7 
REMARK    2  A    between atoms: C10_12  and  N2_13 
REMARK    3  A    between atoms: N2_13  and  C11_14 
ROOT
HETATM    1  C1  UNL     1      27.164   1.603  52.523  1.00  0.00     0.038 C 
HETATM    2  C2  UNL     1      25.856   1.561  52.335  1.00  0.00     0.003 C 
HETATM    3  N1  UNL     1      25.151   0.440  52.838  1.00  0.00    -0.389 N 
HETATM    4  C3  UNL     1      24.031  -0.352  53.079  1.00  0.00     0.156 C 
HETATM    5  C4  UNL     1      22.684   0.337  53.014  1.00  0.00    -0.035 C 
HETATM    6  C5  UNL     1      21.608   0.235  53.972  1.00  0.00     0.101 C 
HETATM    7  C7  UNL     1      22.455   1.147  51.948  1.00  0.00     0.014 C 
HETATM    8  C8  UNL     1      23.143   1.563  50.637  1.00  0.00     0.094 C 
HETATM    9  C9  UNL     1      24.006   2.685  51.187  1.00  0.00    -0.037 C 
HETATM   10  C10 UNL     1      23.695   3.919  51.522  1.00  0.00     0.053 C 
HETATM   11  C17 UNL     1      22.467   4.500  52.111  1.00  0.00     0.142 C 
HETATM   12  N3  UNL     1      21.378   4.016  52.608  1.00  0.00    -0.280 NA
HETATM   13  C18 UNL     1      20.553   2.860  52.407  1.00  0.00     0.270 C 
HETATM   14  N4  UNL     1      21.221   1.589  52.535  1.00  0.00    -0.373 N 
HETATM   15  C19 UNL     1      25.397   2.800  51.578  1.00  0.00     0.062 C 
HETATM   16  C20 UNL     1      26.326   2.877  50.394  1.00  0.00     0.021 C 
HETATM   17  H3  UNL     1      25.937  -0.123  53.289  1.00  0.00     0.159 HD
HETATM   18  H18 UNL     1      20.937   0.747  53.080  1.00  0.00     0.169 HD
ENDROOT
BRANCH  10  19
HETATM   19  N2  UNL     1      24.766   4.819  51.254  1.00  0.00    -0.355 N 
HETATM   20  H11 UNL     1      25.798   5.015  51.438  1.00  0.00     0.166 HD
BRANCH  19  21
HETATM   21  C11 UNL     1      24.263   5.913  50.433  1.00  0.00     0.034 A 
HETATM   22  C12 UNL     1      24.135   7.224  50.879  1.00  0.00     0.032 A 
HETATM   23  C13 UNL     1      23.661   8.268  50.118  1.00  0.00     0.046 A 
HETATM   24  C14 UNL     1      23.284   8.025  48.839  1.00  0.00     0.138 A 
HETATM   25  F1  UNL     1      22.816   9.029  48.075  1.00  0.00    -0.204 F 
HETATM   26  C15 UNL     1      23.366   6.780  48.298  1.00  0.00     0.074 A 
HETATM   27 CL1  UNL     1      22.889   6.454  46.664  1.00  0.00    -0.081 Cl
HETATM   28  C16 UNL     1      23.847   5.775  49.100  1.00  0.00     0.056 A 
ENDBRANCH  19  21
ENDBRANCH  10  19
BRANCH   6  29
HETATM   29  C6  UNL     1      21.004  -1.144  54.282  1.00  0.00     0.233 C 
HETATM   30  O1  UNL     1      21.609  -1.733  55.153  1.00  0.00    -0.307 OA
ENDBRANCH   6  29
TORSDOF 3
ENDMDL
MODEL 6
REMARK VINA RESULT:      -8.3      2.468      3.169
REMARK  3 active torsions:
REMARK  status: ('A' for Active; 'I' for Inactive)
REMARK    1  A    between atoms: C5_6  and  C6_7 
REMARK    2  A    between atoms: C10_12  and  N2_13 
REMARK    3  A    between atoms: N2_13  and  C11_14 
ROOT
HETATM    1  C1  UNL     1      23.550   5.120  48.336  1.00  0.00     0.038 C 
HETATM    2  C2  UNL     1      22.840   4.702  49.369  1.00  0.00     0.003 C 
HETATM    3  N1  UNL     1      21.479   5.091  49.437  1.00  0.00    -0.389 N 
HETATM    4  C3  UNL     1      20.204   5.160  49.994  1.00  0.00     0.156 C 
HETATM    5  C4  UNL     1      19.842   4.089  51.001  1.00  0.00    -0.035 C 
HETATM    6  C5  UNL     1      18.626   3.309  51.041  1.00  0.00     0.101 C 
HETATM    7  C7  UNL     1      20.755   3.816  51.969  1.00  0.00     0.014 C 
HETATM    8  C8  UNL     1      22.112   4.341  52.465  1.00  0.00     0.094 C 
HETATM    9  C9  UNL     1      23.010   3.554  51.527  1.00  0.00    -0.037 C 
HETATM   10  C10 UNL     1      23.384   2.292  51.557  1.00  0.00     0.053 C 
HETATM   11  C17 UNL     1      22.681   1.067  52.002  1.00  0.00     0.142 C 
HETATM   12  N3  UNL     1      21.474   0.791  52.368  1.00  0.00    -0.280 NA
HETATM   13  C18 UNL     1      20.393   1.468  53.026  1.00  0.00     0.270 C 
HETATM   14  N4  UNL     1      19.967   2.700  52.413  1.00  0.00    -0.373 N 
HETATM   15  C19 UNL     1      23.707   3.858  50.293  1.00  0.00     0.062 C 
HETATM   16  C20 UNL     1      24.939   4.696  50.516  1.00  0.00     0.021 C 
HETATM   17  H3  UNL     1      21.375   5.663  48.542  1.00  0.00     0.159 HD
HETATM   18  H18 UNL     1      19.002   3.018  52.173  1.00  0.00     0.169 HD
ENDROOT
BRANCH  10  19
HETATM   19  N2  UNL     1      24.707   2.127  51.058  1.00  0.00    -0.355 N 
HETATM   20  H11 UNL     1      25.332   2.254  50.203  1.00  0.00     0.166 HD
BRANCH  19  21
HETATM   21  C11 UNL     1      25.530   1.531  52.103  1.00  0.00     0.034 A 
HETATM   22  C12 UNL     1      25.838   2.164  53.303  1.00  0.00     0.032 A 
HETATM   23  C13 UNL     1      26.614   1.618  54.300  1.00  0.00     0.046 A 
HETATM   24  C14 UNL     1      27.126   0.375  54.122  1.00  0.00     0.138 A 
HETATM   25  F1  UNL     1      27.888  -0.180  55.082  1.00  0.00    -0.204 F 
HETATM   26  C15 UNL     1      26.888  -0.336  52.988  1.00  0.00     0.074 A 
HETATM   27 CL1  UNL     1      27.535  -1.925  52.746  1.00  0.00    -0.081 Cl
HETATM   28  C16 UNL     1      26.107   0.255  52.025  1.00  0.00     0.056 A 
ENDBRANCH  19  21
ENDBRANCH  10  19
BRANCH   6  29
HETATM   29  C6  UNL     1      17.274   4.030  51.166  1.00  0.00     0.233 C 
HETATM   30  O1  UNL     1      16.875   4.078  52.310  1.00  0.00    -0.307 OA
ENDBRANCH   6  29
TORSDOF 3
ENDMDL
MODEL 7
REMARK VINA RESULT:      -8.2      4.656      7.097
REMARK  3 active torsions:
REMARK  status: ('A' for Active; 'I' for Inactive)
REMARK    1  A    between atoms: C5_6  and  C6_7 
REMARK    2  A    between atoms: C10_12  and  N2_13 
REMARK    3  A    between atoms: N2_13  and  C11_14 
ROOT
HETATM    1  C1  UNL     1      20.732   0.251  52.218  1.00  0.00     0.038 C 
HETATM    2  C2  UNL     1      21.957   0.740  52.284  1.00  0.00     0.003 C 
HETATM    3  N1  UNL     1      22.962  -0.070  52.868  1.00  0.00    -0.389 N 
HETATM    4  C3  UNL     1      24.247  -0.380  53.309  1.00  0.00     0.156 C 
HETATM    5  C4  UNL     1      25.384   0.418  52.708  1.00  0.00    -0.035 C 
HETATM    6  C5  UNL     1      26.624  -0.099  52.175  1.00  0.00     0.101 C 
HETATM    7  C7  UNL     1      25.229   1.766  52.649  1.00  0.00     0.014 C 
HETATM    8  C8  UNL     1      24.228   2.841  53.105  1.00  0.00     0.094 C 
HETATM    9  C9  UNL     1      23.276   2.773  51.924  1.00  0.00    -0.037 C 
HETATM   10  C10 UNL     1      23.386   3.262  50.707  1.00  0.00     0.053 C 
HETATM   11  C17 UNL     1      24.559   3.450  49.822  1.00  0.00     0.142 C 
HETATM   12  N3  UNL     1      25.800   3.095  49.868  1.00  0.00    -0.280 NA
HETATM   13  C18 UNL     1      26.790   2.857  50.878  1.00  0.00     0.270 C 
HETATM   14  N4  UNL     1      26.436   1.883  51.878  1.00  0.00    -0.373 N 
HETATM   15  C19 UNL     1      21.995   2.139  51.685  1.00  0.00     0.062 C 
HETATM   16  C20 UNL     1      20.858   2.863  52.358  1.00  0.00     0.021 C 
HETATM   17  H3  UNL     1      22.412  -0.952  53.112  1.00  0.00     0.159 HD
HETATM   18  H18 UNL     1      26.988   1.072  52.234  1.00  0.00     0.169 HD
ENDROOT
BRANCH  10  19
HETATM   19  N2  UNL     1      22.122   3.665  50.189  1.00  0.00    -0.355 N 
HETATM   20  H11 UNL     1      21.163   3.317  49.880  1.00  0.00     0.166 HD
BRANCH  19  21
HETATM   21  C11 UNL     1      22.145   5.106  49.970  1.00  0.00     0.034 A 
HETATM   22  C12 UNL     1      22.188   6.046  50.995  1.00  0.00     0.032 A 
HETATM   23  C13 UNL     1      22.208   7.409  50.807  1.00  0.00     0.046 A 
HETATM   24  C14 UNL     1      22.185   7.894  49.541  1.00  0.00     0.138 A 
HETATM   25  F1  UNL     1      22.203   9.223  49.332  1.00  0.00    -0.204 F 
HETATM   26  C15 UNL     1      22.143   7.066  48.463  1.00  0.00     0.074 A 
HETATM   27 CL1  UNL     1      22.114   7.671  46.840  1.00  0.00    -0.081 Cl
HETATM   28  C16 UNL     1      22.125   5.715  48.707  1.00  0.00     0.056 A 
ENDBRANCH  19  21
ENDBRANCH  10  19
BRANCH   6  29
HETATM   29  C6  UNL     1      27.547  -0.925  53.086  1.00  0.00     0.233 C 
HETATM   30  O1  UNL     1      27.560  -0.518  54.229  1.00  0.00    -0.307 OA
ENDBRANCH   6  29
TORSDOF 3
ENDMDL
MODEL 8
REMARK VINA RESULT:      -7.9      5.705      7.321
REMARK  3 active torsions:
REMARK  status: ('A' for Active; 'I' for Inactive)
REMARK    1  A    between atoms: C5_6  and  C6_7 
REMARK    2  A    between atoms: C10_12  and  N2_13 
REMARK    3  A    between atoms: N2_13  and  C11_14 
ROOT
HETATM    1  C1  UNL     1      26.486   2.175  51.266  1.00  0.00     0.038 C 
HETATM    2  C2  UNL     1      25.394   2.821  50.896  1.00  0.00     0.003 C 
HETATM    3  N1  UNL     1      24.144   2.206  51.152  1.00  0.00    -0.389 N 
HETATM    4  C3  UNL     1      22.755   2.097  51.135  1.00  0.00     0.156 C 
HETATM    5  C4  UNL     1      21.973   3.383  50.972  1.00  0.00    -0.035 C 
HETATM    6  C5  UNL     1      20.837   3.815  51.753  1.00  0.00     0.101 C 
HETATM    7  C7  UNL     1      22.381   4.234  49.995  1.00  0.00     0.014 C 
HETATM    8  C8  UNL     1      23.410   4.285  48.854  1.00  0.00     0.094 C 
HETATM    9  C9  UNL     1      24.603   4.779  49.654  1.00  0.00    -0.037 C 
HETATM   10  C10 UNL     1      24.897   5.984  50.096  1.00  0.00     0.053 C 
HETATM   11  C17 UNL     1      24.042   7.093  50.579  1.00  0.00     0.142 C 
HETATM   12  N3  UNL     1      22.788   7.221  50.857  1.00  0.00    -0.280 NA
HETATM   13  C18 UNL     1      21.547   6.664  50.400  1.00  0.00     0.270 C 
HETATM   14  N4  UNL     1      21.451   5.227  50.458  1.00  0.00    -0.373 N 
HETATM   15  C19 UNL     1      25.765   4.146  50.245  1.00  0.00     0.062 C 
HETATM   16  C20 UNL     1      26.806   3.778  49.219  1.00  0.00     0.021 C 
HETATM   17  H3  UNL     1      24.444   1.301  51.632  1.00  0.00     0.159 HD
HETATM   18  H18 UNL     1      20.689   4.632  50.849  1.00  0.00     0.169 HD
ENDROOT
BRANCH  10  19
HETATM   19  N2  UNL     1      26.303   6.213  50.094  1.00  0.00    -0.355 N 
HETATM   20  H11 UNL     1      27.239   5.850  50.453  1.00  0.00     0.166 HD
BRANCH  19  21
HETATM   21  C11 UNL     1      26.578   7.421  49.327  1.00  0.00     0.034 A 
HETATM   22  C12 UNL     1      26.999   8.620  49.893  1.00  0.00     0.032 A 
HETATM   23  C13 UNL     1      27.262   9.770  49.186  1.00  0.00     0.046 A 
HETATM   24  C14 UNL     1      27.106   9.760  47.840  1.00  0.00     0.138 A 
HETATM   25  F1  UNL     1      27.356  10.873  47.126  1.00  0.00    -0.204 F 
HETATM   26  C15 UNL     1      26.699   8.642  47.181  1.00  0.00     0.074 A 
HETATM   27 CL1  UNL     1      26.496   8.611  45.460  1.00  0.00    -0.081 Cl
HETATM   28  C16 UNL     1      26.451   7.521  47.934  1.00  0.00     0.056 A 
ENDBRANCH  19  21
ENDBRANCH  10  19
BRANCH   6  29
HETATM   29  C6  UNL     1      19.578   2.933  51.801  1.00  0.00     0.233 C 
HETATM   30  O1  UNL     1      18.600   3.539  52.186  1.00  0.00    -0.307 OA
ENDBRANCH   6  29
TORSDOF 3
ENDMDL
MODEL 9
REMARK VINA RESULT:      -7.8      4.298      7.060
REMARK  3 active torsions:
REMARK  status: ('A' for Active; 'I' for Inactive)
REMARK    1  A    between atoms: C5_6  and  C6_7 
REMARK    2  A    between atoms: C10_12  and  N2_13 
REMARK    3  A    between atoms: N2_13  and  C11_14 
ROOT
HETATM    1  C1  UNL     1      23.454   4.902  52.228  1.00  0.00     0.038 C 
HETATM    2  C2  UNL     1      23.698   3.626  52.468  1.00  0.00     0.003 C 
HETATM    3  N1  UNL     1      25.026   3.256  52.796  1.00  0.00    -0.389 N 
HETATM    4  C3  UNL     1      26.055   2.377  53.127  1.00  0.00     0.156 C 
HETATM    5  C4  UNL     1      25.647   1.043  53.716  1.00  0.00    -0.035 C 
HETATM    6  C5  UNL     1      26.201   0.405  54.888  1.00  0.00     0.101 C 
HETATM    7  C7  UNL     1      24.649   0.370  53.088  1.00  0.00     0.014 C 
HETATM    8  C8  UNL     1      23.782   0.491  51.824  1.00  0.00     0.094 C 
HETATM    9  C9  UNL     1      22.696   1.391  52.386  1.00  0.00    -0.037 C 
HETATM   10  C10 UNL     1      21.675   1.115  53.170  1.00  0.00     0.053 C 
HETATM   11  C17 UNL     1      21.516   0.139  54.273  1.00  0.00     0.142 C 
HETATM   12  N3  UNL     1      22.314  -0.645  54.918  1.00  0.00    -0.280 NA
HETATM   13  C18 UNL     1      23.516  -1.379  54.644  1.00  0.00     0.270 C 
HETATM   14  N4  UNL     1      24.622  -0.600  54.148  1.00  0.00    -0.373 N 
HETATM   15  C19 UNL     1      22.419   2.813  52.324  1.00  0.00     0.062 C 
HETATM   16  C20 UNL     1      21.858   3.234  50.990  1.00  0.00     0.021 C 
HETATM   17  H3  UNL     1      25.524   4.200  52.771  1.00  0.00     0.159 HD
HETATM   18  H18 UNL     1      25.615  -0.588  54.466  1.00  0.00     0.169 HD
ENDROOT
BRANCH  10  19
HETATM   19  N2  UNL     1      20.546   1.928  52.866  1.00  0.00    -0.355 N 
HETATM   20  H11 UNL     1      20.166   2.923  52.892  1.00  0.00     0.166 HD
BRANCH  19  21
HETATM   21  C11 UNL     1      19.487   1.078  52.337  1.00  0.00     0.034 A 
HETATM   22  C12 UNL     1      18.814   1.328  51.145  1.00  0.00     0.032 A 
HETATM   23  C13 UNL     1      17.812   0.539  50.631  1.00  0.00     0.046 A 
HETATM   24  C14 UNL     1      17.435  -0.567  51.318  1.00  0.00     0.138 A 
HETATM   25  F1  UNL     1      16.456  -1.355  50.836  1.00  0.00    -0.204 F 
HETATM   26  C15 UNL     1      18.025  -0.909  52.494  1.00  0.00     0.074 A 
HETATM   27 CL1  UNL     1      17.555  -2.320  53.384  1.00  0.00    -0.081 Cl
HETATM   28  C16 UNL     1      19.020  -0.087  52.962  1.00  0.00     0.056 A 
ENDBRANCH  19  21
ENDBRANCH  10  19
BRANCH   6  29
HETATM   29  C6  UNL     1      27.703   0.083  54.931  1.00  0.00     0.233 C 
HETATM   30  O1  UNL     1      28.000  -0.851  54.215  1.00  0.00    -0.307 OA
ENDBRANCH   6  29
TORSDOF 3
ENDMDL
