MODEL 1
REMARK VINA RESULT:      -6.6      0.000      0.000
REMARK  6 active torsions:
REMARK  status: ('A' for Active; 'I' for Inactive)
REMARK    1  A    between atoms: C2_2  and  C3_3 
REMARK    2  A    between atoms: C5_7  and  N3_8 
REMARK    3  A    between atoms: N3_8  and  C6_9 
REMARK    4  A    between atoms: C9_12  and  O1_13 
REMARK    5  A    between atoms: O1_13  and  C10_14 
REMARK    6  A    between atoms: C10_14  and  C11_15 
ROOT
HETATM    1  N3  UNL     1      23.172   2.121  52.558  1.00  0.00    -0.341 N 
HETATM    2  H7  UNL     1      22.992   3.074  52.954  1.00  0.00     0.167 HD
ENDROOT
BRANCH   1   3
HETATM    3  C5  UNL     1      22.302   1.667  51.538  1.00  0.00     0.137 A 
HETATM    4  N2  UNL     1      22.548   1.666  50.223  1.00  0.00    -0.224 NA
HETATM    5  C4  UNL     1      21.716   1.232  49.271  1.00  0.00     0.235 A 
HETATM    6  N1  UNL     1      20.524   0.746  49.594  1.00  0.00    -0.246 NA
HETATM    7  C3  UNL     1      20.188   0.709  50.911  1.00  0.00     0.045 A 
HETATM    8  C14 UNL     1      21.058   1.159  51.867  1.00  0.00     0.009 A 
HETATM    9  C15 UNL     1      20.686   1.118  53.305  1.00  0.00     0.054 C 
BRANCH   7  10
HETATM   10  C2  UNL     1      18.847   0.157  51.236  1.00  0.00     0.055 C 
HETATM   11  C1  UNL     1      17.893   0.579  50.135  1.00  0.00     0.011 C 
ENDBRANCH   7  10
ENDBRANCH   1   3
BRANCH   1  12
HETATM   12  C6  UNL     1      24.276   1.436  53.116  1.00  0.00     0.033 A 
HETATM   13  C7  UNL     1      24.339   0.091  53.403  1.00  0.00     0.032 A 
HETATM   14  C8  UNL     1      25.424  -0.557  53.949  1.00  0.00     0.039 A 
HETATM   15  C9  UNL     1      26.550   0.184  54.240  1.00  0.00     0.069 A 
HETATM   16  C12 UNL     1      26.545   1.533  53.974  1.00  0.00     0.039 A 
HETATM   17  C13 UNL     1      25.441   2.107  53.435  1.00  0.00     0.032 A 
BRANCH  15  18
HETATM   18  O1  UNL     1      27.660  -0.438  54.790  1.00  0.00    -0.349 OA
BRANCH  18  19
HETATM   19  C10 UNL     1      28.933   0.092  54.531  1.00  0.00     0.207 C 
BRANCH  19  20
HETATM   20  C11 UNL     1      29.806  -0.841  53.722  1.00  0.00     0.248 C 
HETATM   21  F1  UNL     1      29.099  -1.821  53.099  1.00  0.00    -0.253 F 
ENDBRANCH  19  20
ENDBRANCH  18  19
ENDBRANCH  15  18
ENDBRANCH   1  12
TORSDOF 6
ENDMDL
MODEL 2
REMARK VINA RESULT:      -6.5      1.203      2.343
REMARK  6 active torsions:
REMARK  status: ('A' for Active; 'I' for Inactive)
REMARK    1  A    between atoms: C2_2  and  C3_3 
REMARK    2  A    between atoms: C5_7  and  N3_8 
REMARK    3  A    between atoms: N3_8  and  C6_9 
REMARK    4  A    between atoms: C9_12  and  O1_13 
REMARK    5  A    between atoms: O1_13  and  C10_14 
REMARK    6  A    between atoms: C10_14  and  C11_15 
ROOT
HETATM    1  N3  UNL     1      23.384   2.178  52.477  1.00  0.00    -0.341 N 
HETATM    2  H7  UNL     1      23.177   3.111  52.906  1.00  0.00     0.167 HD
ENDROOT
BRANCH   1   3
HETATM    3  C5  UNL     1      22.583   1.776  51.380  1.00  0.00     0.137 A 
HETATM    4  N2  UNL     1      21.486   1.013  51.434  1.00  0.00    -0.224 NA
HETATM    5  C4  UNL     1      20.738   0.643  50.389  1.00  0.00     0.235 A 
HETATM    6  N1  UNL     1      21.061   1.032  49.162  1.00  0.00    -0.246 NA
HETATM    7  C3  UNL     1      22.166   1.811  49.013  1.00  0.00     0.045 A 
HETATM    8  C14 UNL     1      22.914   2.178  50.099  1.00  0.00     0.009 A 
HETATM    9  C15 UNL     1      24.121   3.028  49.931  1.00  0.00     0.054 C 
BRANCH   7  10
HETATM   10  C2  UNL     1      22.496   2.231  47.627  1.00  0.00     0.055 C 
HETATM   11  C1  UNL     1      21.501   3.300  47.216  1.00  0.00     0.011 C 
ENDBRANCH   7  10
ENDBRANCH   1   3
BRANCH   1  12
HETATM   12  C6  UNL     1      24.447   1.462  53.073  1.00  0.00     0.033 A 
HETATM   13  C7  UNL     1      24.465   0.116  53.359  1.00  0.00     0.032 A 
HETATM   14  C8  UNL     1      25.511  -0.562  53.943  1.00  0.00     0.039 A 
HETATM   15  C9  UNL     1      26.645   0.149  54.277  1.00  0.00     0.069 A 
HETATM   16  C12 UNL     1      26.685   1.498  54.015  1.00  0.00     0.039 A 
HETATM   17  C13 UNL     1      25.618   2.102  53.437  1.00  0.00     0.032 A 
BRANCH  15  18
HETATM   18  O1  UNL     1      27.717  -0.504  54.866  1.00  0.00    -0.349 OA
BRANCH  18  19
HETATM   19  C10 UNL     1      29.020  -0.094  54.546  1.00  0.00     0.207 C 
BRANCH  19  20
HETATM   20  C11 UNL     1      29.635  -0.907  53.429  1.00  0.00     0.248 C 
HETATM   21  F1  UNL     1      29.350  -2.233  53.520  1.00  0.00    -0.253 F 
ENDBRANCH  19  20
ENDBRANCH  18  19
ENDBRANCH  15  18
ENDBRANCH   1  12
TORSDOF 6
ENDMDL
MODEL 3
REMARK VINA RESULT:      -6.5      1.909      2.745
REMARK  6 active torsions:
REMARK  status: ('A' for Active; 'I' for Inactive)
REMARK    1  A    between atoms: C2_2  and  C3_3 
REMARK    2  A    between atoms: C5_7  and  N3_8 
REMARK    3  A    between atoms: N3_8  and  C6_9 
REMARK    4  A    between atoms: C9_12  and  O1_13 
REMARK    5  A    between atoms: O1_13  and  C10_14 
REMARK    6  A    between atoms: C10_14  and  C11_15 
ROOT
HETATM    1  N3  UNL     1      23.141   2.265  52.316  1.00  0.00    -0.341 N 
HETATM    2  H7  UNL     1      22.226   2.297  52.825  1.00  0.00     0.167 HD
ENDROOT
BRANCH   1   3
HETATM    3  C5  UNL     1      23.213   2.926  51.066  1.00  0.00     0.137 A 
HETATM    4  N2  UNL     1      23.821   4.090  50.815  1.00  0.00    -0.224 NA
HETATM    5  C4  UNL     1      23.882   4.702  49.628  1.00  0.00     0.235 A 
HETATM    6  N1  UNL     1      23.307   4.157  48.563  1.00  0.00    -0.246 NA
HETATM    7  C3  UNL     1      22.664   2.970  48.726  1.00  0.00     0.045 A 
HETATM    8  C14 UNL     1      22.616   2.363  49.952  1.00  0.00     0.009 A 
HETATM    9  C15 UNL     1      21.910   1.068  50.126  1.00  0.00     0.054 C 
BRANCH   7  10
HETATM   10  C2  UNL     1      22.034   2.388  47.513  1.00  0.00     0.055 C 
HETATM   11  C1  UNL     1      21.882   3.498  46.491  1.00  0.00     0.011 C 
ENDBRANCH   7  10
ENDBRANCH   1   3
BRANCH   1  12
HETATM   12  C6  UNL     1      24.172   1.556  52.975  1.00  0.00     0.033 A 
HETATM   13  C7  UNL     1      24.161   0.219  53.301  1.00  0.00     0.032 A 
HETATM   14  C8  UNL     1      25.176  -0.453  53.946  1.00  0.00     0.039 A 
HETATM   15  C9  UNL     1      26.304   0.255  54.303  1.00  0.00     0.069 A 
HETATM   16  C12 UNL     1      26.372   1.595  54.003  1.00  0.00     0.039 A 
HETATM   17  C13 UNL     1      25.335   2.193  53.366  1.00  0.00     0.032 A 
BRANCH  15  18
HETATM   18  O1  UNL     1      27.344  -0.391  54.953  1.00  0.00    -0.349 OA
BRANCH  18  19
HETATM   19  C10 UNL     1      28.639   0.141  54.859  1.00  0.00     0.207 C 
BRANCH  19  20
HETATM   20  C11 UNL     1      29.512  -0.605  53.875  1.00  0.00     0.248 C 
HETATM   21  F1  UNL     1      28.843  -1.583  53.208  1.00  0.00    -0.253 F 
ENDBRANCH  19  20
ENDBRANCH  18  19
ENDBRANCH  15  18
ENDBRANCH   1  12
TORSDOF 6
ENDMDL
MODEL 4
REMARK VINA RESULT:      -6.5      1.349      1.985
REMARK  6 active torsions:
REMARK  status: ('A' for Active; 'I' for Inactive)
REMARK    1  A    between atoms: C2_2  and  C3_3 
REMARK    2  A    between atoms: C5_7  and  N3_8 
REMARK    3  A    between atoms: N3_8  and  C6_9 
REMARK    4  A    between atoms: C9_12  and  O1_13 
REMARK    5  A    between atoms: O1_13  and  C10_14 
REMARK    6  A    between atoms: C10_14  and  C11_15 
ROOT
HETATM    1  N3  UNL     1      23.250   1.022  52.015  1.00  0.00    -0.341 N 
HETATM    2  H7  UNL     1      23.348   1.549  51.114  1.00  0.00     0.167 HD
ENDROOT
BRANCH   1   3
HETATM    3  C5  UNL     1      21.946   0.625  52.397  1.00  0.00     0.137 A 
HETATM    4  N2  UNL     1      21.547   0.283  53.627  1.00  0.00    -0.224 NA
HETATM    5  C4  UNL     1      20.310  -0.089  53.973  1.00  0.00     0.235 A 
HETATM    6  N1  UNL     1      19.348  -0.145  53.061  1.00  0.00    -0.246 NA
HETATM    7  C3  UNL     1      19.664   0.186  51.781  1.00  0.00     0.045 A 
HETATM    8  C14 UNL     1      20.938   0.565  51.452  1.00  0.00     0.009 A 
HETATM    9  C15 UNL     1      21.280   0.923  50.051  1.00  0.00     0.054 C 
BRANCH   7  10
HETATM   10  C2  UNL     1      18.562   0.115  50.788  1.00  0.00     0.055 C 
HETATM   11  C1  UNL     1      17.283  -0.207  51.537  1.00  0.00     0.011 C 
ENDBRANCH   7  10
ENDBRANCH   1   3
BRANCH   1  12
HETATM   12  C6  UNL     1      24.459   0.791  52.712  1.00  0.00     0.033 A 
HETATM   13  C7  UNL     1      25.047  -0.433  52.938  1.00  0.00     0.032 A 
HETATM   14  C8  UNL     1      26.225  -0.637  53.621  1.00  0.00     0.039 A 
HETATM   15  C9  UNL     1      26.884   0.463  54.129  1.00  0.00     0.069 A 
HETATM   16  C12 UNL     1      26.344   1.712  53.934  1.00  0.00     0.039 A 
HETATM   17  C13 UNL     1      25.180   1.840  53.251  1.00  0.00     0.032 A 
BRANCH  15  18
HETATM   18  O1  UNL     1      28.073   0.292  54.823  1.00  0.00    -0.349 OA
BRANCH  18  19
HETATM   19  C10 UNL     1      29.276   0.682  54.214  1.00  0.00     0.207 C 
BRANCH  19  20
HETATM   20  C11 UNL     1      30.027  -0.476  53.597  1.00  0.00     0.248 C 
HETATM   21  F1  UNL     1      29.366  -1.658  53.714  1.00  0.00    -0.253 F 
ENDBRANCH  19  20
ENDBRANCH  18  19
ENDBRANCH  15  18
ENDBRANCH   1  12
TORSDOF 6
ENDMDL
MODEL 5
REMARK VINA RESULT:      -6.4      3.970      7.793
REMARK  6 active torsions:
REMARK  status: ('A' for Active; 'I' for Inactive)
REMARK    1  A    between atoms: C2_2  and  C3_3 
REMARK    2  A    between atoms: C5_7  and  N3_8 
REMARK    3  A    between atoms: N3_8  and  C6_9 
REMARK    4  A    between atoms: C9_12  and  O1_13 
REMARK    5  A    between atoms: O1_13  and  C10_14 
REMARK    6  A    between atoms: C10_14  and  C11_15 
ROOT
HETATM    1  N3  UNL     1      24.516   0.819  52.669  1.00  0.00    -0.341 N 
HETATM    2  H7  UNL     1      24.650   1.822  52.400  1.00  0.00     0.167 HD
ENDROOT
BRANCH   1   3
HETATM    3  C5  UNL     1      25.678   0.025  52.818  1.00  0.00     0.137 A 
HETATM    4  N2  UNL     1      25.796  -1.276  52.530  1.00  0.00    -0.224 NA
HETATM    5  C4  UNL     1      26.902  -2.013  52.675  1.00  0.00     0.235 A 
HETATM    6  N1  UNL     1      28.017  -1.464  53.142  1.00  0.00    -0.246 NA
HETATM    7  C3  UNL     1      27.989  -0.142  53.462  1.00  0.00     0.045 A 
HETATM    8  C14 UNL     1      26.844   0.591  53.304  1.00  0.00     0.009 A 
HETATM    9  C15 UNL     1      26.817   2.033  53.657  1.00  0.00     0.054 C 
BRANCH   7  10
HETATM   10  C2  UNL     1      29.254   0.439  53.979  1.00  0.00     0.055 C 
HETATM   11  C1  UNL     1      30.363  -0.566  53.729  1.00  0.00     0.011 C 
ENDBRANCH   7  10
ENDBRANCH   1   3
BRANCH   1  12
HETATM   12  C6  UNL     1      23.171   0.416  52.843  1.00  0.00     0.033 A 
HETATM   13  C7  UNL     1      22.139   0.617  51.954  1.00  0.00     0.032 A 
HETATM   14  C8  UNL     1      20.835   0.219  52.144  1.00  0.00     0.039 A 
HETATM   15  C9  UNL     1      20.516  -0.437  53.314  1.00  0.00     0.069 A 
HETATM   16  C12 UNL     1      21.506  -0.667  54.240  1.00  0.00     0.039 A 
HETATM   17  C13 UNL     1      22.770  -0.246  53.988  1.00  0.00     0.032 A 
BRANCH  15  18
HETATM   18  O1  UNL     1      19.212  -0.852  53.536  1.00  0.00    -0.349 OA
BRANCH  18  19
HETATM   19  C10 UNL     1      18.251  -0.633  52.537  1.00  0.00     0.207 C 
BRANCH  19  20
HETATM   20  C11 UNL     1      16.930  -1.307  52.832  1.00  0.00     0.248 C 
HETATM   21  F1  UNL     1      17.042  -2.655  52.968  1.00  0.00    -0.253 F 
ENDBRANCH  19  20
ENDBRANCH  18  19
ENDBRANCH  15  18
ENDBRANCH   1  12
TORSDOF 6
ENDMDL
MODEL 6
REMARK VINA RESULT:      -6.4      3.611      5.245
REMARK  6 active torsions:
REMARK  status: ('A' for Active; 'I' for Inactive)
REMARK    1  A    between atoms: C2_2  and  C3_3 
REMARK    2  A    between atoms: C5_7  and  N3_8 
REMARK    3  A    between atoms: N3_8  and  C6_9 
REMARK    4  A    between atoms: C9_12  and  O1_13 
REMARK    5  A    between atoms: O1_13  and  C10_14 
REMARK    6  A    between atoms: C10_14  and  C11_15 
ROOT
HETATM    1  N3  UNL     1      24.329   2.891  51.316  1.00  0.00    -0.341 N 
HETATM    2  H7  UNL     1      23.480   2.423  50.919  1.00  0.00     0.167 HD
ENDROOT
BRANCH   1   3
HETATM    3  C5  UNL     1      24.580   4.227  50.920  1.00  0.00     0.137 A 
HETATM    4  N2  UNL     1      23.934   5.318  51.345  1.00  0.00    -0.224 NA
HETATM    5  C4  UNL     1      24.183   6.575  50.963  1.00  0.00     0.235 A 
HETATM    6  N1  UNL     1      25.143   6.829  50.084  1.00  0.00    -0.246 NA
HETATM    7  C3  UNL     1      25.853   5.777  49.595  1.00  0.00     0.045 A 
HETATM    8  C14 UNL     1      25.580   4.500  50.004  1.00  0.00     0.009 A 
HETATM    9  C15 UNL     1      26.356   3.354  49.466  1.00  0.00     0.054 C 
BRANCH   7  10
HETATM   10  C2  UNL     1      26.922   6.099  48.616  1.00  0.00     0.055 C 
HETATM   11  C1  UNL     1      27.284   7.563  48.787  1.00  0.00     0.011 C 
ENDBRANCH   7  10
ENDBRANCH   1   3
BRANCH   1  12
HETATM   12  C6  UNL     1      25.096   2.098  52.199  1.00  0.00     0.033 A 
HETATM   13  C7  UNL     1      25.588   2.486  53.425  1.00  0.00     0.032 A 
HETATM   14  C8  UNL     1      26.336   1.697  54.270  1.00  0.00     0.039 A 
HETATM   15  C9  UNL     1      26.628   0.409  53.874  1.00  0.00     0.069 A 
HETATM   16  C12 UNL     1      26.163  -0.035  52.658  1.00  0.00     0.039 A 
HETATM   17  C13 UNL     1      25.432   0.796  51.876  1.00  0.00     0.032 A 
BRANCH  15  18
HETATM   18  O1  UNL     1      27.379  -0.411  54.701  1.00  0.00    -0.349 OA
BRANCH  18  19
HETATM   19  C10 UNL     1      28.746  -0.141  54.866  1.00  0.00     0.207 C 
BRANCH  19  20
HETATM   20  C11 UNL     1      29.613  -0.839  53.842  1.00  0.00     0.248 C 
HETATM   21  F1  UNL     1      30.442   0.012  53.181  1.00  0.00    -0.253 F 
ENDBRANCH  19  20
ENDBRANCH  18  19
ENDBRANCH  15  18
ENDBRANCH   1  12
TORSDOF 6
ENDMDL
MODEL 7
REMARK VINA RESULT:      -6.4      3.950      7.491
REMARK  6 active torsions:
REMARK  status: ('A' for Active; 'I' for Inactive)
REMARK    1  A    between atoms: C2_2  and  C3_3 
REMARK    2  A    between atoms: C5_7  and  N3_8 
REMARK    3  A    between atoms: N3_8  and  C6_9 
REMARK    4  A    between atoms: C9_12  and  O1_13 
REMARK    5  A    between atoms: O1_13  and  C10_14 
REMARK    6  A    between atoms: C10_14  and  C11_15 
ROOT
HETATM    1  N3  UNL     1      25.640   2.863  52.739  1.00  0.00    -0.341 N 
HETATM    2  H7  UNL     1      26.168   3.684  53.121  1.00  0.00     0.167 HD
ENDROOT
BRANCH   1   3
HETATM    3  C5  UNL     1      25.986   1.582  53.233  1.00  0.00     0.137 A 
HETATM    4  N2  UNL     1      25.155   0.550  53.418  1.00  0.00    -0.224 NA
HETATM    5  C4  UNL     1      25.496  -0.656  53.884  1.00  0.00     0.235 A 
HETATM    6  N1  UNL     1      26.756  -0.916  54.210  1.00  0.00    -0.246 NA
HETATM    7  C3  UNL     1      27.671   0.078  54.055  1.00  0.00     0.045 A 
HETATM    8  C14 UNL     1      27.297   1.304  53.575  1.00  0.00     0.009 A 
HETATM    9  C15 UNL     1      28.300   2.387  53.409  1.00  0.00     0.054 C 
BRANCH   7  10
HETATM   10  C2  UNL     1      29.071  -0.250  54.428  1.00  0.00     0.055 C 
HETATM   11  C1  UNL     1      29.575  -1.302  53.459  1.00  0.00     0.011 C 
ENDBRANCH   7  10
ENDBRANCH   1   3
BRANCH   1  12
HETATM   12  C6  UNL     1      24.651   3.177  51.779  1.00  0.00     0.033 A 
HETATM   13  C7  UNL     1      23.389   3.662  52.037  1.00  0.00     0.032 A 
HETATM   14  C8  UNL     1      22.439   3.960  51.086  1.00  0.00     0.039 A 
HETATM   15  C9  UNL     1      22.759   3.763  49.759  1.00  0.00     0.069 A 
HETATM   16  C12 UNL     1      24.007   3.280  49.440  1.00  0.00     0.039 A 
HETATM   17  C13 UNL     1      24.893   3.008  50.428  1.00  0.00     0.032 A 
BRANCH  15  18
HETATM   18  O1  UNL     1      21.825   4.053  48.776  1.00  0.00    -0.349 OA
BRANCH  18  19
HETATM   19  C10 UNL     1      21.513   3.070  47.825  1.00  0.00     0.207 C 
BRANCH  19  20
HETATM   20  C11 UNL     1      20.820   1.867  48.426  1.00  0.00     0.248 C 
HETATM   21  F1  UNL     1      21.606   0.758  48.444  1.00  0.00    -0.253 F 
ENDBRANCH  19  20
ENDBRANCH  18  19
ENDBRANCH  15  18
ENDBRANCH   1  12
TORSDOF 6
ENDMDL
MODEL 8
REMARK VINA RESULT:      -6.3      6.096      7.612
REMARK  6 active torsions:
REMARK  status: ('A' for Active; 'I' for Inactive)
REMARK    1  A    between atoms: C2_2  and  C3_3 
REMARK    2  A    between atoms: C5_7  and  N3_8 
REMARK    3  A    between atoms: N3_8  and  C6_9 
REMARK    4  A    between atoms: C9_12  and  O1_13 
REMARK    5  A    between atoms: O1_13  and  C10_14 
REMARK    6  A    between atoms: C10_14  and  C11_15 
ROOT
HETATM    1  N3  UNL     1      26.486   3.172  49.448  1.00  0.00    -0.341 N 
HETATM    2  H7  UNL     1      26.318   2.477  48.682  1.00  0.00     0.167 HD
ENDROOT
BRANCH   1   3
HETATM    3  C5  UNL     1      26.347   2.716  50.781  1.00  0.00     0.137 A 
HETATM    4  N2  UNL     1      27.332   2.542  51.669  1.00  0.00    -0.224 NA
HETATM    5  C4  UNL     1      27.186   2.111  52.926  1.00  0.00     0.235 A 
HETATM    6  N1  UNL     1      25.982   1.811  53.396  1.00  0.00    -0.246 NA
HETATM    7  C3  UNL     1      24.919   1.958  52.560  1.00  0.00     0.045 A 
HETATM    8  C14 UNL     1      25.095   2.401  51.277  1.00  0.00     0.009 A 
HETATM    9  C15 UNL     1      23.931   2.558  50.367  1.00  0.00     0.054 C 
BRANCH   7  10
HETATM   10  C2  UNL     1      23.586   1.616  53.120  1.00  0.00     0.055 C 
HETATM   11  C1  UNL     1      23.545   0.115  53.337  1.00  0.00     0.011 C 
ENDBRANCH   7  10
ENDBRANCH   1   3
BRANCH   1  12
HETATM   12  C6  UNL     1      26.830   4.473  49.016  1.00  0.00     0.033 A 
HETATM   13  C7  UNL     1      28.072   4.888  48.590  1.00  0.00     0.032 A 
HETATM   14  C8  UNL     1      28.387   6.163  48.174  1.00  0.00     0.039 A 
HETATM   15  C9  UNL     1      27.391   7.117  48.178  1.00  0.00     0.069 A 
HETATM   16  C12 UNL     1      26.130   6.760  48.594  1.00  0.00     0.039 A 
HETATM   17  C13 UNL     1      25.890   5.486  48.991  1.00  0.00     0.032 A 
BRANCH  15  18
HETATM   18  O1  UNL     1      27.676   8.409  47.766  1.00  0.00    -0.349 OA
BRANCH  18  19
HETATM   19  C10 UNL     1      28.591   9.172  48.507  1.00  0.00     0.207 C 
BRANCH  19  20
HETATM   20  C11 UNL     1      27.935   9.975  49.607  1.00  0.00     0.248 C 
HETATM   21  F1  UNL     1      27.610   9.222  50.691  1.00  0.00    -0.253 F 
ENDBRANCH  19  20
ENDBRANCH  18  19
ENDBRANCH  15  18
ENDBRANCH   1  12
TORSDOF 6
ENDMDL
MODEL 9
REMARK VINA RESULT:      -6.3      3.680      7.594
REMARK  6 active torsions:
REMARK  status: ('A' for Active; 'I' for Inactive)
REMARK    1  A    between atoms: C2_2  and  C3_3 
REMARK    2  A    between atoms: C5_7  and  N3_8 
REMARK    3  A    between atoms: N3_8  and  C6_9 
REMARK    4  A    between atoms: C9_12  and  O1_13 
REMARK    5  A    between atoms: O1_13  and  C10_14 
REMARK    6  A    between atoms: C10_14  and  C11_15 
ROOT
HETATM    1  N3  UNL     1      24.861   0.827  51.962  1.00  0.00    -0.341 N 
HETATM    2  H7  UNL     1      24.949   0.890  50.920  1.00  0.00     0.167 HD
ENDROOT
BRANCH   1   3
HETATM    3  C5  UNL     1      26.030   1.052  52.728  1.00  0.00     0.137 A 
HETATM    4  N2  UNL     1      26.387   2.199  53.316  1.00  0.00    -0.224 NA
HETATM    5  C4  UNL     1      27.495   2.397  54.038  1.00  0.00     0.235 A 
HETATM    6  N1  UNL     1      28.359   1.407  54.225  1.00  0.00    -0.246 NA
HETATM    7  C3  UNL     1      28.076   0.203  53.661  1.00  0.00     0.045 A 
HETATM    8  C14 UNL     1      26.935   0.025  52.926  1.00  0.00     0.009 A 
HETATM    9  C15 UNL     1      26.632  -1.292  52.311  1.00  0.00     0.054 C 
BRANCH   7  10
HETATM   10  C2  UNL     1      29.064  -0.883  53.892  1.00  0.00     0.055 C 
HETATM   11  C1  UNL     1      30.423  -0.377  53.446  1.00  0.00     0.011 C 
ENDBRANCH   7  10
ENDBRANCH   1   3
BRANCH   1  12
HETATM   12  C6  UNL     1      23.565   0.522  52.440  1.00  0.00     0.033 A 
HETATM   13  C7  UNL     1      23.242  -0.459  53.350  1.00  0.00     0.032 A 
HETATM   14  C8  UNL     1      21.972  -0.741  53.800  1.00  0.00     0.039 A 
HETATM   15  C9  UNL     1      20.924   0.010  53.311  1.00  0.00     0.069 A 
HETATM   16  C12 UNL     1      21.186   1.005  52.399  1.00  0.00     0.039 A 
HETATM   17  C13 UNL     1      22.462   1.228  51.999  1.00  0.00     0.032 A 
BRANCH  15  18
HETATM   18  O1  UNL     1      19.632  -0.248  53.745  1.00  0.00    -0.349 OA
BRANCH  18  19
HETATM   19  C10 UNL     1      18.674  -0.670  52.810  1.00  0.00     0.207 C 
BRANCH  19  20
HETATM   20  C11 UNL     1      17.654  -1.618  53.399  1.00  0.00     0.248 C 
HETATM   21  F1  UNL     1      18.055  -2.917  53.364  1.00  0.00    -0.253 F 
ENDBRANCH  19  20
ENDBRANCH  18  19
ENDBRANCH  15  18
ENDBRANCH   1  12
TORSDOF 6
ENDMDL
