MODEL 1
REMARK VINA RESULT:      -8.0      0.000      0.000
REMARK  6 active torsions:
REMARK  status: ('A' for Active; 'I' for Inactive)
REMARK    1  A    between atoms: C2_2  and  N1_3 
REMARK       I    between atoms: N1_3  and  C3_4 
REMARK    2  A    between atoms: N1_3  and  C6_9 
REMARK    3  A    between atoms: C3_4  and  C4_6 
REMARK    4  A    between atoms: C4_6  and  C5_7 
REMARK    5  A    between atoms: C5_7  and  S1_8 
REMARK    6  A    between atoms: C12_18  and  O2_19 
ROOT
HETATM    1  C6  UNL     1      24.643   2.403  51.837  1.00  0.00     0.045 C 
HETATM    2  C7  UNL     1      25.874   2.401  52.385  1.00  0.00     0.047 C 
HETATM    3  C8  UNL     1      26.565   1.511  53.349  1.00  0.00     0.029 A 
HETATM    4  C9  UNL     1      27.867   1.902  53.414  1.00  0.00     0.133 A 
HETATM    5  N2  UNL     1      28.650   1.199  54.262  1.00  0.00    -0.253 NA
HETATM    6  C10 UNL     1      28.195   0.186  54.994  1.00  0.00     0.234 A 
HETATM    7  N3  UNL     1      26.911  -0.192  54.923  1.00  0.00    -0.224 NA
HETATM    8  C11 UNL     1      26.050   0.461  54.094  1.00  0.00     0.138 A 
HETATM    9  N4  UNL     1      24.782  -0.196  54.263  1.00  0.00    -0.347 N 
HETATM   10  C12 UNL     1      23.688  -0.479  53.391  1.00  0.00     0.233 C 
HETATM   11  C14 UNL     1      22.849   0.703  52.993  1.00  0.00     0.092 A 
HETATM   12  C15 UNL     1      21.669   0.139  52.235  1.00  0.00    -0.013 A 
HETATM   13  C16 UNL     1      21.670   0.579  50.989  1.00  0.00    -0.002 A 
HETATM   14  C17 UNL     1      22.816   1.471  50.774  1.00  0.00     0.010 A 
HETATM   15  C18 UNL     1      23.475   1.529  51.948  1.00  0.00    -0.019 A 
HETATM   16  H14 UNL     1      24.693  -0.525  55.274  1.00  0.00     0.163 HD
ENDROOT
BRANCH   1  17
HETATM   17  N1  UNL     1      24.545   3.541  50.956  1.00  0.00    -0.318 N 
HETATM   18  C3  UNL     1      23.841   4.687  51.486  1.00  0.00     0.225 C 
HETATM   19  O1  UNL     1      23.380   4.714  52.657  1.00  0.00    -0.273 OA
BRANCH  17  20
HETATM   20  C2  UNL     1      25.020   3.649  49.595  1.00  0.00     0.128 C 
HETATM   21  C1  UNL     1      26.490   3.865  49.446  1.00  0.00     0.027 C 
ENDBRANCH  17  20
BRANCH  18  22
HETATM   22  C4  UNL     1      23.609   5.907  50.700  1.00  0.00     0.113 C 
BRANCH  22  23
HETATM   23  C5  UNL     1      24.330   7.126  51.215  1.00  0.00     0.080 C 
BRANCH  23  24
HETATM   24  S1  UNL     1      25.733   7.515  50.142  1.00  0.00    -0.182 SA
HETATM   25  H10 UNL     1      25.285   7.580  48.817  1.00  0.00     0.101 HD
ENDBRANCH  23  24
ENDBRANCH  22  23
ENDBRANCH  18  22
ENDBRANCH   1  17
BRANCH  10  26
HETATM   26  O2  UNL     1      22.839  -1.351  54.114  1.00  0.00    -0.371 OA
HETATM   27  C13 UNL     1      23.111  -1.324  55.459  1.00  0.00     0.204 C 
ENDBRANCH  10  26
TORSDOF 6
ENDMDL
MODEL 2
REMARK VINA RESULT:      -7.5      2.672      5.754
REMARK  6 active torsions:
REMARK  status: ('A' for Active; 'I' for Inactive)
REMARK    1  A    between atoms: C2_2  and  N1_3 
REMARK       I    between atoms: N1_3  and  C3_4 
REMARK    2  A    between atoms: N1_3  and  C6_9 
REMARK    3  A    between atoms: C3_4  and  C4_6 
REMARK    4  A    between atoms: C4_6  and  C5_7 
REMARK    5  A    between atoms: C5_7  and  S1_8 
REMARK    6  A    between atoms: C12_18  and  O2_19 
ROOT
HETATM    1  C6  UNL     1      24.964   0.640  52.883  1.00  0.00     0.045 C 
HETATM    2  C7  UNL     1      24.037  -0.191  53.397  1.00  0.00     0.047 C 
HETATM    3  C8  UNL     1      22.555  -0.168  53.445  1.00  0.00     0.029 A 
HETATM    4  C9  UNL     1      22.138  -1.361  53.951  1.00  0.00     0.133 A 
HETATM    5  N2  UNL     1      20.801  -1.511  54.076  1.00  0.00    -0.253 NA
HETATM    6  C10 UNL     1      19.933  -0.565  53.733  1.00  0.00     0.234 A 
HETATM    7  N3  UNL     1      20.352   0.608  53.235  1.00  0.00    -0.224 NA
HETATM    8  C11 UNL     1      21.684   0.845  53.075  1.00  0.00     0.138 A 
HETATM    9  N4  UNL     1      21.773   2.172  52.526  1.00  0.00    -0.347 N 
HETATM   10  C12 UNL     1      22.660   2.806  51.606  1.00  0.00     0.233 C 
HETATM   11  C14 UNL     1      24.041   3.093  52.123  1.00  0.00     0.092 A 
HETATM   12  C15 UNL     1      24.723   3.916  51.055  1.00  0.00    -0.013 A 
HETATM   13  C16 UNL     1      25.773   3.270  50.576  1.00  0.00    -0.002 A 
HETATM   14  C17 UNL     1      25.916   1.976  51.256  1.00  0.00     0.010 A 
HETATM   15  C18 UNL     1      24.907   1.904  52.146  1.00  0.00    -0.019 A 
HETATM   16  H14 UNL     1      20.981   2.766  52.923  1.00  0.00     0.163 HD
ENDROOT
BRANCH   1  17
HETATM   17  N1  UNL     1      26.267   0.081  53.151  1.00  0.00    -0.318 N 
HETATM   18  C3  UNL     1      26.881   0.490  54.394  1.00  0.00     0.225 C 
HETATM   19  O1  UNL     1      26.304   1.249  55.215  1.00  0.00    -0.273 OA
BRANCH  17  20
HETATM   20  C2  UNL     1      27.046  -0.793  52.303  1.00  0.00     0.128 C 
HETATM   21  C1  UNL     1      26.747  -2.250  52.440  1.00  0.00     0.027 C 
ENDBRANCH  17  20
BRANCH  18  22
HETATM   22  C4  UNL     1      28.227   0.053  54.793  1.00  0.00     0.113 C 
BRANCH  22  23
HETATM   23  C5  UNL     1      29.349   0.751  54.068  1.00  0.00     0.080 C 
BRANCH  23  24
HETATM   24  S1  UNL     1      28.855   2.439  53.643  1.00  0.00    -0.182 SA
HETATM   25  H10 UNL     1      27.618   2.711  54.238  1.00  0.00     0.101 HD
ENDBRANCH  23  24
ENDBRANCH  22  23
ENDBRANCH  18  22
ENDBRANCH   1  17
BRANCH  10  26
HETATM   26  O2  UNL     1      22.072   4.059  51.310  1.00  0.00    -0.371 OA
HETATM   27  C13 UNL     1      20.735   4.077  51.618  1.00  0.00     0.204 C 
ENDBRANCH  10  26
TORSDOF 6
ENDMDL
MODEL 3
REMARK VINA RESULT:      -7.4      2.451      5.306
REMARK  6 active torsions:
REMARK  status: ('A' for Active; 'I' for Inactive)
REMARK    1  A    between atoms: C2_2  and  N1_3 
REMARK       I    between atoms: N1_3  and  C3_4 
REMARK    2  A    between atoms: N1_3  and  C6_9 
REMARK    3  A    between atoms: C3_4  and  C4_6 
REMARK    4  A    between atoms: C4_6  and  C5_7 
REMARK    5  A    between atoms: C5_7  and  S1_8 
REMARK    6  A    between atoms: C12_18  and  O2_19 
ROOT
HETATM    1  C6  UNL     1      24.887   0.475  53.098  1.00  0.00     0.045 C 
HETATM    2  C7  UNL     1      24.944   1.631  52.408  1.00  0.00     0.047 C 
HETATM    3  C8  UNL     1      23.923   2.604  51.952  1.00  0.00     0.029 A 
HETATM    4  C9  UNL     1      24.577   3.681  51.436  1.00  0.00     0.133 A 
HETATM    5  N2  UNL     1      23.793   4.671  50.958  1.00  0.00    -0.253 NA
HETATM    6  C10 UNL     1      22.465   4.617  50.982  1.00  0.00     0.234 A 
HETATM    7  N3  UNL     1      21.828   3.552  51.492  1.00  0.00    -0.224 NA
HETATM    8  C11 UNL     1      22.541   2.507  51.996  1.00  0.00     0.138 A 
HETATM    9  N4  UNL     1      21.560   1.559  52.454  1.00  0.00    -0.347 N 
HETATM   10  C12 UNL     1      21.508   0.630  53.536  1.00  0.00     0.233 C 
HETATM   11  C14 UNL     1      22.388  -0.580  53.400  1.00  0.00     0.092 A 
HETATM   12  C15 UNL     1      22.030  -1.487  54.554  1.00  0.00    -0.013 A 
HETATM   13  C16 UNL     1      23.074  -1.656  55.347  1.00  0.00    -0.002 A 
HETATM   14  C17 UNL     1      24.225  -0.908  54.826  1.00  0.00     0.010 A 
HETATM   15  C18 UNL     1      23.802  -0.302  53.699  1.00  0.00    -0.019 A 
HETATM   16  H14 UNL     1      20.708   1.604  51.813  1.00  0.00     0.163 HD
ENDROOT
BRANCH   1  17
HETATM   17  N1  UNL     1      26.230  -0.033  53.238  1.00  0.00    -0.318 N 
HETATM   18  C3  UNL     1      26.946   0.402  54.416  1.00  0.00     0.225 C 
HETATM   19  O1  UNL     1      26.423   1.141  55.289  1.00  0.00    -0.273 OA
BRANCH  17  20
HETATM   20  C2  UNL     1      26.955  -0.880  52.317  1.00  0.00     0.128 C 
HETATM   21  C1  UNL     1      26.707  -2.345  52.466  1.00  0.00     0.027 C 
ENDBRANCH  17  20
BRANCH  18  22
HETATM   22  C4  UNL     1      28.340   0.017  54.682  1.00  0.00     0.113 C 
BRANCH  22  23
HETATM   23  C5  UNL     1      29.362   0.803  53.902  1.00  0.00     0.080 C 
BRANCH  23  24
HETATM   24  S1  UNL     1      28.729   2.461  53.547  1.00  0.00    -0.182 SA
HETATM   25  H10 UNL     1      27.369   2.368  53.230  1.00  0.00     0.101 HD
ENDBRANCH  23  24
ENDBRANCH  22  23
ENDBRANCH  18  22
ENDBRANCH   1  17
BRANCH  10  26
HETATM   26  O2  UNL     1      20.174   0.157  53.569  1.00  0.00    -0.371 OA
HETATM   27  C13 UNL     1      19.557   0.293  52.352  1.00  0.00     0.204 C 
ENDBRANCH  10  26
TORSDOF 6
ENDMDL
MODEL 4
REMARK VINA RESULT:      -7.3      2.857      4.694
REMARK  6 active torsions:
REMARK  status: ('A' for Active; 'I' for Inactive)
REMARK    1  A    between atoms: C2_2  and  N1_3 
REMARK       I    between atoms: N1_3  and  C3_4 
REMARK    2  A    between atoms: N1_3  and  C6_9 
REMARK    3  A    between atoms: C3_4  and  C4_6 
REMARK    4  A    between atoms: C4_6  and  C5_7 
REMARK    5  A    between atoms: C5_7  and  S1_8 
REMARK    6  A    between atoms: C12_18  and  O2_19 
ROOT
HETATM    1  C6  UNL     1      23.245   1.518  51.417  1.00  0.00     0.045 C 
HETATM    2  C7  UNL     1      22.972   0.628  52.391  1.00  0.00     0.047 C 
HETATM    3  C8  UNL     1      23.772   0.033  53.489  1.00  0.00     0.029 A 
HETATM    4  C9  UNL     1      22.926  -0.689  54.274  1.00  0.00     0.133 A 
HETATM    5  N2  UNL     1      23.493  -1.315  55.328  1.00  0.00    -0.253 NA
HETATM    6  C10 UNL     1      24.793  -1.243  55.598  1.00  0.00     0.234 A 
HETATM    7  N3  UNL     1      25.620  -0.530  54.819  1.00  0.00    -0.224 NA
HETATM    8  C11 UNL     1      25.132   0.135  53.734  1.00  0.00     0.138 A 
HETATM    9  N4  UNL     1      26.270   0.785  53.141  1.00  0.00    -0.347 N 
HETATM   10  C12 UNL     1      26.457   2.019  52.449  1.00  0.00     0.233 C 
HETATM   11  C14 UNL     1      25.892   2.079  51.058  1.00  0.00     0.092 A 
HETATM   12  C15 UNL     1      26.366   3.389  50.472  1.00  0.00    -0.013 A 
HETATM   13  C16 UNL     1      25.335   4.168  50.194  1.00  0.00    -0.002 A 
HETATM   14  C17 UNL     1      24.083   3.487  50.547  1.00  0.00     0.010 A 
HETATM   15  C18 UNL     1      24.434   2.281  51.036  1.00  0.00    -0.019 A 
HETATM   16  H14 UNL     1      27.132   0.172  53.279  1.00  0.00     0.163 HD
ENDROOT
BRANCH   1  17
HETATM   17  N1  UNL     1      22.049   1.709  50.634  1.00  0.00    -0.318 N 
HETATM   18  C3  UNL     1      21.048   2.573  51.217  1.00  0.00     0.225 C 
HETATM   19  O1  UNL     1      21.220   3.160  52.316  1.00  0.00    -0.273 OA
BRANCH  17  20
HETATM   20  C2  UNL     1      21.716   1.099  49.366  1.00  0.00     0.128 C 
HETATM   21  C1  UNL     1      22.174   1.847  48.157  1.00  0.00     0.027 C 
ENDBRANCH  17  20
BRANCH  18  22
HETATM   22  C4  UNL     1      19.752   2.831  50.573  1.00  0.00     0.113 C 
BRANCH  22  23
HETATM   23  C5  UNL     1      18.558   2.365  51.367  1.00  0.00     0.080 C 
BRANCH  23  24
HETATM   24  S1  UNL     1      18.647   0.576  51.625  1.00  0.00    -0.182 SA
HETATM   25  H10 UNL     1      18.663  -0.061  50.379  1.00  0.00     0.101 HD
ENDBRANCH  23  24
ENDBRANCH  22  23
ENDBRANCH  18  22
ENDBRANCH   1  17
BRANCH  10  26
HETATM   26  O2  UNL     1      27.858   2.176  52.321  1.00  0.00    -0.371 OA
HETATM   27  C13 UNL     1      28.462   2.351  53.540  1.00  0.00     0.204 C 
ENDBRANCH  10  26
TORSDOF 6
ENDMDL
MODEL 5
REMARK VINA RESULT:      -6.9      3.117      4.997
REMARK  6 active torsions:
REMARK  status: ('A' for Active; 'I' for Inactive)
REMARK    1  A    between atoms: C2_2  and  N1_3 
REMARK       I    between atoms: N1_3  and  C3_4 
REMARK    2  A    between atoms: N1_3  and  C6_9 
REMARK    3  A    between atoms: C3_4  and  C4_6 
REMARK    4  A    between atoms: C4_6  and  C5_7 
REMARK    5  A    between atoms: C5_7  and  S1_8 
REMARK    6  A    between atoms: C12_18  and  O2_19 
ROOT
HETATM    1  C6  UNL     1      22.013   1.790  51.572  1.00  0.00     0.045 C 
HETATM    2  C7  UNL     1      21.644   0.843  52.456  1.00  0.00     0.047 C 
HETATM    3  C8  UNL     1      22.377   0.046  53.469  1.00  0.00     0.029 A 
HETATM    4  C9  UNL     1      21.458  -0.647  54.196  1.00  0.00     0.133 A 
HETATM    5  N2  UNL     1      21.956  -1.442  55.167  1.00  0.00    -0.253 NA
HETATM    6  C10 UNL     1      23.258  -1.555  55.413  1.00  0.00     0.234 A 
HETATM    7  N3  UNL     1      24.157  -0.870  54.691  1.00  0.00    -0.224 NA
HETATM    8  C11 UNL     1      23.743  -0.043  53.691  1.00  0.00     0.138 A 
HETATM    9  N4  UNL     1      24.945   0.524  53.140  1.00  0.00    -0.347 N 
HETATM   10  C12 UNL     1      25.273   1.791  52.573  1.00  0.00     0.233 C 
HETATM   11  C14 UNL     1      24.704   2.063  51.209  1.00  0.00     0.092 A 
HETATM   12  C15 UNL     1      25.328   3.360  50.748  1.00  0.00    -0.013 A 
HETATM   13  C16 UNL     1      24.397   4.282  50.576  1.00  0.00    -0.002 A 
HETATM   14  C17 UNL     1      23.075   3.723  50.886  1.00  0.00     0.010 A 
HETATM   15  C18 UNL     1      23.282   2.441  51.243  1.00  0.00    -0.019 A 
HETATM   16  H14 UNL     1      25.727  -0.199  53.196  1.00  0.00     0.163 HD
ENDROOT
BRANCH   1  17
HETATM   17  N1  UNL     1      20.840   2.203  50.840  1.00  0.00    -0.318 N 
HETATM   18  C3  UNL     1      19.931   3.072  51.552  1.00  0.00     0.225 C 
HETATM   19  O1  UNL     1      20.162   3.482  52.718  1.00  0.00    -0.273 OA
BRANCH  17  20
HETATM   20  C2  UNL     1      20.447   1.810  49.505  1.00  0.00     0.128 C 
HETATM   21  C1  UNL     1      21.474   1.047  48.735  1.00  0.00     0.027 C 
ENDBRANCH  17  20
BRANCH  18  22
HETATM   22  C4  UNL     1      18.666   3.543  50.968  1.00  0.00     0.113 C 
BRANCH  22  23
HETATM   23  C5  UNL     1      17.436   2.871  51.524  1.00  0.00     0.080 C 
BRANCH  23  24
HETATM   24  S1  UNL     1      16.179   4.111  51.919  1.00  0.00    -0.182 SA
HETATM   25  H10 UNL     1      16.214   5.116  50.946  1.00  0.00     0.101 HD
ENDBRANCH  23  24
ENDBRANCH  22  23
ENDBRANCH  18  22
ENDBRANCH   1  17
BRANCH  10  26
HETATM   26  O2  UNL     1      26.682   1.792  52.429  1.00  0.00    -0.371 OA
HETATM   27  C13 UNL     1      27.315   1.610  53.633  1.00  0.00     0.204 C 
ENDBRANCH  10  26
TORSDOF 6
ENDMDL
MODEL 6
REMARK VINA RESULT:      -6.8      1.953      4.070
REMARK  6 active torsions:
REMARK  status: ('A' for Active; 'I' for Inactive)
REMARK    1  A    between atoms: C2_2  and  N1_3 
REMARK       I    between atoms: N1_3  and  C3_4 
REMARK    2  A    between atoms: N1_3  and  C6_9 
REMARK    3  A    between atoms: C3_4  and  C4_6 
REMARK    4  A    between atoms: C4_6  and  C5_7 
REMARK    5  A    between atoms: C5_7  and  S1_8 
REMARK    6  A    between atoms: C12_18  and  O2_19 
ROOT
HETATM    1  C6  UNL     1      23.771   2.049  51.564  1.00  0.00     0.045 C 
HETATM    2  C7  UNL     1      22.574   1.564  51.948  1.00  0.00     0.047 C 
HETATM    3  C8  UNL     1      22.156   0.436  52.814  1.00  0.00     0.029 A 
HETATM    4  C9  UNL     1      20.807   0.518  52.979  1.00  0.00     0.133 A 
HETATM    5  N2  UNL     1      20.249  -0.448  53.741  1.00  0.00    -0.253 NA
HETATM    6  C10 UNL     1      20.955  -1.424  54.303  1.00  0.00     0.234 A 
HETATM    7  N3  UNL     1      22.284  -1.498  54.135  1.00  0.00    -0.224 NA
HETATM    8  C11 UNL     1      22.930  -0.564  53.382  1.00  0.00     0.138 A 
HETATM    9  N4  UNL     1      24.319  -0.938  53.417  1.00  0.00    -0.347 N 
HETATM   10  C12 UNL     1      25.543  -0.204  53.411  1.00  0.00     0.233 C 
HETATM   11  C14 UNL     1      25.910   0.443  52.106  1.00  0.00     0.092 A 
HETATM   12  C15 UNL     1      27.305   0.993  52.291  1.00  0.00    -0.013 A 
HETATM   13  C16 UNL     1      27.301   2.309  52.164  1.00  0.00    -0.002 A 
HETATM   14  C17 UNL     1      25.939   2.780  51.880  1.00  0.00     0.010 A 
HETATM   15  C18 UNL     1      25.159   1.682  51.846  1.00  0.00    -0.019 A 
HETATM   16  H14 UNL     1      24.392  -2.001  53.460  1.00  0.00     0.163 HD
ENDROOT
BRANCH   1  17
HETATM   17  N1  UNL     1      23.542   3.181  50.699  1.00  0.00    -0.318 N 
HETATM   18  C3  UNL     1      23.086   4.387  51.351  1.00  0.00     0.225 C 
HETATM   19  O1  UNL     1      22.939   4.467  52.598  1.00  0.00    -0.273 OA
BRANCH  17  20
HETATM   20  C2  UNL     1      23.665   3.232  49.259  1.00  0.00     0.128 C 
HETATM   21  C1  UNL     1      22.640   2.453  48.502  1.00  0.00     0.027 C 
ENDBRANCH  17  20
BRANCH  18  22
HETATM   22  C4  UNL     1      22.757   5.613  50.608  1.00  0.00     0.113 C 
BRANCH  22  23
HETATM   23  C5  UNL     1      23.621   6.800  50.952  1.00  0.00     0.080 C 
BRANCH  23  24
HETATM   24  S1  UNL     1      23.273   8.167  49.820  1.00  0.00    -0.182 SA
HETATM   25  H10 UNL     1      24.160   8.097  48.739  1.00  0.00     0.101 HD
ENDBRANCH  23  24
ENDBRANCH  22  23
ENDBRANCH  18  22
ENDBRANCH   1  17
BRANCH  10  26
HETATM   26  O2  UNL     1      26.557  -1.152  53.691  1.00  0.00    -0.371 OA
HETATM   27  C13 UNL     1      26.683  -2.072  52.681  1.00  0.00     0.204 C 
ENDBRANCH  10  26
TORSDOF 6
ENDMDL
MODEL 7
REMARK VINA RESULT:      -6.8      3.218      5.259
REMARK  6 active torsions:
REMARK  status: ('A' for Active; 'I' for Inactive)
REMARK    1  A    between atoms: C2_2  and  N1_3 
REMARK       I    between atoms: N1_3  and  C3_4 
REMARK    2  A    between atoms: N1_3  and  C6_9 
REMARK    3  A    between atoms: C3_4  and  C4_6 
REMARK    4  A    between atoms: C4_6  and  C5_7 
REMARK    5  A    between atoms: C5_7  and  S1_8 
REMARK    6  A    between atoms: C12_18  and  O2_19 
ROOT
HETATM    1  C6  UNL     1      22.981   2.990  49.887  1.00  0.00     0.045 C 
HETATM    2  C7  UNL     1      22.359   2.086  50.668  1.00  0.00     0.047 C 
HETATM    3  C8  UNL     1      22.809   1.199  51.768  1.00  0.00     0.029 A 
HETATM    4  C9  UNL     1      21.705   0.612  52.306  1.00  0.00     0.133 A 
HETATM    5  N2  UNL     1      21.933  -0.245  53.325  1.00  0.00    -0.253 NA
HETATM    6  C10 UNL     1      23.151  -0.511  53.787  1.00  0.00     0.234 A 
HETATM    7  N3  UNL     1      24.234   0.071  53.251  1.00  0.00    -0.224 NA
HETATM    8  C11 UNL     1      24.096   0.950  52.219  1.00  0.00     0.138 A 
HETATM    9  N4  UNL     1      25.432   1.377  51.900  1.00  0.00    -0.347 N 
HETATM   10  C12 UNL     1      25.996   2.603  51.434  1.00  0.00     0.233 C 
HETATM   11  C14 UNL     1      25.708   2.951  50.001  1.00  0.00     0.092 A 
HETATM   12  C15 UNL     1      26.545   4.170  49.692  1.00  0.00    -0.013 A 
HETATM   13  C16 UNL     1      25.769   5.197  49.389  1.00  0.00    -0.002 A 
HETATM   14  C17 UNL     1      24.359   4.793  49.451  1.00  0.00     0.010 A 
HETATM   15  C18 UNL     1      24.354   3.491  49.801  1.00  0.00    -0.019 A 
HETATM   16  H14 UNL     1      26.106   0.567  52.068  1.00  0.00     0.163 HD
ENDROOT
BRANCH   1  17
HETATM   17  N1  UNL     1      22.009   3.544  48.977  1.00  0.00    -0.318 N 
HETATM   18  C3  UNL     1      21.974   2.953  47.659  1.00  0.00     0.225 C 
HETATM   19  O1  UNL     1      22.710   1.986  47.333  1.00  0.00    -0.273 OA
BRANCH  17  20
HETATM   20  C2  UNL     1      21.107   4.650  49.213  1.00  0.00     0.128 C 
HETATM   21  C1  UNL     1      20.985   5.083  50.637  1.00  0.00     0.027 C 
ENDBRANCH  17  20
BRANCH  18  22
HETATM   22  C4  UNL     1      21.077   3.435  46.598  1.00  0.00     0.113 C 
BRANCH  22  23
HETATM   23  C5  UNL     1      21.781   3.866  45.337  1.00  0.00     0.080 C 
BRANCH  23  24
HETATM   24  S1  UNL     1      20.592   4.001  43.980  1.00  0.00    -0.182 SA
HETATM   25  H10 UNL     1      19.358   4.410  44.499  1.00  0.00     0.101 HD
ENDBRANCH  23  24
ENDBRANCH  22  23
ENDBRANCH  18  22
ENDBRANCH   1  17
BRANCH  10  26
HETATM   26  O2  UNL     1      27.399   2.440  51.535  1.00  0.00    -0.371 OA
HETATM   27  C13 UNL     1      27.780   2.104  52.809  1.00  0.00     0.204 C 
ENDBRANCH  10  26
TORSDOF 6
ENDMDL
MODEL 8
REMARK VINA RESULT:      -6.7      3.114      5.524
REMARK  6 active torsions:
REMARK  status: ('A' for Active; 'I' for Inactive)
REMARK    1  A    between atoms: C2_2  and  N1_3 
REMARK       I    between atoms: N1_3  and  C3_4 
REMARK    2  A    between atoms: N1_3  and  C6_9 
REMARK    3  A    between atoms: C3_4  and  C4_6 
REMARK    4  A    between atoms: C4_6  and  C5_7 
REMARK    5  A    between atoms: C5_7  and  S1_8 
REMARK    6  A    between atoms: C12_18  and  O2_19 
ROOT
HETATM    1  C6  UNL     1      23.230   2.408  50.603  1.00  0.00     0.045 C 
HETATM    2  C7  UNL     1      23.976   1.647  51.428  1.00  0.00     0.047 C 
HETATM    3  C8  UNL     1      25.379   1.722  51.902  1.00  0.00     0.029 A 
HETATM    4  C9  UNL     1      25.544   0.770  52.861  1.00  0.00     0.133 A 
HETATM    5  N2  UNL     1      26.779   0.689  53.402  1.00  0.00    -0.253 NA
HETATM    6  C10 UNL     1      27.782   1.480  53.034  1.00  0.00     0.234 A 
HETATM    7  N3  UNL     1      27.612   2.414  52.087  1.00  0.00    -0.224 NA
HETATM    8  C11 UNL     1      26.397   2.566  51.488  1.00  0.00     0.138 A 
HETATM    9  N4  UNL     1      26.567   3.639  50.545  1.00  0.00    -0.347 N 
HETATM   10  C12 UNL     1      25.717   4.678  50.062  1.00  0.00     0.233 C 
HETATM   11  C14 UNL     1      24.617   4.243  49.135  1.00  0.00     0.092 A 
HETATM   12  C15 UNL     1      23.979   5.513  48.621  1.00  0.00    -0.013 A 
HETATM   13  C16 UNL     1      22.713   5.576  48.997  1.00  0.00    -0.002 A 
HETATM   14  C17 UNL     1      22.363   4.385  49.781  1.00  0.00     0.010 A 
HETATM   15  C18 UNL     1      23.478   3.630  49.839  1.00  0.00    -0.019 A 
HETATM   16  H14 UNL     1      27.560   3.606  50.156  1.00  0.00     0.163 HD
ENDROOT
BRANCH   1  17
HETATM   17  N1  UNL     1      21.912   1.825  50.522  1.00  0.00    -0.318 N 
HETATM   18  C3  UNL     1      21.037   2.092  51.641  1.00  0.00     0.225 C 
HETATM   19  O1  UNL     1      21.380   2.823  52.606  1.00  0.00    -0.273 OA
BRANCH  17  20
HETATM   20  C2  UNL     1      21.388   0.967  49.482  1.00  0.00     0.128 C 
HETATM   21  C1  UNL     1      21.837   1.295  48.096  1.00  0.00     0.027 C 
ENDBRANCH  17  20
BRANCH  18  22
HETATM   22  C4  UNL     1      19.682   1.531  51.737  1.00  0.00     0.113 C 
BRANCH  22  23
HETATM   23  C5  UNL     1      19.588   0.270  52.558  1.00  0.00     0.080 C 
BRANCH  23  24
HETATM   24  S1  UNL     1      18.004  -0.550  52.253  1.00  0.00    -0.182 SA
HETATM   25  H10 UNL     1      16.971   0.372  52.454  1.00  0.00     0.101 HD
ENDBRANCH  23  24
ENDBRANCH  22  23
ENDBRANCH  18  22
ENDBRANCH   1  17
BRANCH  10  26
HETATM   26  O2  UNL     1      26.554   5.541  49.316  1.00  0.00    -0.371 OA
HETATM   27  C13 UNL     1      27.567   4.855  48.696  1.00  0.00     0.204 C 
ENDBRANCH  10  26
TORSDOF 6
ENDMDL
MODEL 9
REMARK VINA RESULT:      -6.7      2.630      3.363
REMARK  6 active torsions:
REMARK  status: ('A' for Active; 'I' for Inactive)
REMARK    1  A    between atoms: C2_2  and  N1_3 
REMARK       I    between atoms: N1_3  and  C3_4 
REMARK    2  A    between atoms: N1_3  and  C6_9 
REMARK    3  A    between atoms: C3_4  and  C4_6 
REMARK    4  A    between atoms: C4_6  and  C5_7 
REMARK    5  A    between atoms: C5_7  and  S1_8 
REMARK    6  A    between atoms: C12_18  and  O2_19 
ROOT
HETATM    1  C6  UNL     1      22.159   1.808  51.454  1.00  0.00     0.045 C 
HETATM    2  C7  UNL     1      23.498   1.930  51.363  1.00  0.00     0.047 C 
HETATM    3  C8  UNL     1      24.637   1.230  52.004  1.00  0.00     0.029 A 
HETATM    4  C9  UNL     1      25.780   1.663  51.405  1.00  0.00     0.133 A 
HETATM    5  N2  UNL     1      26.928   1.131  51.878  1.00  0.00    -0.253 NA
HETATM    6  C10 UNL     1      26.960   0.240  52.864  1.00  0.00     0.234 A 
HETATM    7  N3  UNL     1      25.829  -0.180  53.450  1.00  0.00    -0.224 NA
HETATM    8  C11 UNL     1      24.625   0.304  53.036  1.00  0.00     0.138 A 
HETATM    9  N4  UNL     1      23.645  -0.351  53.860  1.00  0.00    -0.347 N 
HETATM   10  C12 UNL     1      22.309  -0.804  53.642  1.00  0.00     0.233 C 
HETATM   11  C14 UNL     1      21.266   0.272  53.526  1.00  0.00     0.092 A 
HETATM   12  C15 UNL     1      19.935  -0.442  53.485  1.00  0.00    -0.013 A 
HETATM   13  C16 UNL     1      19.325  -0.212  52.335  1.00  0.00    -0.002 A 
HETATM   14  C17 UNL     1      20.153   0.663  51.496  1.00  0.00     0.010 A 
HETATM   15  C18 UNL     1      21.263   0.932  52.210  1.00  0.00    -0.019 A 
HETATM   16  H14 UNL     1      24.058  -0.512  54.831  1.00  0.00     0.163 HD
ENDROOT
BRANCH   1  17
HETATM   17  N1  UNL     1      21.557   2.782  50.577  1.00  0.00    -0.318 N 
HETATM   18  C3  UNL     1      21.615   2.476  49.165  1.00  0.00     0.225 C 
HETATM   19  O1  UNL     1      22.116   1.409  48.726  1.00  0.00    -0.273 OA
BRANCH  17  20
HETATM   20  C2  UNL     1      20.953   4.045  50.940  1.00  0.00     0.128 C 
HETATM   21  C1  UNL     1      21.784   4.922  51.817  1.00  0.00     0.027 C 
ENDBRANCH  17  20
BRANCH  18  22
HETATM   22  C4  UNL     1      21.094   3.387  48.136  1.00  0.00     0.113 C 
BRANCH  22  23
HETATM   23  C5  UNL     1      22.156   4.037  47.286  1.00  0.00     0.080 C 
BRANCH  23  24
HETATM   24  S1  UNL     1      21.712   3.910  45.537  1.00  0.00    -0.182 SA
HETATM   25  H10 UNL     1      22.729   3.227  44.860  1.00  0.00     0.101 HD
ENDBRANCH  23  24
ENDBRANCH  22  23
ENDBRANCH  18  22
ENDBRANCH   1  17
BRANCH  10  26
HETATM   26  O2  UNL     1      21.973  -1.568  54.786  1.00  0.00    -0.371 OA
HETATM   27  C13 UNL     1      23.020  -1.645  55.670  1.00  0.00     0.204 C 
ENDBRANCH  10  26
TORSDOF 6
ENDMDL
