MODEL 1
REMARK VINA RESULT:      -7.5      0.000      0.000
REMARK  3 active torsions:
REMARK  status: ('A' for Active; 'I' for Inactive)
REMARK    1  A    between atoms: C4_5  and  N1_6 
REMARK    2  A    between atoms: N1_6  and  S1_7 
REMARK    3  A    between atoms: S1_7  and  C5_8 
ROOT
HETATM    1  C5  UNL     1      26.868   1.750  52.328  1.00  0.00     0.205 C 
HETATM    2  C6  UNL     1      28.088   1.826  53.138  1.00  0.00     0.120 C 
HETATM    3  N2  UNL     1      27.932   0.853  53.856  1.00  0.00    -0.303 NA
HETATM    4  C7  UNL     1      28.624   0.219  54.889  1.00  0.00     0.150 C 
HETATM    5  C8  UNL     1      29.881  -0.404  54.223  1.00  0.00     0.048 C 
HETATM    6  C9  UNL     1      29.267  -1.127  53.012  1.00  0.00     0.176 C 
HETATM    7  O1  UNL     1      28.205  -1.967  53.457  1.00  0.00    -0.362 OA
HETATM    8  C10 UNL     1      26.972  -1.915  52.752  1.00  0.00     0.151 C 
HETATM    9  C11 UNL     1      26.407  -0.912  52.066  1.00  0.00     0.108 C 
HETATM   10  N3  UNL     1      26.665   0.434  51.707  1.00  0.00    -0.378 N 
HETATM   11  H14 UNL     1      26.728   0.409  50.638  1.00  0.00     0.160 HD
ENDROOT
BRANCH   1  12
HETATM   12  S1  UNL     1      25.443   2.041  53.442  1.00  0.00    -0.024 SA
BRANCH  12  13
HETATM   13  N1  UNL     1      23.991   1.711  52.520  1.00  0.00    -0.328 N 
HETATM   14  H3  UNL     1      23.807   2.204  51.628  1.00  0.00     0.174 HD
BRANCH  13  15
HETATM   15  C4  UNL     1      23.048   0.765  52.981  1.00  0.00     0.040 A 
HETATM   16  C3  UNL     1      23.379  -0.192  53.913  1.00  0.00     0.033 A 
HETATM   17  C2  UNL     1      22.450  -1.111  54.357  1.00  0.00     0.046 A 
HETATM   18  C1  UNL     1      21.158  -1.079  53.860  1.00  0.00     0.138 A 
HETATM   19  F1  UNL     1      20.215  -1.963  54.269  1.00  0.00    -0.204 F 
HETATM   20  C13 UNL     1      20.761  -0.135  52.915  1.00  0.00     0.074 A 
HETATM   21  C12 UNL     1      21.748   0.752  52.521  1.00  0.00     0.057 A 
HETATM   22 CL1  UNL     1      19.138  -0.053  52.257  1.00  0.00    -0.081 Cl
ENDBRANCH  13  15
ENDBRANCH  12  13
ENDBRANCH   1  12
TORSDOF 3
ENDMDL
MODEL 2
REMARK VINA RESULT:      -7.2      3.918      6.895
REMARK  3 active torsions:
REMARK  status: ('A' for Active; 'I' for Inactive)
REMARK    1  A    between atoms: C4_5  and  N1_6 
REMARK    2  A    between atoms: N1_6  and  S1_7 
REMARK    3  A    between atoms: S1_7  and  C5_8 
ROOT
HETATM    1  C5  UNL     1      23.690   2.010  51.516  1.00  0.00     0.205 C 
HETATM    2  C6  UNL     1      23.069   0.764  51.975  1.00  0.00     0.120 C 
HETATM    3  N2  UNL     1      22.276   1.204  52.789  1.00  0.00    -0.303 NA
HETATM    4  C7  UNL     1      21.310   0.697  53.660  1.00  0.00     0.150 C 
HETATM    5  C8  UNL     1      20.168   0.171  52.748  1.00  0.00     0.048 C 
HETATM    6  C9  UNL     1      19.949   1.365  51.803  1.00  0.00     0.176 C 
HETATM    7  O1  UNL     1      19.758   2.546  52.576  1.00  0.00    -0.362 OA
HETATM    8  C10 UNL     1      20.489   3.710  52.211  1.00  0.00     0.151 C 
HETATM    9  C11 UNL     1      21.681   3.832  51.610  1.00  0.00     0.108 C 
HETATM   10  N3  UNL     1      22.715   3.020  51.083  1.00  0.00    -0.378 N 
HETATM   11  H14 UNL     1      22.730   3.264  50.040  1.00  0.00     0.160 HD
ENDROOT
BRANCH   1  12
HETATM   12  S1  UNL     1      24.610   2.726  52.930  1.00  0.00    -0.024 SA
BRANCH  12  13
HETATM   13  N1  UNL     1      26.301   2.770  52.477  1.00  0.00    -0.328 N 
HETATM   14  H3  UNL     1      26.682   3.564  51.933  1.00  0.00     0.174 HD
BRANCH  13  15
HETATM   15  C4  UNL     1      27.170   1.721  52.851  1.00  0.00     0.040 A 
HETATM   16  C3  UNL     1      28.370   1.962  53.480  1.00  0.00     0.033 A 
HETATM   17  C2  UNL     1      29.211   0.930  53.840  1.00  0.00     0.046 A 
HETATM   18  C1  UNL     1      28.850  -0.379  53.568  1.00  0.00     0.138 A 
HETATM   19  F1  UNL     1      29.647  -1.423  53.905  1.00  0.00    -0.204 F 
HETATM   20  C13 UNL     1      27.650  -0.690  52.933  1.00  0.00     0.074 A 
HETATM   21  C12 UNL     1      26.861   0.400  52.604  1.00  0.00     0.057 A 
HETATM   22 CL1  UNL     1      27.148  -2.329  52.568  1.00  0.00    -0.081 Cl
ENDBRANCH  13  15
ENDBRANCH  12  13
ENDBRANCH   1  12
TORSDOF 3
ENDMDL
MODEL 3
REMARK VINA RESULT:      -7.1      3.517      6.433
REMARK  3 active torsions:
REMARK  status: ('A' for Active; 'I' for Inactive)
REMARK    1  A    between atoms: C4_5  and  N1_6 
REMARK    2  A    between atoms: N1_6  and  S1_7 
REMARK    3  A    between atoms: S1_7  and  C5_8 
ROOT
HETATM    1  C5  UNL     1      23.677   2.723  52.398  1.00  0.00     0.205 C 
HETATM    2  C6  UNL     1      22.373   2.758  51.728  1.00  0.00     0.120 C 
HETATM    3  N2  UNL     1      22.290   1.600  51.356  1.00  0.00    -0.303 NA
HETATM    4  C7  UNL     1      21.376   0.810  50.658  1.00  0.00     0.150 C 
HETATM    5  C8  UNL     1      20.157   0.651  51.607  1.00  0.00     0.048 C 
HETATM    6  C9  UNL     1      20.839   0.240  52.924  1.00  0.00     0.176 C 
HETATM    7  O1  UNL     1      21.701  -0.868  52.678  1.00  0.00    -0.362 OA
HETATM    8  C10 UNL     1      23.020  -0.818  53.206  1.00  0.00     0.151 C 
HETATM    9  C11 UNL     1      23.810   0.233  53.470  1.00  0.00     0.108 C 
HETATM   10  N3  UNL     1      23.790   1.648  53.393  1.00  0.00    -0.378 N 
HETATM   11  H14 UNL     1      23.882   1.963  54.411  1.00  0.00     0.160 HD
ENDROOT
BRANCH   1  12
HETATM   12  S1  UNL     1      24.950   2.405  51.119  1.00  0.00    -0.024 SA
BRANCH  12  13
HETATM   13  N1  UNL     1      26.497   2.856  51.807  1.00  0.00    -0.328 N 
HETATM   14  H3  UNL     1      26.851   3.825  51.723  1.00  0.00     0.174 HD
BRANCH  13  15
HETATM   15  C4  UNL     1      27.283   1.900  52.489  1.00  0.00     0.040 A 
HETATM   16  C3  UNL     1      28.302   2.271  53.336  1.00  0.00     0.033 A 
HETATM   17  C2  UNL     1      29.063   1.330  53.998  1.00  0.00     0.046 A 
HETATM   18  C1  UNL     1      28.805  -0.019  53.811  1.00  0.00     0.138 A 
HETATM   19  F1  UNL     1      29.530  -0.976  54.442  1.00  0.00    -0.204 F 
HETATM   20  C13 UNL     1      27.789  -0.459  52.967  1.00  0.00     0.074 A 
HETATM   21  C12 UNL     1      27.070   0.546  52.341  1.00  0.00     0.057 A 
HETATM   22 CL1  UNL     1      27.424  -2.152  52.699  1.00  0.00    -0.081 Cl
ENDBRANCH  13  15
ENDBRANCH  12  13
ENDBRANCH   1  12
TORSDOF 3
ENDMDL
MODEL 4
REMARK VINA RESULT:      -7.1      5.417      7.009
REMARK  3 active torsions:
REMARK  status: ('A' for Active; 'I' for Inactive)
REMARK    1  A    between atoms: C4_5  and  N1_6 
REMARK    2  A    between atoms: N1_6  and  S1_7 
REMARK    3  A    between atoms: S1_7  and  C5_8 
ROOT
HETATM    1  C5  UNL     1      25.884   2.636  52.692  1.00  0.00     0.205 C 
HETATM    2  C6  UNL     1      24.881   1.620  53.028  1.00  0.00     0.120 C 
HETATM    3  N2  UNL     1      25.577   0.619  53.022  1.00  0.00    -0.303 NA
HETATM    4  C7  UNL     1      25.409  -0.749  53.240  1.00  0.00     0.150 C 
HETATM    5  C8  UNL     1      25.117  -0.892  54.759  1.00  0.00     0.048 C 
HETATM    6  C9  UNL     1      26.243  -0.042  55.374  1.00  0.00     0.176 C 
HETATM    7  O1  UNL     1      27.495  -0.470  54.845  1.00  0.00    -0.362 OA
HETATM    8  C10 UNL     1      28.398   0.524  54.378  1.00  0.00     0.151 C 
HETATM    9  C11 UNL     1      28.159   1.742  53.869  1.00  0.00     0.108 C 
HETATM   10  N3  UNL     1      27.069   2.591  53.559  1.00  0.00    -0.378 N 
HETATM   11  H14 UNL     1      27.212   3.439  54.197  1.00  0.00     0.160 HD
ENDROOT
BRANCH   1  12
HETATM   12  S1  UNL     1      26.458   2.307  50.984  1.00  0.00    -0.024 SA
BRANCH  12  13
HETATM   13  N1  UNL     1      25.487   3.297  49.913  1.00  0.00    -0.328 N 
HETATM   14  H3  UNL     1      24.503   3.047  49.708  1.00  0.00     0.174 HD
BRANCH  13  15
HETATM   15  C4  UNL     1      26.034   4.455  49.315  1.00  0.00     0.040 A 
HETATM   16  C3  UNL     1      25.269   5.570  49.062  1.00  0.00     0.033 A 
HETATM   17  C2  UNL     1      25.814   6.695  48.478  1.00  0.00     0.046 A 
HETATM   18  C1  UNL     1      27.157   6.712  48.136  1.00  0.00     0.138 A 
HETATM   19  F1  UNL     1      27.731   7.797  47.560  1.00  0.00    -0.204 F 
HETATM   20  C13 UNL     1      27.984   5.615  48.366  1.00  0.00     0.074 A 
HETATM   21  C12 UNL     1      27.363   4.526  48.955  1.00  0.00     0.057 A 
HETATM   22 CL1  UNL     1      29.687   5.587  47.952  1.00  0.00    -0.081 Cl
ENDBRANCH  13  15
ENDBRANCH  12  13
ENDBRANCH   1  12
TORSDOF 3
ENDMDL
MODEL 5
REMARK VINA RESULT:      -6.9      4.526      7.034
REMARK  3 active torsions:
REMARK  status: ('A' for Active; 'I' for Inactive)
REMARK    1  A    between atoms: C4_5  and  N1_6 
REMARK    2  A    between atoms: N1_6  and  S1_7 
REMARK    3  A    between atoms: S1_7  and  C5_8 
ROOT
HETATM    1  C5  UNL     1      23.649   4.435  52.389  1.00  0.00     0.205 C 
HETATM    2  C6  UNL     1      24.159   4.697  51.039  1.00  0.00     0.120 C 
HETATM    3  N2  UNL     1      23.665   3.759  50.436  1.00  0.00    -0.303 NA
HETATM    4  C7  UNL     1      23.650   3.275  49.127  1.00  0.00     0.150 C 
HETATM    5  C8  UNL     1      22.822   4.307  48.314  1.00  0.00     0.048 C 
HETATM    6  C9  UNL     1      21.573   4.471  49.198  1.00  0.00     0.176 C 
HETATM    7  O1  UNL     1      21.029   3.186  49.482  1.00  0.00    -0.362 OA
HETATM    8  C10 UNL     1      20.683   2.890  50.829  1.00  0.00     0.151 C 
HETATM    9  C11 UNL     1      21.194   3.355  51.978  1.00  0.00     0.108 C 
HETATM   10  N3  UNL     1      22.193   4.250  52.434  1.00  0.00    -0.378 N 
HETATM   11  H14 UNL     1      21.644   5.004  52.959  1.00  0.00     0.160 HD
ENDROOT
BRANCH   1  12
HETATM   12  S1  UNL     1      24.406   2.872  52.974  1.00  0.00    -0.024 SA
BRANCH  12  13
HETATM   13  N1  UNL     1      25.988   2.755  52.232  1.00  0.00    -0.328 N 
HETATM   14  H3  UNL     1      26.263   3.397  51.467  1.00  0.00     0.174 HD
BRANCH  13  15
HETATM   15  C4  UNL     1      26.914   1.782  52.670  1.00  0.00     0.040 A 
HETATM   16  C3  UNL     1      28.083   2.128  53.308  1.00  0.00     0.033 A 
HETATM   17  C2  UNL     1      28.980   1.169  53.731  1.00  0.00     0.046 A 
HETATM   18  C1  UNL     1      28.708  -0.172  53.514  1.00  0.00     0.138 A 
HETATM   19  F1  UNL     1      29.562  -1.146  53.914  1.00  0.00    -0.204 F 
HETATM   20  C13 UNL     1      27.543  -0.587  52.874  1.00  0.00     0.074 A 
HETATM   21  C12 UNL     1      26.694   0.434  52.480  1.00  0.00     0.057 A 
HETATM   22 CL1  UNL     1      27.154  -2.270  52.576  1.00  0.00    -0.081 Cl
ENDBRANCH  13  15
ENDBRANCH  12  13
ENDBRANCH   1  12
TORSDOF 3
ENDMDL
MODEL 6
REMARK VINA RESULT:      -6.9      1.587      1.868
REMARK  3 active torsions:
REMARK  status: ('A' for Active; 'I' for Inactive)
REMARK    1  A    between atoms: C4_5  and  N1_6 
REMARK    2  A    between atoms: N1_6  and  S1_7 
REMARK    3  A    between atoms: S1_7  and  C5_8 
ROOT
HETATM    1  C5  UNL     1      25.298   1.110  51.971  1.00  0.00     0.205 C 
HETATM    2  C6  UNL     1      26.668   1.613  51.829  1.00  0.00     0.120 C 
HETATM    3  N2  UNL     1      26.967   1.758  53.003  1.00  0.00    -0.303 NA
HETATM    4  C7  UNL     1      28.076   2.187  53.733  1.00  0.00     0.150 C 
HETATM    5  C8  UNL     1      29.152   1.083  53.536  1.00  0.00     0.048 C 
HETATM    6  C9  UNL     1      28.348  -0.193  53.839  1.00  0.00     0.176 C 
HETATM    7  O1  UNL     1      27.696  -0.049  55.098  1.00  0.00    -0.362 OA
HETATM    8  C10 UNL     1      26.320  -0.395  55.182  1.00  0.00     0.151 C 
HETATM    9  C11 UNL     1      25.360  -0.368  54.245  1.00  0.00     0.108 C 
HETATM   10  N3  UNL     1      25.192  -0.040  52.877  1.00  0.00    -0.378 N 
HETATM   11  H14 UNL     1      24.908  -0.967  52.423  1.00  0.00     0.160 HD
ENDROOT
BRANCH   1  12
HETATM   12  S1  UNL     1      24.284   2.455  52.693  1.00  0.00    -0.024 SA
BRANCH  12  13
HETATM   13  N1  UNL     1      22.696   2.355  51.960  1.00  0.00    -0.328 N 
HETATM   14  H3  UNL     1      22.432   2.986  51.183  1.00  0.00     0.174 HD
BRANCH  13  15
HETATM   15  C4  UNL     1      21.754   1.409  52.421  1.00  0.00     0.040 A 
HETATM   16  C3  UNL     1      21.919   0.742  53.613  1.00  0.00     0.033 A 
HETATM   17  C2  UNL     1      20.991  -0.180  54.053  1.00  0.00     0.046 A 
HETATM   18  C1  UNL     1      19.869  -0.447  53.286  1.00  0.00     0.138 A 
HETATM   19  F1  UNL     1      18.934  -1.345  53.682  1.00  0.00    -0.204 F 
HETATM   20  C13 UNL     1      19.644   0.194  52.070  1.00  0.00     0.074 A 
HETATM   21  C12 UNL     1      20.619   1.105  51.698  1.00  0.00     0.057 A 
HETATM   22 CL1  UNL     1      18.240  -0.109  51.066  1.00  0.00    -0.081 Cl
ENDBRANCH  13  15
ENDBRANCH  12  13
ENDBRANCH   1  12
TORSDOF 3
ENDMDL
MODEL 7
REMARK VINA RESULT:      -6.8      4.891      5.956
REMARK  3 active torsions:
REMARK  status: ('A' for Active; 'I' for Inactive)
REMARK    1  A    between atoms: C4_5  and  N1_6 
REMARK    2  A    between atoms: N1_6  and  S1_7 
REMARK    3  A    between atoms: S1_7  and  C5_8 
ROOT
HETATM    1  C5  UNL     1      25.220   1.382  51.904  1.00  0.00     0.205 C 
HETATM    2  C6  UNL     1      26.637   1.735  51.776  1.00  0.00     0.120 C 
HETATM    3  N2  UNL     1      26.950   1.803  52.953  1.00  0.00    -0.303 NA
HETATM    4  C7  UNL     1      28.099   2.080  53.695  1.00  0.00     0.150 C 
HETATM    5  C8  UNL     1      29.046   0.872  53.454  1.00  0.00     0.048 C 
HETATM    6  C9  UNL     1      28.106  -0.318  53.714  1.00  0.00     0.176 C 
HETATM    7  O1  UNL     1      27.474  -0.148  54.979  1.00  0.00    -0.362 OA
HETATM    8  C10 UNL     1      26.068  -0.344  55.054  1.00  0.00     0.151 C 
HETATM    9  C11 UNL     1      25.117  -0.176  54.123  1.00  0.00     0.108 C 
HETATM   10  N3  UNL     1      24.987   0.218  52.769  1.00  0.00    -0.378 N 
HETATM   11  H14 UNL     1      24.602  -0.655  52.282  1.00  0.00     0.160 HD
ENDROOT
BRANCH   1  12
HETATM   12  S1  UNL     1      24.361   2.804  52.678  1.00  0.00    -0.024 SA
BRANCH  12  13
HETATM   13  N1  UNL     1      23.676   3.761  51.381  1.00  0.00    -0.328 N 
HETATM   14  H3  UNL     1      22.749   3.528  50.984  1.00  0.00     0.174 HD
BRANCH  13  15
HETATM   15  C4  UNL     1      24.382   4.868  50.858  1.00  0.00     0.040 A 
HETATM   16  C3  UNL     1      24.023   6.163  51.157  1.00  0.00     0.033 A 
HETATM   17  C2  UNL     1      24.720   7.237  50.641  1.00  0.00     0.046 A 
HETATM   18  C1  UNL     1      25.803   7.017  49.805  1.00  0.00     0.138 A 
HETATM   19  F1  UNL     1      26.514   8.044  49.278  1.00  0.00    -0.204 F 
HETATM   20  C13 UNL     1      26.215   5.731  49.465  1.00  0.00     0.074 A 
HETATM   21  C12 UNL     1      25.467   4.708  50.022  1.00  0.00     0.057 A 
HETATM   22 CL1  UNL     1      27.578   5.403  48.413  1.00  0.00    -0.081 Cl
ENDBRANCH  13  15
ENDBRANCH  12  13
ENDBRANCH   1  12
TORSDOF 3
ENDMDL
MODEL 8
REMARK VINA RESULT:      -6.7      4.106      5.228
REMARK  3 active torsions:
REMARK  status: ('A' for Active; 'I' for Inactive)
REMARK    1  A    between atoms: C4_5  and  N1_6 
REMARK    2  A    between atoms: N1_6  and  S1_7 
REMARK    3  A    between atoms: S1_7  and  C5_8 
ROOT
HETATM    1  C5  UNL     1      26.015   2.755  52.910  1.00  0.00     0.205 C 
HETATM    2  C6  UNL     1      24.955   1.771  53.152  1.00  0.00     0.120 C 
HETATM    3  N2  UNL     1      25.594   0.737  53.057  1.00  0.00    -0.303 NA
HETATM    4  C7  UNL     1      25.348  -0.633  53.151  1.00  0.00     0.150 C 
HETATM    5  C8  UNL     1      25.040  -0.895  54.651  1.00  0.00     0.048 C 
HETATM    6  C9  UNL     1      26.208  -0.169  55.341  1.00  0.00     0.176 C 
HETATM    7  O1  UNL     1      27.437  -0.617  54.777  1.00  0.00    -0.362 OA
HETATM    8  C10 UNL     1      28.397   0.362  54.402  1.00  0.00     0.151 C 
HETATM    9  C11 UNL     1      28.230   1.631  54.004  1.00  0.00     0.108 C 
HETATM   10  N3  UNL     1      27.191   2.565  53.770  1.00  0.00    -0.378 N 
HETATM   11  H14 UNL     1      27.377   3.343  54.482  1.00  0.00     0.160 HD
ENDROOT
BRANCH   1  12
HETATM   12  S1  UNL     1      26.580   2.549  51.179  1.00  0.00    -0.024 SA
BRANCH  12  13
HETATM   13  N1  UNL     1      26.290   4.068  50.357  1.00  0.00    -0.328 N 
HETATM   14  H3  UNL     1      26.977   4.841  50.417  1.00  0.00     0.174 HD
BRANCH  13  15
HETATM   15  C4  UNL     1      25.114   4.259  49.598  1.00  0.00     0.040 A 
HETATM   16  C3  UNL     1      24.799   5.477  49.041  1.00  0.00     0.033 A 
HETATM   17  C2  UNL     1      23.648   5.652  48.302  1.00  0.00     0.046 A 
HETATM   18  C1  UNL     1      22.784   4.586  48.111  1.00  0.00     0.138 A 
HETATM   19  F1  UNL     1      21.642   4.715  47.392  1.00  0.00    -0.204 F 
HETATM   20  C13 UNL     1      23.045   3.327  48.649  1.00  0.00     0.074 A 
HETATM   21  C12 UNL     1      24.219   3.233  49.377  1.00  0.00     0.057 A 
HETATM   22 CL1  UNL     1      21.983   1.949  48.435  1.00  0.00    -0.081 Cl
ENDBRANCH  13  15
ENDBRANCH  12  13
ENDBRANCH   1  12
TORSDOF 3
ENDMDL
MODEL 9
REMARK VINA RESULT:      -6.7      5.073      6.342
REMARK  3 active torsions:
REMARK  status: ('A' for Active; 'I' for Inactive)
REMARK    1  A    between atoms: C4_5  and  N1_6 
REMARK    2  A    between atoms: N1_6  and  S1_7 
REMARK    3  A    between atoms: S1_7  and  C5_8 
ROOT
HETATM    1  C5  UNL     1      25.835   2.671  52.785  1.00  0.00     0.205 C 
HETATM    2  C6  UNL     1      24.819   1.661  53.097  1.00  0.00     0.120 C 
HETATM    3  N2  UNL     1      25.497   0.649  53.049  1.00  0.00    -0.303 NA
HETATM    4  C7  UNL     1      25.308  -0.722  53.223  1.00  0.00     0.150 C 
HETATM    5  C8  UNL     1      25.031  -0.912  54.740  1.00  0.00     0.048 C 
HETATM    6  C9  UNL     1      26.179  -0.103  55.370  1.00  0.00     0.176 C 
HETATM    7  O1  UNL     1      27.417  -0.534  54.811  1.00  0.00    -0.362 OA
HETATM    8  C10 UNL     1      28.331   0.460  54.368  1.00  0.00     0.151 C 
HETATM    9  C11 UNL     1      28.108   1.698  53.903  1.00  0.00     0.108 C 
HETATM   10  N3  UNL     1      27.029   2.576  53.635  1.00  0.00    -0.378 N 
HETATM   11  H14 UNL     1      27.194   3.399  54.300  1.00  0.00     0.160 HD
ENDROOT
BRANCH   1  12
HETATM   12  S1  UNL     1      26.384   2.391  51.059  1.00  0.00    -0.024 SA
BRANCH  12  13
HETATM   13  N1  UNL     1      26.859   3.947  50.410  1.00  0.00    -0.328 N 
HETATM   14  H3  UNL     1      27.814   4.314  50.563  1.00  0.00     0.174 HD
BRANCH  13  15
HETATM   15  C4  UNL     1      25.942   4.722  49.664  1.00  0.00     0.040 A 
HETATM   16  C3  UNL     1      24.607   4.397  49.594  1.00  0.00     0.033 A 
HETATM   17  C2  UNL     1      23.721   5.162  48.864  1.00  0.00     0.046 A 
HETATM   18  C1  UNL     1      24.174   6.280  48.183  1.00  0.00     0.138 A 
HETATM   19  F1  UNL     1      23.337   7.057  47.454  1.00  0.00    -0.204 F 
HETATM   20  C13 UNL     1      25.513   6.661  48.214  1.00  0.00     0.074 A 
HETATM   21  C12 UNL     1      26.339   5.844  48.968  1.00  0.00     0.057 A 
HETATM   22 CL1  UNL     1      26.135   8.066  47.370  1.00  0.00    -0.081 Cl
ENDBRANCH  13  15
ENDBRANCH  12  13
ENDBRANCH   1  12
TORSDOF 3
ENDMDL
