MODEL 1
REMARK VINA RESULT:      -7.8      0.000      0.000
REMARK  4 active torsions:
REMARK  status: ('A' for Active; 'I' for Inactive)
REMARK    1  A    between atoms: C1_3  and  N2_5 
REMARK    2  A    between atoms: N2_5  and  C2_6 
REMARK    3  A    between atoms: C6_10  and  C7_11 
REMARK    4  A    between atoms: C7_11  and  N3_12 
ROOT
HETATM    1  C2  UNL     1      28.550   0.403  53.802  1.00  0.00     0.021 A 
HETATM    2  C3  UNL     1      29.413   1.334  54.122  1.00  0.00     0.025 A 
HETATM    3  C4  UNL     1      28.713   2.526  53.553  1.00  0.00    -0.001 A 
HETATM    4  C5  UNL     1      27.536   2.233  52.965  1.00  0.00    -0.014 A 
HETATM    5  C6  UNL     1      27.288   0.698  53.104  1.00  0.00     0.076 A 
ENDROOT
BRANCH   5   6
HETATM    6  C7  UNL     1      26.076   0.728  54.054  1.00  0.00     0.134 C 
BRANCH   6   7
HETATM    7  N3  UNL     1      25.210  -0.417  53.741  1.00  0.00    -0.386 N 
HETATM    8  C8  UNL     1      24.370   0.402  53.412  1.00  0.00     0.068 A 
HETATM    9  C9  UNL     1      23.397  -0.756  53.303  1.00  0.00     0.032 A 
HETATM   10  C13 UNL     1      23.306   1.347  52.999  1.00  0.00     0.164 A 
HETATM   11  C10 UNL     1      21.998  -0.877  52.942  1.00  0.00     0.004 A 
HETATM   12  C11 UNL     1      21.305   0.277  52.604  1.00  0.00     0.027 A 
HETATM   13  C12 UNL     1      22.004   1.446  52.637  1.00  0.00     0.074 A 
HETATM   14 CL1  UNL     1      21.613   3.118  52.323  1.00  0.00    -0.081 Cl
HETATM   15  F1  UNL     1      24.282   2.363  53.014  1.00  0.00    -0.202 F 
HETATM   16  H8  UNL     1      25.661  -1.309  53.926  1.00  0.00     0.159 HD
ENDBRANCH   6   7
ENDBRANCH   5   6
BRANCH   1  17
HETATM   17  N2  UNL     1      29.110  -0.806  54.294  1.00  0.00    -0.325 N 
HETATM   18  H1  UNL     1      29.587  -1.581  54.751  1.00  0.00     0.169 HD
BRANCH  17  19
HETATM   19  C1  UNL     1      28.597  -1.885  53.480  1.00  0.00     0.274 A 
HETATM   20  N1  UNL     1      27.960  -2.796  52.550  1.00  0.00     0.054 NA
HETATM   21  O1  UNL     1      26.818  -2.529  52.072  1.00  0.00    -0.082 OA
HETATM   22  O2  UNL     1      28.830  -3.199  53.550  1.00  0.00    -0.190 OA
ENDBRANCH  17  19
ENDBRANCH   1  17
TORSDOF 4
ENDMDL
MODEL 2
REMARK VINA RESULT:      -7.6      3.438      6.036
REMARK  4 active torsions:
REMARK  status: ('A' for Active; 'I' for Inactive)
REMARK    1  A    between atoms: C1_3  and  N2_5 
REMARK    2  A    between atoms: N2_5  and  C2_6 
REMARK    3  A    between atoms: C6_10  and  C7_11 
REMARK    4  A    between atoms: C7_11  and  N3_12 
ROOT
HETATM    1  C2  UNL     1      23.255   0.503  52.794  1.00  0.00     0.021 A 
HETATM    2  C3  UNL     1      22.071   0.535  52.236  1.00  0.00     0.025 A 
HETATM    3  C4  UNL     1      21.965   2.003  51.968  1.00  0.00    -0.001 A 
HETATM    4  C5  UNL     1      23.046   2.705  52.364  1.00  0.00    -0.014 A 
HETATM    5  C6  UNL     1      24.083   1.707  52.968  1.00  0.00     0.076 A 
ENDROOT
BRANCH   5   6
HETATM    6  C7  UNL     1      25.191   1.826  51.905  1.00  0.00     0.134 C 
BRANCH   6   7
HETATM    7  N3  UNL     1      26.335   2.530  52.500  1.00  0.00    -0.386 N 
HETATM    8  C8  UNL     1      26.851   1.433  52.624  1.00  0.00     0.068 A 
HETATM    9  C9  UNL     1      27.930   2.119  53.440  1.00  0.00     0.032 A 
HETATM   10  C13 UNL     1      27.532   0.129  52.804  1.00  0.00     0.164 A 
HETATM   11  C10 UNL     1      29.131   1.673  54.117  1.00  0.00     0.004 A 
HETATM   12  C11 UNL     1      29.452   0.323  54.062  1.00  0.00     0.027 A 
HETATM   13  C12 UNL     1      28.602  -0.484  53.367  1.00  0.00     0.074 A 
HETATM   14 CL1  UNL     1      28.543  -2.192  53.017  1.00  0.00    -0.081 Cl
HETATM   15  F1  UNL     1      26.562  -0.431  51.951  1.00  0.00    -0.202 F 
HETATM   16  H8  UNL     1      26.196   3.536  52.542  1.00  0.00     0.159 HD
ENDBRANCH   6   7
ENDBRANCH   5   6
BRANCH   1  17
HETATM   17  N2  UNL     1      23.479  -0.865  53.106  1.00  0.00    -0.325 N 
HETATM   18  H1  UNL     1      23.763  -1.835  53.232  1.00  0.00     0.169 HD
BRANCH  17  19
HETATM   19  C1  UNL     1      22.434  -1.280  54.014  1.00  0.00     0.274 A 
HETATM   20  N1  UNL     1      21.264  -1.756  54.727  1.00  0.00     0.054 NA
HETATM   21  O1  UNL     1      20.117  -1.685  54.195  1.00  0.00    -0.082 OA
HETATM   22  O2  UNL     1      22.385  -1.229  55.349  1.00  0.00    -0.190 OA
ENDBRANCH  17  19
ENDBRANCH   1  17
TORSDOF 4
ENDMDL
MODEL 3
REMARK VINA RESULT:      -7.4      2.893      5.644
REMARK  4 active torsions:
REMARK  status: ('A' for Active; 'I' for Inactive)
REMARK    1  A    between atoms: C1_3  and  N2_5 
REMARK    2  A    between atoms: N2_5  and  C2_6 
REMARK    3  A    between atoms: C6_10  and  C7_11 
REMARK    4  A    between atoms: C7_11  and  N3_12 
ROOT
HETATM    1  C2  UNL     1      22.857   0.530  52.841  1.00  0.00     0.021 A 
HETATM    2  C3  UNL     1      21.788   0.925  52.196  1.00  0.00     0.025 A 
HETATM    3  C4  UNL     1      22.134   2.367  52.005  1.00  0.00    -0.001 A 
HETATM    4  C5  UNL     1      23.331   2.710  52.522  1.00  0.00    -0.014 A 
HETATM    5  C6  UNL     1      23.977   1.434  53.147  1.00  0.00     0.076 A 
ENDROOT
BRANCH   5   6
HETATM    6  C7  UNL     1      25.164   1.258  52.180  1.00  0.00     0.134 C 
BRANCH   6   7
HETATM    7  N3  UNL     1      25.725  -0.086  52.371  1.00  0.00    -0.386 N 
HETATM    8  C8  UNL     1      26.682   0.467  52.884  1.00  0.00     0.068 A 
HETATM    9  C9  UNL     1      27.366  -0.887  52.880  1.00  0.00     0.032 A 
HETATM   10  C13 UNL     1      27.874   1.078  53.517  1.00  0.00     0.164 A 
HETATM   11  C10 UNL     1      28.660  -1.373  53.317  1.00  0.00     0.004 A 
HETATM   12  C11 UNL     1      29.545  -0.465  53.883  1.00  0.00     0.027 A 
HETATM   13  C12 UNL     1      29.122   0.826  53.984  1.00  0.00     0.074 A 
HETATM   14 CL1  UNL     1      29.827   2.305  54.585  1.00  0.00    -0.081 Cl
HETATM   15  F1  UNL     1      27.147   2.282  53.593  1.00  0.00    -0.202 F 
HETATM   16  H8  UNL     1      25.116  -0.817  52.015  1.00  0.00     0.159 HD
ENDBRANCH   6   7
ENDBRANCH   5   6
BRANCH   1  17
HETATM   17  N2  UNL     1      22.648  -0.852  53.092  1.00  0.00    -0.325 N 
HETATM   18  H1  UNL     1      22.436  -1.848  53.127  1.00  0.00     0.169 HD
BRANCH  17  19
HETATM   19  C1  UNL     1      23.126  -1.129  54.428  1.00  0.00     0.274 A 
HETATM   20  N1  UNL     1      23.806  -1.297  55.697  1.00  0.00     0.054 NA
HETATM   21  O1  UNL     1      25.068  -1.396  55.739  1.00  0.00    -0.082 OA
HETATM   22  O2  UNL     1      22.527  -1.763  55.440  1.00  0.00    -0.190 OA
ENDBRANCH  17  19
ENDBRANCH   1  17
TORSDOF 4
ENDMDL
MODEL 4
REMARK VINA RESULT:      -7.3      3.730      5.307
REMARK  4 active torsions:
REMARK  status: ('A' for Active; 'I' for Inactive)
REMARK    1  A    between atoms: C1_3  and  N2_5 
REMARK    2  A    between atoms: N2_5  and  C2_6 
REMARK    3  A    between atoms: C6_10  and  C7_11 
REMARK    4  A    between atoms: C7_11  and  N3_12 
ROOT
HETATM    1  C2  UNL     1      25.730   0.751  52.730  1.00  0.00     0.021 A 
HETATM    2  C3  UNL     1      25.000  -0.263  53.123  1.00  0.00     0.025 A 
HETATM    3  C4  UNL     1      23.687   0.431  53.298  1.00  0.00    -0.001 A 
HETATM    4  C5  UNL     1      23.727   1.747  53.005  1.00  0.00    -0.014 A 
HETATM    5  C6  UNL     1      25.177   2.102  52.548  1.00  0.00     0.076 A 
ENDROOT
BRANCH   5   6
HETATM    6  C7  UNL     1      24.896   2.436  51.071  1.00  0.00     0.134 C 
BRANCH   6   7
HETATM    7  N3  UNL     1      26.179   2.664  50.392  1.00  0.00    -0.386 N 
HETATM    8  C8  UNL     1      25.809   3.815  50.239  1.00  0.00     0.068 A 
HETATM    9  C9  UNL     1      27.020   4.003  49.346  1.00  0.00     0.032 A 
HETATM   10  C13 UNL     1      25.417   5.227  50.019  1.00  0.00     0.164 A 
HETATM   11  C10 UNL     1      27.562   5.113  48.588  1.00  0.00     0.004 A 
HETATM   12  C11 UNL     1      26.888   6.326  48.628  1.00  0.00     0.027 A 
HETATM   13  C12 UNL     1      25.757   6.377  49.386  1.00  0.00     0.074 A 
HETATM   14 CL1  UNL     1      24.578   7.611  49.749  1.00  0.00    -0.081 Cl
HETATM   15  F1  UNL     1      24.373   5.022  50.943  1.00  0.00    -0.202 F 
HETATM   16  H8  UNL     1      26.755   1.828  50.354  1.00  0.00     0.159 HD
ENDBRANCH   6   7
ENDBRANCH   5   6
BRANCH   1  17
HETATM   17  N2  UNL     1      27.030   0.215  52.529  1.00  0.00    -0.325 N 
HETATM   18  H1  UNL     1      27.910  -0.210  52.241  1.00  0.00     0.169 HD
BRANCH  17  19
HETATM   19  C1  UNL     1      27.778   0.419  53.749  1.00  0.00     0.274 A 
HETATM   20  N1  UNL     1      28.520   0.858  54.915  1.00  0.00     0.054 NA
HETATM   21  O1  UNL     1      29.226   1.908  54.868  1.00  0.00    -0.082 OA
HETATM   22  O2  UNL     1      28.238  -0.469  54.634  1.00  0.00    -0.190 OA
ENDBRANCH  17  19
ENDBRANCH   1  17
TORSDOF 4
ENDMDL
MODEL 5
REMARK VINA RESULT:      -7.3      2.936      3.877
REMARK  4 active torsions:
REMARK  status: ('A' for Active; 'I' for Inactive)
REMARK    1  A    between atoms: C1_3  and  N2_5 
REMARK    2  A    between atoms: N2_5  and  C2_6 
REMARK    3  A    between atoms: C6_10  and  C7_11 
REMARK    4  A    between atoms: C7_11  and  N3_12 
ROOT
HETATM    1  C2  UNL     1      25.849   2.082  51.247  1.00  0.00     0.021 A 
HETATM    2  C3  UNL     1      26.480   3.154  50.840  1.00  0.00     0.025 A 
HETATM    3  C4  UNL     1      25.330   3.911  50.257  1.00  0.00    -0.001 A 
HETATM    4  C5  UNL     1      24.150   3.266  50.358  1.00  0.00    -0.014 A 
HETATM    5  C6  UNL     1      24.394   1.912  51.094  1.00  0.00     0.076 A 
ENDROOT
BRANCH   5   6
HETATM    6  C7  UNL     1      23.623   2.195  52.397  1.00  0.00     0.134 C 
BRANCH   6   7
HETATM    7  N3  UNL     1      23.779   1.040  53.292  1.00  0.00    -0.386 N 
HETATM    8  C8  UNL     1      22.621   0.770  53.023  1.00  0.00     0.068 A 
HETATM    9  C9  UNL     1      22.698  -0.286  54.110  1.00  0.00     0.032 A 
HETATM   10  C13 UNL     1      21.218   0.387  52.739  1.00  0.00     0.164 A 
HETATM   11  C10 UNL     1      21.770  -1.262  54.645  1.00  0.00     0.004 A 
HETATM   12  C11 UNL     1      20.494  -1.322  54.102  1.00  0.00     0.027 A 
HETATM   13  C12 UNL     1      20.212  -0.447  53.097  1.00  0.00     0.074 A 
HETATM   14 CL1  UNL     1      18.805  -0.115  52.119  1.00  0.00    -0.081 Cl
HETATM   15  F1  UNL     1      21.243   1.307  51.672  1.00  0.00    -0.202 F 
HETATM   16  H8  UNL     1      24.706   0.988  53.704  1.00  0.00     0.159 HD
ENDBRANCH   6   7
ENDBRANCH   5   6
BRANCH   1  17
HETATM   17  N2  UNL     1      26.851   1.261  51.830  1.00  0.00    -0.325 N 
HETATM   18  H1  UNL     1      27.545   0.576  52.125  1.00  0.00     0.169 HD
BRANCH  17  19
HETATM   19  C1  UNL     1      27.284   1.905  53.049  1.00  0.00     0.274 A 
HETATM   20  N1  UNL     1      27.928   2.582  54.158  1.00  0.00     0.054 NA
HETATM   21  O1  UNL     1      29.182   2.503  54.317  1.00  0.00    -0.082 OA
HETATM   22  O2  UNL     1      26.632   2.092  54.201  1.00  0.00    -0.190 OA
ENDBRANCH  17  19
ENDBRANCH   1  17
TORSDOF 4
ENDMDL
MODEL 6
REMARK VINA RESULT:      -7.2      3.805      5.309
REMARK  4 active torsions:
REMARK  status: ('A' for Active; 'I' for Inactive)
REMARK    1  A    between atoms: C1_3  and  N2_5 
REMARK    2  A    between atoms: N2_5  and  C2_6 
REMARK    3  A    between atoms: C6_10  and  C7_11 
REMARK    4  A    between atoms: C7_11  and  N3_12 
ROOT
HETATM    1  C2  UNL     1      24.588   0.089  53.347  1.00  0.00     0.021 A 
HETATM    2  C3  UNL     1      23.562  -0.716  53.467  1.00  0.00     0.025 A 
HETATM    3  C4  UNL     1      22.458   0.244  53.156  1.00  0.00    -0.001 A 
HETATM    4  C5  UNL     1      22.888   1.492  52.882  1.00  0.00    -0.014 A 
HETATM    5  C6  UNL     1      24.446   1.503  52.965  1.00  0.00     0.076 A 
ENDROOT
BRANCH   5   6
HETATM    6  C7  UNL     1      24.772   1.754  51.481  1.00  0.00     0.134 C 
BRANCH   6   7
HETATM    7  N3  UNL     1      23.863   2.791  50.973  1.00  0.00    -0.386 N 
HETATM    8  C8  UNL     1      24.837   3.267  50.417  1.00  0.00     0.068 A 
HETATM    9  C9  UNL     1      23.963   4.459  50.076  1.00  0.00     0.032 A 
HETATM   10  C13 UNL     1      25.982   3.896  49.716  1.00  0.00     0.164 A 
HETATM   11  C10 UNL     1      24.172   5.702  49.360  1.00  0.00     0.004 A 
HETATM   12  C11 UNL     1      25.429   5.947  48.825  1.00  0.00     0.027 A 
HETATM   13  C12 UNL     1      26.378   4.989  49.018  1.00  0.00     0.074 A 
HETATM   14 CL1  UNL     1      28.058   4.819  48.578  1.00  0.00    -0.081 Cl
HETATM   15  F1  UNL     1      26.711   2.717  49.968  1.00  0.00    -0.202 F 
HETATM   16  H8  UNL     1      22.906   2.661  51.289  1.00  0.00     0.159 HD
ENDBRANCH   6   7
ENDBRANCH   5   6
BRANCH   1  17
HETATM   17  N2  UNL     1      25.724  -0.716  53.627  1.00  0.00    -0.325 N 
HETATM   18  H1  UNL     1      26.458  -1.411  53.760  1.00  0.00     0.169 HD
BRANCH  17  19
HETATM   19  C1  UNL     1      26.693   0.118  54.302  1.00  0.00     0.274 A 
HETATM   20  N1  UNL     1      27.564   1.135  54.857  1.00  0.00     0.054 NA
HETATM   21  O1  UNL     1      27.845   2.173  54.187  1.00  0.00    -0.082 OA
HETATM   22  O2  UNL     1      27.656  -0.212  55.167  1.00  0.00    -0.190 OA
ENDBRANCH  17  19
ENDBRANCH   1  17
TORSDOF 4
ENDMDL
MODEL 7
REMARK VINA RESULT:      -7.2      3.233      5.217
REMARK  4 active torsions:
REMARK  status: ('A' for Active; 'I' for Inactive)
REMARK    1  A    between atoms: C1_3  and  N2_5 
REMARK    2  A    between atoms: N2_5  and  C2_6 
REMARK    3  A    between atoms: C6_10  and  C7_11 
REMARK    4  A    between atoms: C7_11  and  N3_12 
ROOT
HETATM    1  C2  UNL     1      23.813  -0.077  53.444  1.00  0.00     0.021 A 
HETATM    2  C3  UNL     1      22.835  -0.929  53.621  1.00  0.00     0.025 A 
HETATM    3  C4  UNL     1      21.673  -0.037  53.323  1.00  0.00    -0.001 A 
HETATM    4  C5  UNL     1      22.028   1.223  53.000  1.00  0.00    -0.014 A 
HETATM    5  C6  UNL     1      23.585   1.316  53.028  1.00  0.00     0.076 A 
ENDROOT
BRANCH   5   6
HETATM    6  C7  UNL     1      23.848   1.540  51.528  1.00  0.00     0.134 C 
BRANCH   6   7
HETATM    7  N3  UNL     1      25.258   1.915  51.352  1.00  0.00    -0.386 N 
HETATM    8  C8  UNL     1      24.848   2.867  50.711  1.00  0.00     0.068 A 
HETATM    9  C9  UNL     1      26.293   3.135  50.334  1.00  0.00     0.032 A 
HETATM   10  C13 UNL     1      24.415   4.043  49.921  1.00  0.00     0.164 A 
HETATM   11  C10 UNL     1      26.964   4.134  49.527  1.00  0.00     0.004 A 
HETATM   12  C11 UNL     1      26.192   5.114  48.919  1.00  0.00     0.027 A 
HETATM   13  C12 UNL     1      24.847   5.058  49.133  1.00  0.00     0.074 A 
HETATM   14 CL1  UNL     1      23.481   6.008  48.607  1.00  0.00    -0.081 Cl
HETATM   15  F1  UNL     1      23.109   3.808  50.392  1.00  0.00    -0.202 F 
HETATM   16  H8  UNL     1      25.894   1.264  51.804  1.00  0.00     0.159 HD
ENDBRANCH   6   7
ENDBRANCH   5   6
BRANCH   1  17
HETATM   17  N2  UNL     1      24.999  -0.815  53.705  1.00  0.00    -0.325 N 
HETATM   18  H1  UNL     1      25.770  -1.468  53.835  1.00  0.00     0.169 HD
BRANCH  17  19
HETATM   19  C1  UNL     1      25.955   0.094  54.294  1.00  0.00     0.274 A 
HETATM   20  N1  UNL     1      26.791   1.178  54.772  1.00  0.00     0.054 NA
HETATM   21  O1  UNL     1      26.936   2.229  54.081  1.00  0.00    -0.082 OA
HETATM   22  O2  UNL     1      27.012  -0.156  55.074  1.00  0.00    -0.190 OA
ENDBRANCH  17  19
ENDBRANCH   1  17
TORSDOF 4
ENDMDL
MODEL 8
REMARK VINA RESULT:      -7.2      2.801      3.482
REMARK  4 active torsions:
REMARK  status: ('A' for Active; 'I' for Inactive)
REMARK    1  A    between atoms: C1_3  and  N2_5 
REMARK    2  A    between atoms: N2_5  and  C2_6 
REMARK    3  A    between atoms: C6_10  and  C7_11 
REMARK    4  A    between atoms: C7_11  and  N3_12 
ROOT
HETATM    1  C2  UNL     1      26.933   1.834  53.886  1.00  0.00     0.021 A 
HETATM    2  C3  UNL     1      28.031   2.199  53.274  1.00  0.00     0.025 A 
HETATM    3  C4  UNL     1      28.951   1.123  53.756  1.00  0.00    -0.001 A 
HETATM    4  C5  UNL     1      28.359   0.234  54.579  1.00  0.00    -0.014 A 
HETATM    5  C6  UNL     1      26.859   0.634  54.735  1.00  0.00     0.076 A 
ENDROOT
BRANCH   5   6
HETATM    6  C7  UNL     1      26.207  -0.562  54.018  1.00  0.00     0.134 C 
BRANCH   6   7
HETATM    7  N3  UNL     1      25.145  -1.100  54.880  1.00  0.00    -0.386 N 
HETATM    8  C8  UNL     1      24.361  -0.697  54.040  1.00  0.00     0.068 A 
HETATM    9  C9  UNL     1      23.255  -1.042  55.020  1.00  0.00     0.032 A 
HETATM   10  C13 UNL     1      23.355  -0.230  53.057  1.00  0.00     0.164 A 
HETATM   11  C10 UNL     1      21.809  -0.947  54.996  1.00  0.00     0.004 A 
HETATM   12  C11 UNL     1      21.204  -0.435  53.856  1.00  0.00     0.027 A 
HETATM   13  C12 UNL     1      22.028  -0.059  52.838  1.00  0.00     0.074 A 
HETATM   14 CL1  UNL     1      21.784   0.631  51.254  1.00  0.00    -0.081 Cl
HETATM   15  F1  UNL     1      24.415  -0.032  52.151  1.00  0.00    -0.202 F 
HETATM   16  H8  UNL     1      25.510  -1.531  55.725  1.00  0.00     0.159 HD
ENDBRANCH   6   7
ENDBRANCH   5   6
BRANCH   1  17
HETATM   17  N2  UNL     1      25.960   2.798  53.506  1.00  0.00    -0.325 N 
HETATM   18  H1  UNL     1      25.244   3.513  53.388  1.00  0.00     0.169 HD
BRANCH  17  19
HETATM   19  C1  UNL     1      25.884   2.792  52.062  1.00  0.00     0.274 A 
HETATM   20  N1  UNL     1      26.048   2.796  50.622  1.00  0.00     0.054 NA
HETATM   21  O1  UNL     1      27.048   3.363  50.091  1.00  0.00    -0.082 OA
HETATM   22  O2  UNL     1      24.817   2.777  51.258  1.00  0.00    -0.190 OA
ENDBRANCH  17  19
ENDBRANCH   1  17
TORSDOF 4
ENDMDL
MODEL 9
REMARK VINA RESULT:      -7.1      2.530      3.422
REMARK  4 active torsions:
REMARK  status: ('A' for Active; 'I' for Inactive)
REMARK    1  A    between atoms: C1_3  and  N2_5 
REMARK    2  A    between atoms: N2_5  and  C2_6 
REMARK    3  A    between atoms: C6_10  and  C7_11 
REMARK    4  A    between atoms: C7_11  and  N3_12 
ROOT
HETATM    1  C2  UNL     1      25.686   0.795  52.025  1.00  0.00     0.021 A 
HETATM    2  C3  UNL     1      26.927   1.210  51.966  1.00  0.00     0.025 A 
HETATM    3  C4  UNL     1      26.708   2.556  51.352  1.00  0.00    -0.001 A 
HETATM    4  C5  UNL     1      25.412   2.834  51.105  1.00  0.00    -0.014 A 
HETATM    5  C6  UNL     1      24.552   1.622  51.582  1.00  0.00     0.076 A 
ENDROOT
BRANCH   5   6
HETATM    6  C7  UNL     1      23.809   2.290  52.753  1.00  0.00     0.134 C 
BRANCH   6   7
HETATM    7  N3  UNL     1      22.452   2.636  52.308  1.00  0.00    -0.386 N 
HETATM    8  C8  UNL     1      22.101   1.578  52.800  1.00  0.00     0.068 A 
HETATM    9  C9  UNL     1      20.750   1.816  52.152  1.00  0.00     0.032 A 
HETATM   10  C13 UNL     1      21.609   0.304  53.376  1.00  0.00     0.164 A 
HETATM   11  C10 UNL     1      19.497   1.087  52.115  1.00  0.00     0.004 A 
HETATM   12  C11 UNL     1      19.419  -0.117  52.802  1.00  0.00     0.027 A 
HETATM   13  C12 UNL     1      20.538  -0.522  53.464  1.00  0.00     0.074 A 
HETATM   14 CL1  UNL     1      20.954  -1.912  54.433  1.00  0.00    -0.081 Cl
HETATM   15  F1  UNL     1      22.846   0.193  54.040  1.00  0.00    -0.202 F 
HETATM   16  H8  UNL     1      22.416   3.530  51.826  1.00  0.00     0.159 HD
ENDBRANCH   6   7
ENDBRANCH   5   6
BRANCH   1  17
HETATM   17  N2  UNL     1      25.757  -0.502  52.600  1.00  0.00    -0.325 N 
HETATM   18  H1  UNL     1      25.739  -1.482  52.878  1.00  0.00     0.169 HD
BRANCH  17  19
HETATM   19  C1  UNL     1      26.350  -0.365  53.911  1.00  0.00     0.274 A 
HETATM   20  N1  UNL     1      27.143  -0.157  55.107  1.00  0.00     0.054 NA
HETATM   21  O1  UNL     1      28.401  -0.299  55.076  1.00  0.00    -0.082 OA
HETATM   22  O2  UNL     1      25.836  -0.617  55.118  1.00  0.00    -0.190 OA
ENDBRANCH  17  19
ENDBRANCH   1  17
TORSDOF 4
ENDMDL
