MODEL 1
REMARK VINA RESULT:      -7.2      0.000      0.000
REMARK  11 active torsions:
REMARK  status: ('A' for Active; 'I' for Inactive)
REMARK    1  A    between atoms: C2_2  and  C3_3 
REMARK    2  A    between atoms: C2_2  and  N4_20 
REMARK    3  A    between atoms: C3_3  and  O1_4 
REMARK    4  A    between atoms: O1_4  and  C4_5 
REMARK    5  A    between atoms: C8_9  and  N1_10 
REMARK    6  A    between atoms: N1_10  and  C9_11 
REMARK    7  A    between atoms: C10_12  and  C11_13 
REMARK    8  A    between atoms: C11_13  and  C12_14 
REMARK    9  A    between atoms: N4_20  and  C15_21 
REMARK   10  A    between atoms: C15_21  and  C16_22 
REMARK   11  A    between atoms: C16_22  and  N5_23 
ROOT
HETATM    1  C4  UNL     1      25.837   5.706  49.012  1.00  0.00     0.197 A 
HETATM    2  C5  UNL     1      26.771   4.557  48.938  1.00  0.00     0.012 A 
HETATM    3  C6  UNL     1      27.987   4.948  48.525  1.00  0.00     0.016 A 
HETATM    4  C7  UNL     1      28.020   6.383  48.272  1.00  0.00     0.037 A 
HETATM    5  C8  UNL     1      28.904   7.347  47.856  1.00  0.00     0.141 A 
HETATM    6  N2  UNL     1      28.535   8.630  47.744  1.00  0.00    -0.224 NA
HETATM    7  C13 UNL     1      27.266   9.036  48.038  1.00  0.00     0.235 A 
HETATM    8  N3  UNL     1      26.380   8.114  48.448  1.00  0.00    -0.242 NA
HETATM    9  C14 UNL     1      26.746   6.825  48.562  1.00  0.00     0.082 A 
ENDROOT
BRANCH   1  10
HETATM   10  O1  UNL     1      25.414   5.926  50.321  1.00  0.00    -0.370 OA
BRANCH  10  11
HETATM   11  C3  UNL     1      24.074   5.516  50.419  1.00  0.00     0.224 C 
BRANCH  11  12
HETATM   12  C2  UNL     1      23.958   4.657  51.623  1.00  0.00     0.019 C 
HETATM   13  C1  UNL     1      22.815   4.739  52.279  1.00  0.00     0.040 C 
BRANCH  12  14
HETATM   14  N4  UNL     1      24.949   3.768  52.110  1.00  0.00    -0.391 N 
HETATM   15  H16 UNL     1      25.349   4.082  53.033  1.00  0.00     0.159 HD
BRANCH  14  16
HETATM   16  C15 UNL     1      25.352   2.553  51.388  1.00  0.00     0.139 C 
BRANCH  16  17
HETATM   17  C16 UNL     1      26.762   2.242  51.751  1.00  0.00     0.145 C 
BRANCH  17  18
HETATM   18  N5  UNL     1      26.920   1.206  52.752  1.00  0.00    -0.347 N 
HETATM   19  C17 UNL     1      26.322  -0.093  52.975  1.00  0.00     0.152 C 
HETATM   20  C18 UNL     1      26.168  -0.309  54.441  1.00  0.00     0.188 C 
HETATM   21  O2  UNL     1      27.322  -0.334  55.180  1.00  0.00    -0.380 OA
HETATM   22  C19 UNL     1      28.381   0.346  54.599  1.00  0.00     0.270 C 
HETATM   23  C20 UNL     1      27.891   1.507  53.778  1.00  0.00     0.243 C 
HETATM   24  O3  UNL     1      28.338   2.673  54.008  1.00  0.00    -0.271 OA
ENDBRANCH  17  18
ENDBRANCH  16  17
ENDBRANCH  14  16
ENDBRANCH  12  14
ENDBRANCH  11  12
ENDBRANCH  10  11
ENDBRANCH   1  10
BRANCH   5  25
HETATM   25  N1  UNL     1      30.231   6.909  47.552  1.00  0.00    -0.350 N 
HETATM   26  H8  UNL     1      30.740   6.609  46.669  1.00  0.00     0.166 HD
BRANCH  25  27
HETATM   27  C9  UNL     1      30.971   6.907  48.780  1.00  0.00     0.085 C 
HETATM   28  C10 UNL     1      31.666   5.759  48.819  1.00  0.00    -0.009 C 
BRANCH  28  29
HETATM   29  C11 UNL     1      31.656   4.713  47.783  1.00  0.00     0.043 C 
BRANCH  29  30
HETATM   30  C12 UNL     1      33.052   4.348  47.324  1.00  0.00     0.118 C 
HETATM   31 CL1  UNL     1      33.503   2.697  47.799  1.00  0.00    -0.130 Cl
ENDBRANCH  29  30
ENDBRANCH  28  29
ENDBRANCH  25  27
ENDBRANCH   5  25
TORSDOF 11
ENDMDL
MODEL 2
REMARK VINA RESULT:      -7.2      2.058      3.458
REMARK  11 active torsions:
REMARK  status: ('A' for Active; 'I' for Inactive)
REMARK    1  A    between atoms: C2_2  and  C3_3 
REMARK    2  A    between atoms: C2_2  and  N4_20 
REMARK    3  A    between atoms: C3_3  and  O1_4 
REMARK    4  A    between atoms: O1_4  and  C4_5 
REMARK    5  A    between atoms: C8_9  and  N1_10 
REMARK    6  A    between atoms: N1_10  and  C9_11 
REMARK    7  A    between atoms: C10_12  and  C11_13 
REMARK    8  A    between atoms: C11_13  and  C12_14 
REMARK    9  A    between atoms: N4_20  and  C15_21 
REMARK   10  A    between atoms: C15_21  and  C16_22 
REMARK   11  A    between atoms: C16_22  and  N5_23 
ROOT
HETATM    1  C4  UNL     1      23.625   3.856  50.204  1.00  0.00     0.197 A 
HETATM    2  C5  UNL     1      24.883   3.256  49.696  1.00  0.00     0.012 A 
HETATM    3  C6  UNL     1      25.832   4.190  49.530  1.00  0.00     0.016 A 
HETATM    4  C7  UNL     1      25.338   5.512  49.898  1.00  0.00     0.037 A 
HETATM    5  C8  UNL     1      25.780   6.810  49.954  1.00  0.00     0.141 A 
HETATM    6  N2  UNL     1      24.980   7.801  50.371  1.00  0.00    -0.224 NA
HETATM    7  C13 UNL     1      23.693   7.566  50.757  1.00  0.00     0.235 A 
HETATM    8  N3  UNL     1      23.234   6.305  50.712  1.00  0.00    -0.242 NA
HETATM    9  C14 UNL     1      24.033   5.307  50.295  1.00  0.00     0.082 A 
ENDROOT
BRANCH   1  10
HETATM   10  O1  UNL     1      23.309   3.364  51.469  1.00  0.00    -0.370 OA
BRANCH  10  11
HETATM   11  C3  UNL     1      23.671   2.007  51.510  1.00  0.00     0.224 C 
BRANCH  11  12
HETATM   12  C2  UNL     1      22.826   1.352  52.537  1.00  0.00     0.019 C 
HETATM   13  C1  UNL     1      21.543   1.667  52.511  1.00  0.00     0.040 C 
BRANCH  12  14
HETATM   14  N4  UNL     1      23.269   0.428  53.517  1.00  0.00    -0.391 N 
HETATM   15  H16 UNL     1      22.738   0.518  54.422  1.00  0.00     0.159 HD
BRANCH  14  16
HETATM   16  C15 UNL     1      24.351  -0.536  53.269  1.00  0.00     0.139 C 
BRANCH  16  17
HETATM   17  C16 UNL     1      25.378  -0.367  54.334  1.00  0.00     0.145 C 
BRANCH  17  18
HETATM   18  N5  UNL     1      26.435   0.573  54.017  1.00  0.00    -0.347 N 
HETATM   19  C17 UNL     1      26.488   1.996  53.759  1.00  0.00     0.152 C 
HETATM   20  C18 UNL     1      27.518   2.260  52.715  1.00  0.00     0.188 C 
HETATM   21  O2  UNL     1      28.808   1.923  53.031  1.00  0.00    -0.380 OA
HETATM   22  C19 UNL     1      28.916   0.939  54.001  1.00  0.00     0.270 C 
HETATM   23  C20 UNL     1      27.752  -0.013  53.935  1.00  0.00     0.243 C 
HETATM   24  O3  UNL     1      27.966  -1.259  53.814  1.00  0.00    -0.271 OA
ENDBRANCH  17  18
ENDBRANCH  16  17
ENDBRANCH  14  16
ENDBRANCH  12  14
ENDBRANCH  11  12
ENDBRANCH  10  11
ENDBRANCH   1  10
BRANCH   5  25
HETATM   25  N1  UNL     1      27.131   7.044  49.548  1.00  0.00    -0.350 N 
HETATM   26  H8  UNL     1      28.078   6.999  50.026  1.00  0.00     0.166 HD
BRANCH  25  27
HETATM   27  C9  UNL     1      27.101   7.420  48.166  1.00  0.00     0.085 C 
HETATM   28  C10 UNL     1      28.172   6.858  47.581  1.00  0.00    -0.009 C 
BRANCH  28  29
HETATM   29  C11 UNL     1      29.176   6.017  48.254  1.00  0.00     0.043 C 
BRANCH  29  30
HETATM   30  C12 UNL     1      30.527   6.694  48.334  1.00  0.00     0.118 C 
HETATM   31 CL1  UNL     1      31.626   5.862  49.455  1.00  0.00    -0.130 Cl
ENDBRANCH  29  30
ENDBRANCH  28  29
ENDBRANCH  25  27
ENDBRANCH   5  25
TORSDOF 11
ENDMDL
MODEL 3
REMARK VINA RESULT:      -7.1      2.654      4.839
REMARK  11 active torsions:
REMARK  status: ('A' for Active; 'I' for Inactive)
REMARK    1  A    between atoms: C2_2  and  C3_3 
REMARK    2  A    between atoms: C2_2  and  N4_20 
REMARK    3  A    between atoms: C3_3  and  O1_4 
REMARK    4  A    between atoms: O1_4  and  C4_5 
REMARK    5  A    between atoms: C8_9  and  N1_10 
REMARK    6  A    between atoms: N1_10  and  C9_11 
REMARK    7  A    between atoms: C10_12  and  C11_13 
REMARK    8  A    between atoms: C11_13  and  C12_14 
REMARK    9  A    between atoms: N4_20  and  C15_21 
REMARK   10  A    between atoms: C15_21  and  C16_22 
REMARK   11  A    between atoms: C16_22  and  N5_23 
ROOT
HETATM    1  C4  UNL     1      25.428   2.863  50.782  1.00  0.00     0.197 A 
HETATM    2  C5  UNL     1      26.510   3.043  49.784  1.00  0.00     0.012 A 
HETATM    3  C6  UNL     1      26.523   4.298  49.307  1.00  0.00     0.016 A 
HETATM    4  C7  UNL     1      25.469   5.102  49.913  1.00  0.00     0.037 A 
HETATM    5  C8  UNL     1      24.975   6.381  49.862  1.00  0.00     0.141 A 
HETATM    6  N2  UNL     1      23.934   6.758  50.617  1.00  0.00    -0.224 NA
HETATM    7  C13 UNL     1      23.319   5.888  51.469  1.00  0.00     0.235 A 
HETATM    8  N3  UNL     1      23.781   4.629  51.540  1.00  0.00    -0.242 NA
HETATM    9  C14 UNL     1      24.826   4.248  50.785  1.00  0.00     0.082 A 
ENDROOT
BRANCH   1  10
HETATM   10  O1  UNL     1      25.950   2.563  52.039  1.00  0.00    -0.370 OA
BRANCH  10  11
HETATM   11  C3  UNL     1      27.079   1.745  51.856  1.00  0.00     0.224 C 
BRANCH  11  12
HETATM   12  C2  UNL     1      27.628   1.438  53.199  1.00  0.00     0.019 C 
HETATM   13  C1  UNL     1      28.519   2.294  53.665  1.00  0.00     0.040 C 
BRANCH  12  14
HETATM   14  N4  UNL     1      27.275   0.330  54.010  1.00  0.00    -0.391 N 
HETATM   15  H16 UNL     1      27.922  -0.489  53.872  1.00  0.00     0.159 HD
BRANCH  14  16
HETATM   16  C15 UNL     1      26.130   0.352  54.932  1.00  0.00     0.139 C 
BRANCH  16  17
HETATM   17  C16 UNL     1      25.264  -0.820  54.624  1.00  0.00     0.145 C 
BRANCH  17  18
HETATM   18  N5  UNL     1      23.997  -0.495  54.001  1.00  0.00    -0.347 N 
HETATM   19  C17 UNL     1      23.596   0.325  52.878  1.00  0.00     0.152 C 
HETATM   20  C18 UNL     1      22.291   0.972  53.193  1.00  0.00     0.188 C 
HETATM   21  O2  UNL     1      21.227   0.133  53.399  1.00  0.00    -0.380 OA
HETATM   22  C19 UNL     1      21.582  -1.143  53.805  1.00  0.00     0.270 C 
HETATM   23  C20 UNL     1      22.849  -1.118  54.617  1.00  0.00     0.243 C 
HETATM   24  O3  UNL     1      22.861  -1.632  55.778  1.00  0.00    -0.271 OA
ENDBRANCH  17  18
ENDBRANCH  16  17
ENDBRANCH  14  16
ENDBRANCH  12  14
ENDBRANCH  11  12
ENDBRANCH  10  11
ENDBRANCH   1  10
BRANCH   5  25
HETATM   25  N1  UNL     1      25.629   7.284  48.966  1.00  0.00    -0.350 N 
HETATM   26  H8  UNL     1      25.665   7.402  47.911  1.00  0.00     0.166 HD
BRANCH  25  27
HETATM   27  C9  UNL     1      26.385   8.204  49.764  1.00  0.00     0.085 C 
HETATM   28  C10 UNL     1      27.577   8.358  49.165  1.00  0.00    -0.009 C 
BRANCH  28  29
HETATM   29  C11 UNL     1      28.006   7.697  47.922  1.00  0.00     0.043 C 
BRANCH  29  30
HETATM   30  C12 UNL     1      29.431   7.192  48.004  1.00  0.00     0.118 C 
HETATM   31 CL1  UNL     1      29.513   5.418  48.013  1.00  0.00    -0.130 Cl
ENDBRANCH  29  30
ENDBRANCH  28  29
ENDBRANCH  25  27
ENDBRANCH   5  25
TORSDOF 11
ENDMDL
MODEL 4
REMARK VINA RESULT:      -7.0      3.464      5.476
REMARK  11 active torsions:
REMARK  status: ('A' for Active; 'I' for Inactive)
REMARK    1  A    between atoms: C2_2  and  C3_3 
REMARK    2  A    between atoms: C2_2  and  N4_20 
REMARK    3  A    between atoms: C3_3  and  O1_4 
REMARK    4  A    between atoms: O1_4  and  C4_5 
REMARK    5  A    between atoms: C8_9  and  N1_10 
REMARK    6  A    between atoms: N1_10  and  C9_11 
REMARK    7  A    between atoms: C10_12  and  C11_13 
REMARK    8  A    between atoms: C11_13  and  C12_14 
REMARK    9  A    between atoms: N4_20  and  C15_21 
REMARK   10  A    between atoms: C15_21  and  C16_22 
REMARK   11  A    between atoms: C16_22  and  N5_23 
ROOT
HETATM    1  C4  UNL     1      21.625   1.632  50.580  1.00  0.00     0.197 A 
HETATM    2  C5  UNL     1      21.885   1.565  49.122  1.00  0.00     0.012 A 
HETATM    3  C6  UNL     1      22.754   2.515  48.742  1.00  0.00     0.016 A 
HETATM    4  C7  UNL     1      23.177   3.325  49.877  1.00  0.00     0.037 A 
HETATM    5  C8  UNL     1      23.999   4.391  50.148  1.00  0.00     0.141 A 
HETATM    6  N2  UNL     1      24.128   4.874  51.391  1.00  0.00    -0.224 NA
HETATM    7  C13 UNL     1      23.449   4.331  52.442  1.00  0.00     0.235 A 
HETATM    8  N3  UNL     1      22.638   3.287  52.207  1.00  0.00    -0.242 NA
HETATM    9  C14 UNL     1      22.506   2.798  50.961  1.00  0.00     0.082 A 
ENDROOT
BRANCH   1  10
HETATM   10  O1  UNL     1      22.058   0.473  51.222  1.00  0.00    -0.370 OA
BRANCH  10  11
HETATM   11  C3  UNL     1      21.195   0.228  52.304  1.00  0.00     0.224 C 
BRANCH  11  12
HETATM   12  C2  UNL     1      22.037   0.049  53.512  1.00  0.00     0.019 C 
HETATM   13  C1  UNL     1      21.424  -0.449  54.570  1.00  0.00     0.040 C 
BRANCH  12  14
HETATM   14  N4  UNL     1      23.417   0.354  53.618  1.00  0.00    -0.391 N 
HETATM   15  H16 UNL     1      23.588   1.376  53.809  1.00  0.00     0.159 HD
BRANCH  14  16
HETATM   16  C15 UNL     1      24.469  -0.662  53.475  1.00  0.00     0.139 C 
BRANCH  16  17
HETATM   17  C16 UNL     1      25.542  -0.363  54.463  1.00  0.00     0.145 C 
BRANCH  17  18
HETATM   18  N5  UNL     1      26.760   0.179  53.896  1.00  0.00    -0.347 N 
HETATM   19  C17 UNL     1      28.028  -0.383  53.482  1.00  0.00     0.152 C 
HETATM   20  C18 UNL     1      29.113   0.587  53.801  1.00  0.00     0.188 C 
HETATM   21  O2  UNL     1      29.055   1.800  53.165  1.00  0.00    -0.380 OA
HETATM   22  C19 UNL     1      27.783   2.162  52.751  1.00  0.00     0.270 C 
HETATM   23  C20 UNL     1      26.736   1.606  53.678  1.00  0.00     0.243 C 
HETATM   24  O3  UNL     1      25.894   2.390  54.216  1.00  0.00    -0.271 OA
ENDBRANCH  17  18
ENDBRANCH  16  17
ENDBRANCH  14  16
ENDBRANCH  12  14
ENDBRANCH  11  12
ENDBRANCH  10  11
ENDBRANCH   1  10
BRANCH   5  25
HETATM   25  N1  UNL     1      24.706   4.952  49.038  1.00  0.00    -0.350 N 
HETATM   26  H8  UNL     1      24.444   5.569  48.214  1.00  0.00     0.166 HD
BRANCH  25  27
HETATM   27  C9  UNL     1      26.072   4.531  49.147  1.00  0.00     0.085 C 
HETATM   28  C10 UNL     1      26.836   5.594  48.847  1.00  0.00    -0.009 C 
BRANCH  28  29
HETATM   29  C11 UNL     1      26.343   6.931  48.479  1.00  0.00     0.043 C 
BRANCH  29  30
HETATM   30  C12 UNL     1      26.198   7.839  49.681  1.00  0.00     0.118 C 
HETATM   31 CL1  UNL     1      27.612   8.892  49.898  1.00  0.00    -0.130 Cl
ENDBRANCH  29  30
ENDBRANCH  28  29
ENDBRANCH  25  27
ENDBRANCH   5  25
TORSDOF 11
ENDMDL
MODEL 5
REMARK VINA RESULT:      -6.9      5.157      7.904
REMARK  11 active torsions:
REMARK  status: ('A' for Active; 'I' for Inactive)
REMARK    1  A    between atoms: C2_2  and  C3_3 
REMARK    2  A    between atoms: C2_2  and  N4_20 
REMARK    3  A    between atoms: C3_3  and  O1_4 
REMARK    4  A    between atoms: O1_4  and  C4_5 
REMARK    5  A    between atoms: C8_9  and  N1_10 
REMARK    6  A    between atoms: N1_10  and  C9_11 
REMARK    7  A    between atoms: C10_12  and  C11_13 
REMARK    8  A    between atoms: C11_13  and  C12_14 
REMARK    9  A    between atoms: N4_20  and  C15_21 
REMARK   10  A    between atoms: C15_21  and  C16_22 
REMARK   11  A    between atoms: C16_22  and  N5_23 
ROOT
HETATM    1  C4  UNL     1      22.573  -0.728  53.665  1.00  0.00     0.197 A 
HETATM    2  C5  UNL     1      23.281  -1.267  54.851  1.00  0.00     0.012 A 
HETATM    3  C6  UNL     1      24.505  -0.730  54.969  1.00  0.00     0.016 A 
HETATM    4  C7  UNL     1      24.768   0.219  53.895  1.00  0.00     0.037 A 
HETATM    5  C8  UNL     1      25.768   1.056  53.465  1.00  0.00     0.141 A 
HETATM    6  N2  UNL     1      25.622   1.813  52.369  1.00  0.00    -0.224 NA
HETATM    7  C13 UNL     1      24.475   1.786  51.631  1.00  0.00     0.235 A 
HETATM    8  N3  UNL     1      23.479   0.976  52.027  1.00  0.00    -0.242 NA
HETATM    9  C14 UNL     1      23.622   0.216  53.127  1.00  0.00     0.082 A 
ENDROOT
BRANCH   1  10
HETATM   10  O1  UNL     1      21.434  -0.019  54.040  1.00  0.00    -0.370 OA
BRANCH  10  11
HETATM   11  C3  UNL     1      20.312  -0.701  53.537  1.00  0.00     0.224 C 
BRANCH  11  12
HETATM   12  C2  UNL     1      19.721   0.142  52.469  1.00  0.00     0.019 C 
HETATM   13  C1  UNL     1      18.477  -0.148  52.132  1.00  0.00     0.040 C 
BRANCH  12  14
HETATM   14  N4  UNL     1      20.364   1.214  51.803  1.00  0.00    -0.391 N 
HETATM   15  H16 UNL     1      21.260   0.915  51.335  1.00  0.00     0.159 HD
BRANCH  14  16
HETATM   16  C15 UNL     1      19.820   2.580  51.782  1.00  0.00     0.139 C 
BRANCH  16  17
HETATM   17  C16 UNL     1      20.854   3.501  52.326  1.00  0.00     0.145 C 
BRANCH  17  18
HETATM   18  N5  UNL     1      21.596   4.244  51.326  1.00  0.00    -0.347 N 
HETATM   19  C17 UNL     1      21.482   4.414  49.893  1.00  0.00     0.152 C 
HETATM   20  C18 UNL     1      22.849   4.506  49.308  1.00  0.00     0.188 C 
HETATM   21  O2  UNL     1      23.620   5.563  49.717  1.00  0.00    -0.380 OA
HETATM   22  C19 UNL     1      23.265   6.077  50.954  1.00  0.00     0.270 C 
HETATM   23  C20 UNL     1      22.710   5.000  51.846  1.00  0.00     0.243 C 
HETATM   24  O3  UNL     1      23.226   4.804  52.990  1.00  0.00    -0.271 OA
ENDBRANCH  17  18
ENDBRANCH  16  17
ENDBRANCH  14  16
ENDBRANCH  12  14
ENDBRANCH  11  12
ENDBRANCH  10  11
ENDBRANCH   1  10
BRANCH   5  25
HETATM   25  N1  UNL     1      26.965   1.076  54.248  1.00  0.00    -0.350 N 
HETATM   26  H8  UNL     1      27.243   0.713  55.206  1.00  0.00     0.166 HD
BRANCH  25  27
HETATM   27  C9  UNL     1      27.963   1.763  53.482  1.00  0.00     0.085 C 
HETATM   28  C10 UNL     1      29.090   1.036  53.560  1.00  0.00    -0.009 C 
BRANCH  28  29
HETATM   29  C11 UNL     1      29.247  -0.227  54.299  1.00  0.00     0.043 C 
BRANCH  29  30
HETATM   30  C12 UNL     1      29.746  -1.350  53.415  1.00  0.00     0.118 C 
HETATM   31 CL1  UNL     1      28.453  -2.489  52.986  1.00  0.00    -0.130 Cl
ENDBRANCH  29  30
ENDBRANCH  28  29
ENDBRANCH  25  27
ENDBRANCH   5  25
TORSDOF 11
ENDMDL
MODEL 6
REMARK VINA RESULT:      -6.9      4.047      8.796
REMARK  11 active torsions:
REMARK  status: ('A' for Active; 'I' for Inactive)
REMARK    1  A    between atoms: C2_2  and  C3_3 
REMARK    2  A    between atoms: C2_2  and  N4_20 
REMARK    3  A    between atoms: C3_3  and  O1_4 
REMARK    4  A    between atoms: O1_4  and  C4_5 
REMARK    5  A    between atoms: C8_9  and  N1_10 
REMARK    6  A    between atoms: N1_10  and  C9_11 
REMARK    7  A    between atoms: C10_12  and  C11_13 
REMARK    8  A    between atoms: C11_13  and  C12_14 
REMARK    9  A    between atoms: N4_20  and  C15_21 
REMARK   10  A    between atoms: C15_21  and  C16_22 
REMARK   11  A    between atoms: C16_22  and  N5_23 
ROOT
HETATM    1  C4  UNL     1      25.909   3.553  49.513  1.00  0.00     0.197 A 
HETATM    2  C5  UNL     1      24.444   3.594  49.287  1.00  0.00     0.012 A 
HETATM    3  C6  UNL     1      23.782   3.027  50.308  1.00  0.00     0.016 A 
HETATM    4  C7  UNL     1      24.703   2.543  51.328  1.00  0.00     0.037 A 
HETATM    5  C8  UNL     1      24.670   1.907  52.544  1.00  0.00     0.141 A 
HETATM    6  N2  UNL     1      25.796   1.618  53.211  1.00  0.00    -0.224 NA
HETATM    7  C13 UNL     1      27.024   1.941  52.712  1.00  0.00     0.235 A 
HETATM    8  N3  UNL     1      27.086   2.564  51.524  1.00  0.00    -0.242 NA
HETATM    9  C14 UNL     1      25.959   2.857  50.852  1.00  0.00     0.082 A 
ENDROOT
BRANCH   1  10
HETATM   10  O1  UNL     1      26.436   4.839  49.619  1.00  0.00    -0.370 OA
BRANCH  10  11
HETATM   11  C3  UNL     1      27.433   4.981  48.638  1.00  0.00     0.224 C 
BRANCH  11  12
HETATM   12  C2  UNL     1      27.729   6.428  48.510  1.00  0.00     0.019 C 
HETATM   13  C1  UNL     1      26.815   7.148  47.885  1.00  0.00     0.040 C 
BRANCH  12  14
HETATM   14  N4  UNL     1      28.882   7.089  49.002  1.00  0.00    -0.391 N 
HETATM   15  H16 UNL     1      29.105   6.819  49.996  1.00  0.00     0.159 HD
BRANCH  14  16
HETATM   16  C15 UNL     1      29.660   8.039  48.194  1.00  0.00     0.139 C 
BRANCH  16  17
HETATM   17  C16 UNL     1      31.055   8.058  48.714  1.00  0.00     0.145 C 
BRANCH  17  18
HETATM   18  N5  UNL     1      31.973   7.169  48.030  1.00  0.00    -0.347 N 
HETATM   19  C17 UNL     1      32.704   7.225  46.781  1.00  0.00     0.152 C 
HETATM   20  C18 UNL     1      32.756   5.858  46.190  1.00  0.00     0.188 C 
HETATM   21  O2  UNL     1      33.406   4.900  46.923  1.00  0.00    -0.380 OA
HETATM   22  C19 UNL     1      33.457   5.163  48.283  1.00  0.00     0.270 C 
HETATM   23  C20 UNL     1      32.244   5.934  48.728  1.00  0.00     0.243 C 
HETATM   24  O3  UNL     1      31.526   5.485  49.674  1.00  0.00    -0.271 OA
ENDBRANCH  17  18
ENDBRANCH  16  17
ENDBRANCH  14  16
ENDBRANCH  12  14
ENDBRANCH  11  12
ENDBRANCH  10  11
ENDBRANCH   1  10
BRANCH   5  25
HETATM   25  N1  UNL     1      23.377   1.574  53.057  1.00  0.00    -0.350 N 
HETATM   26  H8  UNL     1      22.470   2.105  53.213  1.00  0.00     0.166 HD
BRANCH  25  27
HETATM   27  C9  UNL     1      23.406   0.187  53.417  1.00  0.00     0.085 C 
HETATM   28  C10 UNL     1      22.421  -0.418  52.733  1.00  0.00    -0.009 C 
BRANCH  28  29
HETATM   29  C11 UNL     1      21.497   0.240  51.794  1.00  0.00     0.043 C 
BRANCH  29  30
HETATM   30  C12 UNL     1      20.064   0.205  52.282  1.00  0.00     0.118 C 
HETATM   31 CL1  UNL     1      19.843  -0.935  53.626  1.00  0.00    -0.130 Cl
ENDBRANCH  29  30
ENDBRANCH  28  29
ENDBRANCH  25  27
ENDBRANCH   5  25
TORSDOF 11
ENDMDL
MODEL 7
REMARK VINA RESULT:      -6.9      3.073      7.576
REMARK  11 active torsions:
REMARK  status: ('A' for Active; 'I' for Inactive)
REMARK    1  A    between atoms: C2_2  and  C3_3 
REMARK    2  A    between atoms: C2_2  and  N4_20 
REMARK    3  A    between atoms: C3_3  and  O1_4 
REMARK    4  A    between atoms: O1_4  and  C4_5 
REMARK    5  A    between atoms: C8_9  and  N1_10 
REMARK    6  A    between atoms: N1_10  and  C9_11 
REMARK    7  A    between atoms: C10_12  and  C11_13 
REMARK    8  A    between atoms: C11_13  and  C12_14 
REMARK    9  A    between atoms: N4_20  and  C15_21 
REMARK   10  A    between atoms: C15_21  and  C16_22 
REMARK   11  A    between atoms: C16_22  and  N5_23 
ROOT
HETATM    1  C4  UNL     1      26.685   5.749  49.319  1.00  0.00     0.197 A 
HETATM    2  C5  UNL     1      27.228   4.405  49.010  1.00  0.00     0.012 A 
HETATM    3  C6  UNL     1      26.445   3.439  49.515  1.00  0.00     0.016 A 
HETATM    4  C7  UNL     1      25.298   4.004  50.215  1.00  0.00     0.037 A 
HETATM    5  C8  UNL     1      24.192   3.585  50.911  1.00  0.00     0.141 A 
HETATM    6  N2  UNL     1      23.323   4.460  51.433  1.00  0.00    -0.224 NA
HETATM    7  C13 UNL     1      23.498   5.807  51.298  1.00  0.00     0.235 A 
HETATM    8  N3  UNL     1      24.572   6.246  50.622  1.00  0.00    -0.242 NA
HETATM    9  C14 UNL     1      25.446   5.370  50.095  1.00  0.00     0.082 A 
ENDROOT
BRANCH   1  10
HETATM   10  O1  UNL     1      26.333   6.428  48.154  1.00  0.00    -0.370 OA
BRANCH  10  11
HETATM   11  C3  UNL     1      26.749   7.764  48.288  1.00  0.00     0.224 C 
BRANCH  11  12
HETATM   12  C2  UNL     1      28.225   7.786  48.149  1.00  0.00     0.019 C 
HETATM   13  C1  UNL     1      28.693   7.514  46.944  1.00  0.00     0.040 C 
BRANCH  12  14
HETATM   14  N4  UNL     1      29.155   8.077  49.178  1.00  0.00    -0.391 N 
HETATM   15  H16 UNL     1      28.840   7.715  50.116  1.00  0.00     0.159 HD
BRANCH  14  16
HETATM   16  C15 UNL     1      30.409   8.804  48.935  1.00  0.00     0.139 C 
BRANCH  16  17
HETATM   17  C16 UNL     1      31.541   7.931  49.352  1.00  0.00     0.145 C 
BRANCH  17  18
HETATM   18  N5  UNL     1      32.049   7.057  48.313  1.00  0.00    -0.347 N 
HETATM   19  C17 UNL     1      32.907   7.236  47.161  1.00  0.00     0.152 C 
HETATM   20  C18 UNL     1      32.424   6.359  46.058  1.00  0.00     0.188 C 
HETATM   21  O2  UNL     1      32.450   5.009  46.295  1.00  0.00    -0.380 OA
HETATM   22  C19 UNL     1      32.407   4.668  47.638  1.00  0.00     0.270 C 
HETATM   23  C20 UNL     1      31.622   5.682  48.426  1.00  0.00     0.243 C 
HETATM   24  O3  UNL     1      30.644   5.301  49.140  1.00  0.00    -0.271 OA
ENDBRANCH  17  18
ENDBRANCH  16  17
ENDBRANCH  14  16
ENDBRANCH  12  14
ENDBRANCH  11  12
ENDBRANCH  10  11
ENDBRANCH   1  10
BRANCH   5  25
HETATM   25  N1  UNL     1      24.019   2.171  51.045  1.00  0.00    -0.350 N 
HETATM   26  H8  UNL     1      24.055   1.342  50.382  1.00  0.00     0.166 HD
BRANCH  25  27
HETATM   27  C9  UNL     1      23.736   1.906  52.425  1.00  0.00     0.085 C 
HETATM   28  C10 UNL     1      24.728   1.129  52.889  1.00  0.00    -0.009 C 
BRANCH  28  29
HETATM   29  C11 UNL     1      25.881   0.651  52.109  1.00  0.00     0.043 C 
BRANCH  29  30
HETATM   30  C12 UNL     1      26.816  -0.206  52.936  1.00  0.00     0.118 C 
HETATM   31 CL1  UNL     1      26.841  -1.894  52.383  1.00  0.00    -0.130 Cl
ENDBRANCH  29  30
ENDBRANCH  28  29
ENDBRANCH  25  27
ENDBRANCH   5  25
TORSDOF 11
ENDMDL
MODEL 8
REMARK VINA RESULT:      -6.7      4.834      8.156
REMARK  11 active torsions:
REMARK  status: ('A' for Active; 'I' for Inactive)
REMARK    1  A    between atoms: C2_2  and  C3_3 
REMARK    2  A    between atoms: C2_2  and  N4_20 
REMARK    3  A    between atoms: C3_3  and  O1_4 
REMARK    4  A    between atoms: O1_4  and  C4_5 
REMARK    5  A    between atoms: C8_9  and  N1_10 
REMARK    6  A    between atoms: N1_10  and  C9_11 
REMARK    7  A    between atoms: C10_12  and  C11_13 
REMARK    8  A    between atoms: C11_13  and  C12_14 
REMARK    9  A    between atoms: N4_20  and  C15_21 
REMARK   10  A    between atoms: C15_21  and  C16_22 
REMARK   11  A    between atoms: C16_22  and  N5_23 
ROOT
HETATM    1  C4  UNL     1      22.728   3.127  52.333  1.00  0.00     0.197 A 
HETATM    2  C5  UNL     1      24.083   3.572  52.735  1.00  0.00     0.012 A 
HETATM    3  C6  UNL     1      24.813   2.544  53.197  1.00  0.00     0.016 A 
HETATM    4  C7  UNL     1      24.051   1.302  53.164  1.00  0.00     0.037 A 
HETATM    5  C8  UNL     1      24.207  -0.025  53.479  1.00  0.00     0.141 A 
HETATM    6  N2  UNL     1      23.216  -0.907  53.294  1.00  0.00    -0.224 NA
HETATM    7  C13 UNL     1      22.008  -0.527  52.786  1.00  0.00     0.235 A 
HETATM    8  N3  UNL     1      21.827   0.765  52.469  1.00  0.00    -0.242 NA
HETATM    9  C14 UNL     1      22.819   1.654  52.652  1.00  0.00     0.082 A 
ENDROOT
BRANCH   1  10
HETATM   10  O1  UNL     1      22.524   3.311  50.967  1.00  0.00    -0.370 OA
BRANCH  10  11
HETATM   11  C3  UNL     1      22.826   4.649  50.659  1.00  0.00     0.224 C 
BRANCH  11  12
HETATM   12  C2  UNL     1      23.391   4.674  49.289  1.00  0.00     0.019 C 
HETATM   13  C1  UNL     1      24.692   4.463  49.200  1.00  0.00     0.040 C 
BRANCH  12  14
HETATM   14  N4  UNL     1      22.664   4.891  48.092  1.00  0.00    -0.391 N 
HETATM   15  H16 UNL     1      23.295   5.019  47.258  1.00  0.00     0.159 HD
BRANCH  14  16
HETATM   16  C15 UNL     1      21.195   4.926  48.048  1.00  0.00     0.139 C 
BRANCH  16  17
HETATM   17  C16 UNL     1      20.701   3.528  47.911  1.00  0.00     0.145 C 
BRANCH  17  18
HETATM   18  N5  UNL     1      19.873   3.065  49.007  1.00  0.00    -0.347 N 
HETATM   19  C17 UNL     1      18.888   3.682  49.870  1.00  0.00     0.152 C 
HETATM   20  C18 UNL     1      19.008   3.098  51.236  1.00  0.00     0.188 C 
HETATM   21  O2  UNL     1      18.765   1.753  51.349  1.00  0.00    -0.380 OA
HETATM   22  C19 UNL     1      18.963   1.042  50.176  1.00  0.00     0.270 C 
HETATM   23  C20 UNL     1      20.044   1.670  49.339  1.00  0.00     0.243 C 
HETATM   24  O3  UNL     1      21.035   0.971  48.965  1.00  0.00    -0.271 OA
ENDBRANCH  17  18
ENDBRANCH  16  17
ENDBRANCH  14  16
ENDBRANCH  12  14
ENDBRANCH  11  12
ENDBRANCH  10  11
ENDBRANCH   1  10
BRANCH   5  25
HETATM   25  N1  UNL     1      25.478  -0.411  54.010  1.00  0.00    -0.350 N 
HETATM   26  H8  UNL     1      25.968  -0.298  54.945  1.00  0.00     0.166 HD
BRANCH  25  27
HETATM   27  C9  UNL     1      26.181  -1.102  52.970  1.00  0.00     0.085 C 
HETATM   28  C10 UNL     1      27.388  -0.523  52.858  1.00  0.00    -0.009 C 
BRANCH  28  29
HETATM   29  C11 UNL     1      27.876   0.609  53.664  1.00  0.00     0.043 C 
BRANCH  29  30
HETATM   30  C12 UNL     1      29.350   0.487  53.988  1.00  0.00     0.118 C 
HETATM   31 CL1  UNL     1      29.982  -1.135  53.633  1.00  0.00    -0.130 Cl
ENDBRANCH  29  30
ENDBRANCH  28  29
ENDBRANCH  25  27
ENDBRANCH   5  25
TORSDOF 11
ENDMDL
MODEL 9
REMARK VINA RESULT:      -6.6      4.751      7.961
REMARK  11 active torsions:
REMARK  status: ('A' for Active; 'I' for Inactive)
REMARK    1  A    between atoms: C2_2  and  C3_3 
REMARK    2  A    between atoms: C2_2  and  N4_20 
REMARK    3  A    between atoms: C3_3  and  O1_4 
REMARK    4  A    between atoms: O1_4  and  C4_5 
REMARK    5  A    between atoms: C8_9  and  N1_10 
REMARK    6  A    between atoms: N1_10  and  C9_11 
REMARK    7  A    between atoms: C10_12  and  C11_13 
REMARK    8  A    between atoms: C11_13  and  C12_14 
REMARK    9  A    between atoms: N4_20  and  C15_21 
REMARK   10  A    between atoms: C15_21  and  C16_22 
REMARK   11  A    between atoms: C16_22  and  N5_23 
ROOT
HETATM    1  C4  UNL     1      24.773   3.285  50.747  1.00  0.00     0.197 A 
HETATM    2  C5  UNL     1      26.211   2.924  50.742  1.00  0.00     0.012 A 
HETATM    3  C6  UNL     1      26.445   1.861  51.527  1.00  0.00     0.016 A 
HETATM    4  C7  UNL     1      25.215   1.385  52.148  1.00  0.00     0.037 A 
HETATM    5  C8  UNL     1      24.795   0.400  53.005  1.00  0.00     0.141 A 
HETATM    6  N2  UNL     1      23.507   0.283  53.357  1.00  0.00    -0.224 NA
HETATM    7  C13 UNL     1      22.557   1.137  52.879  1.00  0.00     0.235 A 
HETATM    8  N3  UNL     1      22.939   2.111  52.038  1.00  0.00    -0.242 NA
HETATM    9  C14 UNL     1      24.231   2.231  51.682  1.00  0.00     0.082 A 
ENDROOT
BRANCH   1  10
HETATM   10  O1  UNL     1      24.214   3.137  49.479  1.00  0.00    -0.370 OA
BRANCH  10  11
HETATM   11  C3  UNL     1      24.072   4.417  48.915  1.00  0.00     0.224 C 
BRANCH  11  12
HETATM   12  C2  UNL     1      22.711   4.497  48.331  1.00  0.00     0.019 C 
HETATM   13  C1  UNL     1      22.238   3.375  47.821  1.00  0.00     0.040 C 
BRANCH  12  14
HETATM   14  N4  UNL     1      21.891   5.653  48.286  1.00  0.00    -0.391 N 
HETATM   15  H16 UNL     1      22.430   6.534  48.492  1.00  0.00     0.159 HD
BRANCH  14  16
HETATM   16  C15 UNL     1      20.454   5.597  47.983  1.00  0.00     0.139 C 
BRANCH  16  17
HETATM   17  C16 UNL     1      19.707   6.064  49.182  1.00  0.00     0.145 C 
BRANCH  17  18
HETATM   18  N5  UNL     1      19.083   5.012  49.960  1.00  0.00    -0.347 N 
HETATM   19  C17 UNL     1      17.777   4.388  49.965  1.00  0.00     0.152 C 
HETATM   20  C18 UNL     1      17.402   4.065  51.371  1.00  0.00     0.188 C 
HETATM   21  O2  UNL     1      18.208   3.173  52.028  1.00  0.00    -0.380 OA
HETATM   22  C19 UNL     1      19.499   3.102  51.530  1.00  0.00     0.270 C 
HETATM   23  C20 UNL     1      19.935   4.429  50.970  1.00  0.00     0.243 C 
HETATM   24  O3  UNL     1      21.003   4.969  51.392  1.00  0.00    -0.271 OA
ENDBRANCH  17  18
ENDBRANCH  16  17
ENDBRANCH  14  16
ENDBRANCH  12  14
ENDBRANCH  11  12
ENDBRANCH  10  11
ENDBRANCH   1  10
BRANCH   5  25
HETATM   25  N1  UNL     1      25.800  -0.491  53.499  1.00  0.00    -0.350 N 
HETATM   26  H8  UNL     1      26.290  -1.354  53.123  1.00  0.00     0.166 HD
BRANCH  25  27
HETATM   27  C9  UNL     1      26.170  -0.032  54.806  1.00  0.00     0.085 C 
HETATM   28  C10 UNL     1      27.512  -0.013  54.851  1.00  0.00    -0.009 C 
BRANCH  28  29
HETATM   29  C11 UNL     1      28.415  -0.394  53.753  1.00  0.00     0.043 C 
BRANCH  29  30
HETATM   30  C12 UNL     1      29.480   0.651  53.498  1.00  0.00     0.118 C 
HETATM   31 CL1  UNL     1      28.934   2.284  53.936  1.00  0.00    -0.130 Cl
ENDBRANCH  29  30
ENDBRANCH  28  29
ENDBRANCH  25  27
ENDBRANCH   5  25
TORSDOF 11
ENDMDL
