MODEL 1
REMARK VINA RESULT:      -8.1      0.000      0.000
REMARK  5 active torsions:
REMARK  status: ('A' for Active; 'I' for Inactive)
REMARK    1  A    between atoms: O1_1  and  C1_2 
REMARK    2  A    between atoms: C1_2  and  C2_3 
REMARK    3  A    between atoms: C2_3  and  N1_4 
REMARK    4  A    between atoms: C2_3  and  C11_17 
REMARK    5  A    between atoms: N1_4  and  C3_5 
ROOT
HETATM    1  C3  UNL     1      25.859   2.652  51.129  1.00  0.00     0.160 A 
HETATM    2  N2  UNL     1      26.458   3.649  50.570  1.00  0.00    -0.160 NA
HETATM    3  N3  UNL     1      25.895   4.860  50.287  1.00  0.00    -0.303 N 
HETATM    4  C4  UNL     1      24.611   5.501  50.448  1.00  0.00     0.210 A 
HETATM    5  S1  UNL     1      23.557   4.242  51.243  1.00  0.00    -0.157 SA
HETATM    6  C5  UNL     1      24.464   2.778  51.512  1.00  0.00     0.048 A 
HETATM    7  C6  UNL     1      23.508   1.856  52.151  1.00  0.00    -0.014 A 
HETATM    8  C7  UNL     1      22.297   2.364  52.335  1.00  0.00     0.021 A 
HETATM    9  C8  UNL     1      21.996   3.753  51.907  1.00  0.00     0.127 A 
HETATM   10  N4  UNL     1      21.488   1.371  52.953  1.00  0.00    -0.392 N 
HETATM   11  C9  UNL     1      22.358   0.390  53.568  1.00  0.00     0.124 C 
HETATM   12  C10 UNL     1      23.555   0.454  52.656  1.00  0.00     0.061 C 
HETATM   13  H6  UNL     1      26.545   5.545  49.820  1.00  0.00     0.183 HD
HETATM   14  H11 UNL     1      20.476   1.234  53.034  1.00  0.00     0.159 HD
ENDROOT
BRANCH   1  15
HETATM   15  N1  UNL     1      26.589   1.455  51.355  1.00  0.00    -0.362 N 
HETATM   16  H5  UNL     1      26.701   0.842  50.493  1.00  0.00     0.162 HD
BRANCH  15  17
HETATM   17  C2  UNL     1      27.089   1.201  52.688  1.00  0.00     0.140 C 
BRANCH  17  18
HETATM   18  C1  UNL     1      28.146   2.212  53.083  1.00  0.00     0.194 C 
BRANCH  18  19
HETATM   19  O1  UNL     1      27.701   2.913  54.193  1.00  0.00    -0.399 OA
HETATM   20  H1  UNL     1      26.740   2.707  54.373  1.00  0.00     0.209 HD
ENDBRANCH  18  19
ENDBRANCH  17  18
BRANCH  17  21
HETATM   21  C11 UNL     1      27.634  -0.173  52.838  1.00  0.00    -0.034 A 
HETATM   22  C12 UNL     1      28.908  -0.373  53.324  1.00  0.00     0.009 A 
HETATM   23  C13 UNL     1      29.552  -1.584  53.521  1.00  0.00     0.001 A 
HETATM   24  C14 UNL     1      28.811  -2.694  53.185  1.00  0.00     0.000 A 
HETATM   25  C15 UNL     1      27.521  -2.575  52.688  1.00  0.00     0.001 A 
HETATM   26  C16 UNL     1      26.942  -1.323  52.519  1.00  0.00     0.009 A 
ENDBRANCH  17  21
ENDBRANCH  15  17
ENDBRANCH   1  15
TORSDOF 5
ENDMDL
MODEL 2
REMARK VINA RESULT:      -7.8      1.425      1.999
REMARK  5 active torsions:
REMARK  status: ('A' for Active; 'I' for Inactive)
REMARK    1  A    between atoms: O1_1  and  C1_2 
REMARK    2  A    between atoms: C1_2  and  C2_3 
REMARK    3  A    between atoms: C2_3  and  N1_4 
REMARK    4  A    between atoms: C2_3  and  C11_17 
REMARK    5  A    between atoms: N1_4  and  C3_5 
ROOT
HETATM    1  C3  UNL     1      24.488   1.923  51.649  1.00  0.00     0.160 A 
HETATM    2  N2  UNL     1      24.645   3.038  51.019  1.00  0.00    -0.160 NA
HETATM    3  N3  UNL     1      23.683   3.989  50.831  1.00  0.00    -0.303 N 
HETATM    4  C4  UNL     1      22.297   4.184  51.183  1.00  0.00     0.210 A 
HETATM    5  S1  UNL     1      21.834   2.684  52.110  1.00  0.00    -0.157 SA
HETATM    6  C5  UNL     1      23.198   1.605  52.231  1.00  0.00     0.048 A 
HETATM    7  C6  UNL     1      22.695   0.448  52.995  1.00  0.00    -0.014 A 
HETATM    8  C7  UNL     1      21.423   0.542  53.357  1.00  0.00     0.021 A 
HETATM    9  C8  UNL     1      20.627   1.741  52.989  1.00  0.00     0.127 A 
HETATM   10  N4  UNL     1      21.076  -0.634  54.077  1.00  0.00    -0.392 N 
HETATM   11  C9  UNL     1      22.297  -1.255  54.550  1.00  0.00     0.124 C 
HETATM   12  C10 UNL     1      23.267  -0.843  53.475  1.00  0.00     0.061 C 
HETATM   13  H6  UNL     1      24.002   4.829  50.281  1.00  0.00     0.183 HD
HETATM   14  H11 UNL     1      20.187  -1.089  54.303  1.00  0.00     0.159 HD
ENDROOT
BRANCH   1  15
HETATM   15  N1  UNL     1      25.594   1.037  51.757  1.00  0.00    -0.362 N 
HETATM   16  H5  UNL     1      25.761   0.441  50.892  1.00  0.00     0.162 HD
BRANCH  15  17
HETATM   17  C2  UNL     1      26.353   1.038  52.987  1.00  0.00     0.140 C 
BRANCH  17  18
HETATM   18  C1  UNL     1      27.116   2.334  53.165  1.00  0.00     0.194 C 
BRANCH  18  19
HETATM   19  O1  UNL     1      27.565   2.762  51.927  1.00  0.00    -0.399 OA
HETATM   20  H1  UNL     1      27.482   2.028  51.253  1.00  0.00     0.209 HD
ENDBRANCH  18  19
ENDBRANCH  17  18
BRANCH  17  21
HETATM   21  C11 UNL     1      27.293  -0.110  53.075  1.00  0.00    -0.034 A 
HETATM   22  C12 UNL     1      26.904  -1.368  52.670  1.00  0.00     0.009 A 
HETATM   23  C13 UNL     1      27.661  -2.529  52.689  1.00  0.00     0.001 A 
HETATM   24  C14 UNL     1      28.941  -2.375  53.171  1.00  0.00     0.000 A 
HETATM   25  C15 UNL     1      29.407  -1.141  53.599  1.00  0.00     0.001 A 
HETATM   26  C16 UNL     1      28.587  -0.020  53.548  1.00  0.00     0.009 A 
ENDBRANCH  17  21
ENDBRANCH  15  17
ENDBRANCH   1  15
TORSDOF 5
ENDMDL
MODEL 3
REMARK VINA RESULT:      -7.7      2.168      3.496
REMARK  5 active torsions:
REMARK  status: ('A' for Active; 'I' for Inactive)
REMARK    1  A    between atoms: O1_1  and  C1_2 
REMARK    2  A    between atoms: C1_2  and  C2_3 
REMARK    3  A    between atoms: C2_3  and  N1_4 
REMARK    4  A    between atoms: C2_3  and  C11_17 
REMARK    5  A    between atoms: N1_4  and  C3_5 
ROOT
HETATM    1  C3  UNL     1      24.025   0.178  53.065  1.00  0.00     0.160 A 
HETATM    2  N2  UNL     1      23.925  -0.654  54.047  1.00  0.00    -0.160 NA
HETATM    3  N3  UNL     1      22.785  -0.929  54.745  1.00  0.00    -0.303 N 
HETATM    4  C4  UNL     1      21.402  -0.515  54.730  1.00  0.00     0.210 A 
HETATM    5  S1  UNL     1      21.294   0.705  53.380  1.00  0.00    -0.157 SA
HETATM    6  C5  UNL     1      22.852   0.909  52.625  1.00  0.00     0.048 A 
HETATM    7  C6  UNL     1      22.627   1.908  51.563  1.00  0.00    -0.014 A 
HETATM    8  C7  UNL     1      21.379   2.347  51.480  1.00  0.00     0.021 A 
HETATM    9  C8  UNL     1      20.343   1.835  52.412  1.00  0.00     0.127 A 
HETATM   10  N4  UNL     1      21.311   3.298  50.425  1.00  0.00    -0.392 N 
HETATM   11  C9  UNL     1      22.451   3.095  49.554  1.00  0.00     0.124 C 
HETATM   12  C10 UNL     1      23.472   2.574  50.531  1.00  0.00     0.061 C 
HETATM   13  H6  UNL     1      22.907  -1.632  55.520  1.00  0.00     0.183 HD
HETATM   14  H11 UNL     1      20.652   4.045  50.188  1.00  0.00     0.159 HD
ENDROOT
BRANCH   1  15
HETATM   15  N1  UNL     1      25.290   0.350  52.441  1.00  0.00    -0.362 N 
HETATM   16  H5  UNL     1      25.277   0.224  51.386  1.00  0.00     0.162 HD
BRANCH  15  17
HETATM   17  C2  UNL     1      26.426   0.669  53.277  1.00  0.00     0.140 C 
BRANCH  17  18
HETATM   18  C1  UNL     1      27.051   1.991  52.879  1.00  0.00     0.194 C 
BRANCH  18  19
HETATM   19  O1  UNL     1      27.128   2.803  53.999  1.00  0.00    -0.399 OA
HETATM   20  H1  UNL     1      26.954   3.756  53.751  1.00  0.00     0.209 HD
ENDBRANCH  18  19
ENDBRANCH  17  18
BRANCH  17  21
HETATM   21  C11 UNL     1      27.462  -0.396  53.259  1.00  0.00    -0.034 A 
HETATM   22  C12 UNL     1      28.747  -0.131  53.677  1.00  0.00     0.009 A 
HETATM   23  C13 UNL     1      29.816  -1.013  53.720  1.00  0.00     0.001 A 
HETATM   24  C14 UNL     1      29.529  -2.289  53.290  1.00  0.00     0.000 A 
HETATM   25  C15 UNL     1      28.259  -2.634  52.854  1.00  0.00     0.001 A 
HETATM   26  C16 UNL     1      27.236  -1.692  52.841  1.00  0.00     0.009 A 
ENDBRANCH  17  21
ENDBRANCH  15  17
ENDBRANCH   1  15
TORSDOF 5
ENDMDL
MODEL 4
REMARK VINA RESULT:      -7.5      2.391      4.340
REMARK  5 active torsions:
REMARK  status: ('A' for Active; 'I' for Inactive)
REMARK    1  A    between atoms: O1_1  and  C1_2 
REMARK    2  A    between atoms: C1_2  and  C2_3 
REMARK    3  A    between atoms: C2_3  and  N1_4 
REMARK    4  A    between atoms: C2_3  and  C11_17 
REMARK    5  A    between atoms: N1_4  and  C3_5 
ROOT
HETATM    1  C3  UNL     1      22.438   0.825  52.426  1.00  0.00     0.160 A 
HETATM    2  N2  UNL     1      21.265   0.290  52.359  1.00  0.00    -0.160 NA
HETATM    3  N3  UNL     1      20.409   0.377  51.299  1.00  0.00    -0.303 N 
HETATM    4  C4  UNL     1      20.397   0.982  49.988  1.00  0.00     0.210 A 
HETATM    5  S1  UNL     1      22.006   1.829  49.849  1.00  0.00    -0.157 SA
HETATM    6  C5  UNL     1      22.938   1.596  51.303  1.00  0.00     0.048 A 
HETATM    7  C6  UNL     1      24.199   2.320  51.061  1.00  0.00    -0.014 A 
HETATM    8  C7  UNL     1      24.272   2.912  49.877  1.00  0.00     0.021 A 
HETATM    9  C8  UNL     1      23.140   2.815  48.921  1.00  0.00     0.127 A 
HETATM   10  N4  UNL     1      25.530   3.568  49.784  1.00  0.00    -0.392 N 
HETATM   11  C9  UNL     1      26.425   2.982  50.761  1.00  0.00     0.124 C 
HETATM   12  C10 UNL     1      25.451   2.569  51.833  1.00  0.00     0.061 C 
HETATM   13  H6  UNL     1      19.491  -0.121  51.438  1.00  0.00     0.183 HD
HETATM   14  H11 UNL     1      25.891   4.326  49.196  1.00  0.00     0.159 HD
ENDROOT
BRANCH   1  15
HETATM   15  N1  UNL     1      23.207   0.639  53.606  1.00  0.00    -0.362 N 
HETATM   16  H5  UNL     1      23.239   1.489  54.245  1.00  0.00     0.162 HD
BRANCH  15  17
HETATM   17  C2  UNL     1      23.845  -0.642  53.810  1.00  0.00     0.140 C 
BRANCH  17  18
HETATM   18  C1  UNL     1      23.428  -1.263  55.128  1.00  0.00     0.194 C 
BRANCH  18  19
HETATM   19  O1  UNL     1      22.045  -1.333  55.171  1.00  0.00    -0.399 OA
HETATM   20  H1  UNL     1      21.648  -0.417  55.124  1.00  0.00     0.209 HD
ENDBRANCH  18  19
ENDBRANCH  17  18
BRANCH  17  21
HETATM   21  C11 UNL     1      25.328  -0.554  53.749  1.00  0.00    -0.034 A 
HETATM   22  C12 UNL     1      26.036   0.063  54.757  1.00  0.00     0.009 A 
HETATM   23  C13 UNL     1      27.410   0.222  54.843  1.00  0.00     0.001 A 
HETATM   24  C14 UNL     1      28.120  -0.306  53.788  1.00  0.00     0.000 A 
HETATM   25  C15 UNL     1      27.479  -0.942  52.735  1.00  0.00     0.001 A 
HETATM   26  C16 UNL     1      26.094  -1.063  52.721  1.00  0.00     0.009 A 
ENDBRANCH  17  21
ENDBRANCH  15  17
ENDBRANCH   1  15
TORSDOF 5
ENDMDL
MODEL 5
REMARK VINA RESULT:      -7.4      2.968      6.601
REMARK  5 active torsions:
REMARK  status: ('A' for Active; 'I' for Inactive)
REMARK    1  A    between atoms: O1_1  and  C1_2 
REMARK    2  A    between atoms: C1_2  and  C2_3 
REMARK    3  A    between atoms: C2_3  and  N1_4 
REMARK    4  A    between atoms: C2_3  and  C11_17 
REMARK    5  A    between atoms: N1_4  and  C3_5 
ROOT
HETATM    1  C3  UNL     1      24.242  -0.294  53.445  1.00  0.00     0.160 A 
HETATM    2  N2  UNL     1      24.800  -0.894  54.442  1.00  0.00    -0.160 NA
HETATM    3  N3  UNL     1      26.053  -0.643  54.922  1.00  0.00    -0.303 N 
HETATM    4  C4  UNL     1      27.151   0.245  54.620  1.00  0.00     0.210 A 
HETATM    5  S1  UNL     1      26.580   1.226  53.193  1.00  0.00    -0.157 SA
HETATM    6  C5  UNL     1      24.966   0.748  52.739  1.00  0.00     0.048 A 
HETATM    7  C6  UNL     1      24.629   1.607  51.590  1.00  0.00    -0.014 A 
HETATM    8  C7  UNL     1      25.587   2.455  51.241  1.00  0.00     0.021 A 
HETATM    9  C8  UNL     1      26.870   2.482  51.987  1.00  0.00     0.127 A 
HETATM   10  N4  UNL     1      25.128   3.210  50.127  1.00  0.00    -0.392 N 
HETATM   11  C9  UNL     1      23.682   3.129  50.084  1.00  0.00     0.124 C 
HETATM   12  C10 UNL     1      23.452   1.769  50.689  1.00  0.00     0.061 C 
HETATM   13  H6  UNL     1      26.335  -1.245  55.740  1.00  0.00     0.183 HD
HETATM   14  H11 UNL     1      25.600   3.760  49.402  1.00  0.00     0.159 HD
ENDROOT
BRANCH   1  15
HETATM   15  N1  UNL     1      22.926  -0.674  53.068  1.00  0.00    -0.362 N 
HETATM   16  H5  UNL     1      22.881  -1.299  52.209  1.00  0.00     0.162 HD
BRANCH  15  17
HETATM   17  C2  UNL     1      21.821  -0.188  53.864  1.00  0.00     0.140 C 
BRANCH  17  18
HETATM   18  C1  UNL     1      21.132  -1.318  54.601  1.00  0.00     0.194 C 
BRANCH  18  19
HETATM   19  O1  UNL     1      22.079  -2.017  55.333  1.00  0.00    -0.399 OA
HETATM   20  H1  UNL     1      22.668  -1.384  55.834  1.00  0.00     0.209 HD
ENDBRANCH  18  19
ENDBRANCH  17  18
BRANCH  17  21
HETATM   21  C11 UNL     1      20.823   0.559  53.054  1.00  0.00    -0.034 A 
HETATM   22  C12 UNL     1      19.895  -0.114  52.290  1.00  0.00     0.009 A 
HETATM   23  C13 UNL     1      18.907   0.436  51.489  1.00  0.00     0.001 A 
HETATM   24  C14 UNL     1      18.875   1.812  51.475  1.00  0.00     0.000 A 
HETATM   25  C15 UNL     1      19.776   2.561  52.217  1.00  0.00     0.001 A 
HETATM   26  C16 UNL     1      20.740   1.935  52.999  1.00  0.00     0.009 A 
ENDBRANCH  17  21
ENDBRANCH  15  17
ENDBRANCH   1  15
TORSDOF 5
ENDMDL
MODEL 6
REMARK VINA RESULT:      -7.4      2.464      5.714
REMARK  5 active torsions:
REMARK  status: ('A' for Active; 'I' for Inactive)
REMARK    1  A    between atoms: O1_1  and  C1_2 
REMARK    2  A    between atoms: C1_2  and  C2_3 
REMARK    3  A    between atoms: C2_3  and  N1_4 
REMARK    4  A    between atoms: C2_3  and  C11_17 
REMARK    5  A    between atoms: N1_4  and  C3_5 
ROOT
HETATM    1  C3  UNL     1      22.751   2.130  51.718  1.00  0.00     0.160 A 
HETATM    2  N2  UNL     1      21.499   2.439  51.761  1.00  0.00    -0.160 NA
HETATM    3  N3  UNL     1      20.559   1.846  52.552  1.00  0.00    -0.303 N 
HETATM    4  C4  UNL     1      20.509   0.795  53.541  1.00  0.00     0.210 A 
HETATM    5  S1  UNL     1      22.222   0.180  53.656  1.00  0.00    -0.157 SA
HETATM    6  C5  UNL     1      23.255   1.066  52.567  1.00  0.00     0.048 A 
HETATM    7  C6  UNL     1      24.594   0.478  52.757  1.00  0.00    -0.014 A 
HETATM    8  C7  UNL     1      24.640  -0.502  53.650  1.00  0.00     0.021 A 
HETATM    9  C8  UNL     1      23.407  -0.923  54.362  1.00  0.00     0.127 A 
HETATM   10  N4  UNL     1      25.979  -0.971  53.727  1.00  0.00    -0.392 N 
HETATM   11  C9  UNL     1      26.854   0.054  53.194  1.00  0.00     0.124 C 
HETATM   12  C10 UNL     1      25.950   0.707  52.182  1.00  0.00     0.061 C 
HETATM   13  H6  UNL     1      19.585   2.233  52.438  1.00  0.00     0.183 HD
HETATM   14  H11 UNL     1      26.406  -1.840  54.064  1.00  0.00     0.159 HD
ENDROOT
BRANCH   1  15
HETATM   15  N1  UNL     1      23.603   2.847  50.836  1.00  0.00    -0.362 N 
HETATM   16  H5  UNL     1      23.570   2.511  49.828  1.00  0.00     0.162 HD
BRANCH  15  17
HETATM   17  C2  UNL     1      24.400   3.924  51.380  1.00  0.00     0.140 C 
BRANCH  17  18
HETATM   18  C1  UNL     1      23.528   5.048  51.899  1.00  0.00     0.194 C 
BRANCH  18  19
HETATM   19  O1  UNL     1      23.891   5.329  53.206  1.00  0.00    -0.399 OA
HETATM   20  H1  UNL     1      24.301   4.524  53.634  1.00  0.00     0.209 HD
ENDBRANCH  18  19
ENDBRANCH  17  18
BRANCH  17  21
HETATM   21  C11 UNL     1      25.375   4.463  50.397  1.00  0.00    -0.034 A 
HETATM   22  C12 UNL     1      25.285   5.768  49.965  1.00  0.00     0.009 A 
HETATM   23  C13 UNL     1      26.114   6.412  49.059  1.00  0.00     0.001 A 
HETATM   24  C14 UNL     1      27.130   5.634  48.552  1.00  0.00     0.000 A 
HETATM   25  C15 UNL     1      27.286   4.311  48.937  1.00  0.00     0.001 A 
HETATM   26  C16 UNL     1      26.413   3.735  49.853  1.00  0.00     0.009 A 
ENDBRANCH  17  21
ENDBRANCH  15  17
ENDBRANCH   1  15
TORSDOF 5
ENDMDL
MODEL 7
REMARK VINA RESULT:      -7.3      2.747      5.628
REMARK  5 active torsions:
REMARK  status: ('A' for Active; 'I' for Inactive)
REMARK    1  A    between atoms: O1_1  and  C1_2 
REMARK    2  A    between atoms: C1_2  and  C2_3 
REMARK    3  A    between atoms: C2_3  and  N1_4 
REMARK    4  A    between atoms: C2_3  and  C11_17 
REMARK    5  A    between atoms: N1_4  and  C3_5 
ROOT
HETATM    1  C3  UNL     1      26.259   1.703  52.020  1.00  0.00     0.160 A 
HETATM    2  N2  UNL     1      27.506   2.004  52.158  1.00  0.00    -0.160 NA
HETATM    3  N3  UNL     1      28.323   1.573  53.163  1.00  0.00    -0.303 N 
HETATM    4  C4  UNL     1      28.220   0.729  54.330  1.00  0.00     0.210 A 
HETATM    5  S1  UNL     1      26.485   0.169  54.350  1.00  0.00    -0.157 SA
HETATM    6  C5  UNL     1      25.621   0.833  52.990  1.00  0.00     0.048 A 
HETATM    7  C6  UNL     1      24.249   0.307  53.123  1.00  0.00    -0.014 A 
HETATM    8  C7  UNL     1      24.064  -0.478  54.176  1.00  0.00     0.021 A 
HETATM    9  C8  UNL     1      25.187  -0.761  55.104  1.00  0.00     0.127 A 
HETATM   10  N4  UNL     1      22.708  -0.905  54.178  1.00  0.00    -0.392 N 
HETATM   11  C9  UNL     1      22.173  -0.736  52.843  1.00  0.00     0.124 C 
HETATM   12  C10 UNL     1      22.978   0.440  52.356  1.00  0.00     0.061 C 
HETATM   13  H6  UNL     1      29.311   1.935  53.108  1.00  0.00     0.183 HD
HETATM   14  H11 UNL     1      22.086  -1.281  54.901  1.00  0.00     0.159 HD
ENDROOT
BRANCH   1  15
HETATM   15  N1  UNL     1      25.545   2.237  50.913  1.00  0.00    -0.362 N 
HETATM   16  H5  UNL     1      25.407   1.552  50.112  1.00  0.00     0.162 HD
BRANCH  15  17
HETATM   17  C2  UNL     1      25.095   3.609  50.989  1.00  0.00     0.140 C 
BRANCH  17  18
HETATM   18  C1  UNL     1      23.615   3.722  50.687  1.00  0.00     0.194 C 
BRANCH  18  19
HETATM   19  O1  UNL     1      23.346   3.048  49.506  1.00  0.00    -0.399 OA
HETATM   20  H1  UNL     1      22.666   3.544  48.969  1.00  0.00     0.209 HD
ENDBRANCH  18  19
ENDBRANCH  17  18
BRANCH  17  21
HETATM   21  C11 UNL     1      25.857   4.507  50.083  1.00  0.00    -0.034 A 
HETATM   22  C12 UNL     1      25.495   5.829  49.939  1.00  0.00     0.009 A 
HETATM   23  C13 UNL     1      26.102   6.784  49.140  1.00  0.00     0.001 A 
HETATM   24  C14 UNL     1      27.187   6.333  48.422  1.00  0.00     0.000 A 
HETATM   25  C15 UNL     1      27.613   5.016  48.513  1.00  0.00     0.001 A 
HETATM   26  C16 UNL     1      26.951   4.115  49.339  1.00  0.00     0.009 A 
ENDBRANCH  17  21
ENDBRANCH  15  17
ENDBRANCH   1  15
TORSDOF 5
ENDMDL
MODEL 8
REMARK VINA RESULT:      -7.3      1.628      1.992
REMARK  5 active torsions:
REMARK  status: ('A' for Active; 'I' for Inactive)
REMARK    1  A    between atoms: O1_1  and  C1_2 
REMARK    2  A    between atoms: C1_2  and  C2_3 
REMARK    3  A    between atoms: C2_3  and  N1_4 
REMARK    4  A    between atoms: C2_3  and  C11_17 
REMARK    5  A    between atoms: N1_4  and  C3_5 
ROOT
HETATM    1  C3  UNL     1      25.630   2.305  51.997  1.00  0.00     0.160 A 
HETATM    2  N2  UNL     1      26.700   2.831  51.503  1.00  0.00    -0.160 NA
HETATM    3  N3  UNL     1      26.750   3.688  50.442  1.00  0.00    -0.303 N 
HETATM    4  C4  UNL     1      25.818   4.314  49.535  1.00  0.00     0.210 A 
HETATM    5  S1  UNL     1      24.180   3.701  50.050  1.00  0.00    -0.157 SA
HETATM    6  C5  UNL     1      24.340   2.623  51.411  1.00  0.00     0.048 A 
HETATM    7  C6  UNL     1      22.961   2.205  51.725  1.00  0.00    -0.014 A 
HETATM    8  C7  UNL     1      22.037   2.733  50.934  1.00  0.00     0.021 A 
HETATM    9  C8  UNL     1      22.427   3.659  49.842  1.00  0.00     0.127 A 
HETATM   10  N4  UNL     1      20.767   2.244  51.348  1.00  0.00    -0.392 N 
HETATM   11  C9  UNL     1      20.884   1.761  52.708  1.00  0.00     0.124 C 
HETATM   12  C10 UNL     1      22.321   1.311  52.732  1.00  0.00     0.061 C 
HETATM   13  H6  UNL     1      27.721   4.003  50.180  1.00  0.00     0.183 HD
HETATM   14  H11 UNL     1      19.852   2.176  50.891  1.00  0.00     0.159 HD
ENDROOT
BRANCH   1  15
HETATM   15  N1  UNL     1      25.749   1.428  53.108  1.00  0.00    -0.362 N 
HETATM   16  H5  UNL     1      25.688   1.910  54.054  1.00  0.00     0.162 HD
BRANCH  15  17
HETATM   17  C2  UNL     1      25.933   0.018  52.848  1.00  0.00     0.140 C 
BRANCH  17  18
HETATM   18  C1  UNL     1      24.981  -0.825  53.671  1.00  0.00     0.194 C 
BRANCH  18  19
HETATM   19  O1  UNL     1      25.386  -0.792  54.995  1.00  0.00    -0.399 OA
HETATM   20  H1  UNL     1      24.674  -1.168  55.587  1.00  0.00     0.209 HD
ENDBRANCH  18  19
ENDBRANCH  17  18
BRANCH  17  21
HETATM   21  C11 UNL     1      27.330  -0.427  53.092  1.00  0.00    -0.034 A 
HETATM   22  C12 UNL     1      28.279   0.462  53.547  1.00  0.00     0.009 A 
HETATM   23  C13 UNL     1      29.612   0.200  53.821  1.00  0.00     0.001 A 
HETATM   24  C14 UNL     1      30.002  -1.102  53.604  1.00  0.00     0.000 A 
HETATM   25  C15 UNL     1      29.105  -2.055  53.145  1.00  0.00     0.001 A 
HETATM   26  C16 UNL     1      27.781  -1.716  52.894  1.00  0.00     0.009 A 
ENDBRANCH  17  21
ENDBRANCH  15  17
ENDBRANCH   1  15
TORSDOF 5
ENDMDL
MODEL 9
REMARK VINA RESULT:      -7.2      2.544      4.188
REMARK  5 active torsions:
REMARK  status: ('A' for Active; 'I' for Inactive)
REMARK    1  A    between atoms: O1_1  and  C1_2 
REMARK    2  A    between atoms: C1_2  and  C2_3 
REMARK    3  A    between atoms: C2_3  and  N1_4 
REMARK    4  A    between atoms: C2_3  and  C11_17 
REMARK    5  A    between atoms: N1_4  and  C3_5 
ROOT
HETATM    1  C3  UNL     1      24.726   2.486  50.918  1.00  0.00     0.160 A 
HETATM    2  N2  UNL     1      25.764   3.217  51.151  1.00  0.00    -0.160 NA
HETATM    3  N3  UNL     1      26.051   4.407  50.548  1.00  0.00    -0.303 N 
HETATM    4  C4  UNL     1      25.452   5.271  49.558  1.00  0.00     0.210 A 
HETATM    5  S1  UNL     1      23.919   4.418  49.060  1.00  0.00    -0.157 SA
HETATM    6  C5  UNL     1      23.746   2.924  49.942  1.00  0.00     0.048 A 
HETATM    7  C6  UNL     1      22.483   2.343  49.452  1.00  0.00    -0.014 A 
HETATM    8  C7  UNL     1      21.865   3.072  48.533  1.00  0.00     0.021 A 
HETATM    9  C8  UNL     1      22.453   4.358  48.079  1.00  0.00     0.127 A 
HETATM   10  N4  UNL     1      20.674   2.395  48.154  1.00  0.00    -0.392 N 
HETATM   11  C9  UNL     1      20.334   1.449  49.198  1.00  0.00     0.124 C 
HETATM   12  C10 UNL     1      21.700   1.105  49.730  1.00  0.00     0.061 C 
HETATM   13  H6  UNL     1      26.953   4.851  50.865  1.00  0.00     0.183 HD
HETATM   14  H11 UNL     1      20.059   2.449  47.336  1.00  0.00     0.159 HD
ENDROOT
BRANCH   1  15
HETATM   15  N1  UNL     1      24.573   1.268  51.633  1.00  0.00    -0.362 N 
HETATM   16  H5  UNL     1      24.617   0.397  51.025  1.00  0.00     0.162 HD
BRANCH  15  17
HETATM   17  C2  UNL     1      24.382   1.335  53.065  1.00  0.00     0.140 C 
BRANCH  17  18
HETATM   18  C1  UNL     1      25.625   0.894  53.810  1.00  0.00     0.194 C 
BRANCH  18  19
HETATM   19  O1  UNL     1      26.342   2.017  54.189  1.00  0.00    -0.399 OA
HETATM   20  H1  UNL     1      27.001   2.266  53.480  1.00  0.00     0.209 HD
ENDBRANCH  18  19
ENDBRANCH  17  18
BRANCH  17  21
HETATM   21  C11 UNL     1      23.217   0.533  53.521  1.00  0.00    -0.034 A 
HETATM   22  C12 UNL     1      23.404  -0.643  54.213  1.00  0.00     0.009 A 
HETATM   23  C13 UNL     1      22.427  -1.495  54.702  1.00  0.00     0.001 A 
HETATM   24  C14 UNL     1      21.134  -1.095  54.452  1.00  0.00     0.000 A 
HETATM   25  C15 UNL     1      20.864   0.077  53.761  1.00  0.00     0.001 A 
HETATM   26  C16 UNL     1      21.900   0.881  53.301  1.00  0.00     0.009 A 
ENDBRANCH  17  21
ENDBRANCH  15  17
ENDBRANCH   1  15
TORSDOF 5
ENDMDL
