MODEL 1
REMARK VINA RESULT:      -7.4      0.000      0.000
REMARK  9 active torsions:
REMARK  status: ('A' for Active; 'I' for Inactive)
REMARK    1  A    between atoms: C3_3  and  N1_4 
REMARK    2  A    between atoms: N1_4  and  C4_5 
REMARK    3  A    between atoms: C7_10  and  C8_11 
REMARK    4  A    between atoms: C13_17  and  C14_18 
REMARK    5  A    between atoms: C14_18  and  N4_19 
REMARK    6  A    between atoms: N4_19  and  C15_20 
REMARK    7  A    between atoms: C15_20  and  C16_21 
REMARK    8  A    between atoms: C16_21  and  S1_22 
REMARK    9  A    between atoms: S1_22  and  C17_24 
ROOT
HETATM    1  C4  UNL     1      23.083   2.433  52.243  1.00  0.00     0.111 C 
HETATM    2  N2  UNL     1      21.872   2.542  52.226  1.00  0.00    -0.175 NA
HETATM    3  C5  UNL     1      20.824   3.341  51.737  1.00  0.00     0.205 A 
HETATM    4  N3  UNL     1      20.474   2.178  51.586  1.00  0.00    -0.219 NA
HETATM    5  C6  UNL     1      20.365   0.883  51.540  1.00  0.00     0.116 C 
HETATM    6  C7  UNL     1      19.715  -0.145  52.349  1.00  0.00     0.020 C 
HETATM    7  C9  UNL     1      20.177  -0.474  53.737  1.00  0.00     0.072 C 
HETATM    8  C10 UNL     1      21.715  -0.812  53.702  1.00  0.00     0.054 A 
HETATM    9  C11 UNL     1      22.000   0.421  53.241  1.00  0.00     0.050 A 
HETATM   10  C12 UNL     1      23.112   1.082  52.889  1.00  0.00     0.037 A 
HETATM   11  C13 UNL     1      23.760  -0.066  53.227  1.00  0.00     0.095 A 
HETATM   12  O2  UNL     1      23.009  -1.100  53.673  1.00  0.00    -0.317 OA
ENDROOT
BRANCH  11  13
HETATM   13  C14 UNL     1      25.249  -0.012  53.050  1.00  0.00     0.335 C 
BRANCH  13  14
HETATM   14  N4  UNL     1      25.845  -0.702  54.234  1.00  0.00     0.090 N 
HETATM   15  H18 UNL     1      25.110  -1.019  54.875  1.00  0.00     0.316 HD
BRANCH  14  16
HETATM   16  C15 UNL     1      26.665   0.246  54.958  1.00  0.00     0.282 C 
BRANCH  16  17
HETATM   17  C16 UNL     1      27.009   1.379  53.968  1.00  0.00     0.141 C 
BRANCH  17  18
HETATM   18  S1  UNL     1      28.805   1.332  53.796  1.00  0.00     0.045 S 
HETATM   19  O1  UNL     1      29.365   2.205  54.917  1.00  0.00    -0.256 OA
BRANCH  18  20
HETATM   20  C17 UNL     1      29.442  -0.329  54.092  1.00  0.00     0.330 C 
HETATM   21  F1  UNL     1      30.032  -0.861  52.952  1.00  0.00    -0.242 F 
ENDBRANCH  18  20
ENDBRANCH  17  18
ENDBRANCH  16  17
ENDBRANCH  14  16
ENDBRANCH  13  14
ENDBRANCH  11  13
BRANCH   1  22
HETATM   22  N1  UNL     1      24.384   2.861  51.907  1.00  0.00    -0.355 N 
HETATM   23  H6  UNL     1      25.017   2.739  52.691  1.00  0.00     0.166 HD
BRANCH  22  24
HETATM   24  C3  UNL     1      24.272   3.310  50.520  1.00  0.00     0.085 C 
HETATM   25  C2  UNL     1      25.325   3.361  49.785  1.00  0.00    -0.014 C 
HETATM   26  C1  UNL     1      26.423   2.882  50.733  1.00  0.00     0.037 C 
ENDBRANCH  22  24
ENDBRANCH   1  22
BRANCH   6  27
HETATM   27  C8  UNL     1      18.171  -0.107  52.344  1.00  0.00     0.120 C 
HETATM   28 CL1  UNL     1      17.600  -1.619  53.055  1.00  0.00    -0.130 Cl
ENDBRANCH   6  27
TORSDOF 9
ENDMDL
MODEL 2
REMARK VINA RESULT:      -7.3      1.501      1.755
REMARK  9 active torsions:
REMARK  status: ('A' for Active; 'I' for Inactive)
REMARK    1  A    between atoms: C3_3  and  N1_4 
REMARK    2  A    between atoms: N1_4  and  C4_5 
REMARK    3  A    between atoms: C7_10  and  C8_11 
REMARK    4  A    between atoms: C13_17  and  C14_18 
REMARK    5  A    between atoms: C14_18  and  N4_19 
REMARK    6  A    between atoms: N4_19  and  C15_20 
REMARK    7  A    between atoms: C15_20  and  C16_21 
REMARK    8  A    between atoms: C16_21  and  S1_22 
REMARK    9  A    between atoms: S1_22  and  C17_24 
ROOT
HETATM    1  C4  UNL     1      22.811   3.292  51.890  1.00  0.00     0.111 C 
HETATM    2  N2  UNL     1      21.719   2.978  52.323  1.00  0.00    -0.175 NA
HETATM    3  C5  UNL     1      20.365   3.357  52.333  1.00  0.00     0.205 A 
HETATM    4  N3  UNL     1      20.386   2.140  52.197  1.00  0.00    -0.219 NA
HETATM    5  C6  UNL     1      20.698   0.885  52.058  1.00  0.00     0.116 C 
HETATM    6  C7  UNL     1      20.775  -0.281  52.933  1.00  0.00     0.020 C 
HETATM    7  C9  UNL     1      21.805  -0.394  54.017  1.00  0.00     0.072 C 
HETATM    8  C10 UNL     1      23.236  -0.184  53.392  1.00  0.00     0.054 A 
HETATM    9  C11 UNL     1      22.905   1.058  52.993  1.00  0.00     0.050 A 
HETATM   10  C12 UNL     1      23.521   2.051  52.335  1.00  0.00     0.037 A 
HETATM   11  C13 UNL     1      24.586   1.205  52.292  1.00  0.00     0.095 A 
HETATM   12  O2  UNL     1      24.441  -0.012  52.868  1.00  0.00    -0.317 OA
ENDROOT
BRANCH  11  13
HETATM   13  C14 UNL     1      25.792   1.761  51.596  1.00  0.00     0.335 C 
BRANCH  13  14
HETATM   14  N4  UNL     1      26.986   1.201  52.297  1.00  0.00     0.090 N 
HETATM   15  H18 UNL     1      26.793   0.253  52.639  1.00  0.00     0.316 HD
BRANCH  14  16
HETATM   16  C15 UNL     1      27.274   2.023  53.452  1.00  0.00     0.282 C 
BRANCH  16  17
HETATM   17  C16 UNL     1      28.759   1.787  53.803  1.00  0.00     0.141 C 
BRANCH  17  18
HETATM   18  S1  UNL     1      28.801   0.189  54.643  1.00  0.00     0.045 S 
HETATM   19  O1  UNL     1      27.345  -0.229  54.837  1.00  0.00    -0.256 OA
BRANCH  18  20
HETATM   20  C17 UNL     1      29.547  -1.074  53.595  1.00  0.00     0.330 C 
HETATM   21  F1  UNL     1      30.733  -1.553  54.137  1.00  0.00    -0.242 F 
ENDBRANCH  18  20
ENDBRANCH  17  18
ENDBRANCH  16  17
ENDBRANCH  14  16
ENDBRANCH  13  14
ENDBRANCH  11  13
BRANCH   1  22
HETATM   22  N1  UNL     1      23.672   4.132  51.153  1.00  0.00    -0.355 N 
HETATM   23  H6  UNL     1      24.349   4.578  51.763  1.00  0.00     0.166 HD
BRANCH  22  24
HETATM   24  C3  UNL     1      23.217   3.996  49.770  1.00  0.00     0.085 C 
HETATM   25  C2  UNL     1      23.932   4.481  48.819  1.00  0.00    -0.014 C 
HETATM   26  C1  UNL     1      25.122   5.085  49.562  1.00  0.00     0.037 C 
ENDBRANCH  22  24
ENDBRANCH   1  22
BRANCH   6  27
HETATM   27  C8  UNL     1      19.422  -0.775  53.491  1.00  0.00     0.120 C 
HETATM   28 CL1  UNL     1      18.228  -0.629  52.198  1.00  0.00    -0.130 Cl
ENDBRANCH   6  27
TORSDOF 9
ENDMDL
MODEL 3
REMARK VINA RESULT:      -7.1      3.960      6.934
REMARK  9 active torsions:
REMARK  status: ('A' for Active; 'I' for Inactive)
REMARK    1  A    between atoms: C3_3  and  N1_4 
REMARK    2  A    between atoms: N1_4  and  C4_5 
REMARK    3  A    between atoms: C7_10  and  C8_11 
REMARK    4  A    between atoms: C13_17  and  C14_18 
REMARK    5  A    between atoms: C14_18  and  N4_19 
REMARK    6  A    between atoms: N4_19  and  C15_20 
REMARK    7  A    between atoms: C15_20  and  C16_21 
REMARK    8  A    between atoms: C16_21  and  S1_22 
REMARK    9  A    between atoms: S1_22  and  C17_24 
ROOT
HETATM    1  C4  UNL     1      23.727   0.051  53.389  1.00  0.00     0.111 C 
HETATM    2  N2  UNL     1      24.720  -0.129  54.068  1.00  0.00    -0.175 NA
HETATM    3  C5  UNL     1      25.256  -0.950  55.076  1.00  0.00     0.205 A 
HETATM    4  N3  UNL     1      26.150  -0.774  54.258  1.00  0.00    -0.219 NA
HETATM    5  C6  UNL     1      26.895  -0.432  53.248  1.00  0.00     0.116 C 
HETATM    6  C7  UNL     1      27.918   0.578  52.993  1.00  0.00     0.020 C 
HETATM    7  C9  UNL     1      27.596   2.041  52.940  1.00  0.00     0.072 C 
HETATM    8  C10 UNL     1      26.438   2.277  51.898  1.00  0.00     0.054 A 
HETATM    9  C11 UNL     1      25.605   1.495  52.611  1.00  0.00     0.050 A 
HETATM   10  C12 UNL     1      24.337   1.079  52.486  1.00  0.00     0.037 A 
HETATM   11  C13 UNL     1      24.329   1.820  51.345  1.00  0.00     0.095 A 
HETATM   12  O2  UNL     1      25.466   2.478  51.019  1.00  0.00    -0.317 OA
ENDROOT
BRANCH  11  13
HETATM   13  C14 UNL     1      23.028   1.796  50.599  1.00  0.00     0.335 C 
BRANCH  13  14
HETATM   14  N4  UNL     1      23.056   2.953  49.655  1.00  0.00     0.090 N 
HETATM   15  H18 UNL     1      23.995   3.362  49.612  1.00  0.00     0.316 HD
BRANCH  14  16
HETATM   16  C15 UNL     1      22.163   3.979  50.151  1.00  0.00     0.282 C 
BRANCH  16  17
HETATM   17  C16 UNL     1      22.588   5.299  49.472  1.00  0.00     0.141 C 
BRANCH  17  18
HETATM   18  S1  UNL     1      23.831   6.018  50.567  1.00  0.00     0.045 S 
HETATM   19  O1  UNL     1      23.764   5.223  51.869  1.00  0.00    -0.256 OA
BRANCH  18  20
HETATM   20  C17 UNL     1      25.492   5.768  49.914  1.00  0.00     0.330 C 
HETATM   21  F1  UNL     1      25.485   4.931  48.806  1.00  0.00    -0.242 F 
ENDBRANCH  18  20
ENDBRANCH  17  18
ENDBRANCH  16  17
ENDBRANCH  14  16
ENDBRANCH  13  14
ENDBRANCH  11  13
BRANCH   1  22
HETATM   22  N1  UNL     1      22.411  -0.259  52.988  1.00  0.00    -0.355 N 
HETATM   23  H6  UNL     1      22.116   0.343  52.226  1.00  0.00     0.166 HD
BRANCH  22  24
HETATM   24  C3  UNL     1      22.013  -1.359  53.864  1.00  0.00     0.085 C 
HETATM   25  C2  UNL     1      20.772  -1.516  54.158  1.00  0.00    -0.014 C 
HETATM   26  C1  UNL     1      20.097  -0.373  53.403  1.00  0.00     0.037 C 
ENDBRANCH  22  24
ENDBRANCH   1  22
BRANCH   6  27
HETATM   27  C8  UNL     1      29.233   0.396  53.782  1.00  0.00     0.120 C 
HETATM   28 CL1  UNL     1      29.772  -1.269  53.540  1.00  0.00    -0.130 Cl
ENDBRANCH   6  27
TORSDOF 9
ENDMDL
MODEL 4
REMARK VINA RESULT:      -7.1      4.214      7.398
REMARK  9 active torsions:
REMARK  status: ('A' for Active; 'I' for Inactive)
REMARK    1  A    between atoms: C3_3  and  N1_4 
REMARK    2  A    between atoms: N1_4  and  C4_5 
REMARK    3  A    between atoms: C7_10  and  C8_11 
REMARK    4  A    between atoms: C13_17  and  C14_18 
REMARK    5  A    between atoms: C14_18  and  N4_19 
REMARK    6  A    between atoms: N4_19  and  C15_20 
REMARK    7  A    between atoms: C15_20  and  C16_21 
REMARK    8  A    between atoms: C16_21  and  S1_22 
REMARK    9  A    between atoms: S1_22  and  C17_24 
ROOT
HETATM    1  C4  UNL     1      23.883   0.348  53.317  1.00  0.00     0.111 C 
HETATM    2  N2  UNL     1      24.839   0.040  54.002  1.00  0.00    -0.175 NA
HETATM    3  C5  UNL     1      25.271  -0.873  54.979  1.00  0.00     0.205 A 
HETATM    4  N3  UNL     1      26.193  -0.753  54.184  1.00  0.00    -0.219 NA
HETATM    5  C6  UNL     1      26.988  -0.444  53.201  1.00  0.00     0.116 C 
HETATM    6  C7  UNL     1      28.112   0.467  53.007  1.00  0.00     0.020 C 
HETATM    7  C9  UNL     1      27.938   1.956  53.015  1.00  0.00     0.072 C 
HETATM    8  C10 UNL     1      26.830   2.352  51.967  1.00  0.00     0.054 A 
HETATM    9  C11 UNL     1      25.910   1.627  52.631  1.00  0.00     0.050 A 
HETATM   10  C12 UNL     1      24.609   1.347  52.470  1.00  0.00     0.037 A 
HETATM   11  C13 UNL     1      24.697   2.133  51.363  1.00  0.00     0.095 A 
HETATM   12  O2  UNL     1      25.900   2.687  51.084  1.00  0.00    -0.317 OA
ENDROOT
BRANCH  11  13
HETATM   13  C14 UNL     1      23.415   2.273  50.597  1.00  0.00     0.335 C 
BRANCH  13  14
HETATM   14  N4  UNL     1      23.072   3.727  50.598  1.00  0.00     0.090 N 
HETATM   15  H18 UNL     1      23.924   4.298  50.640  1.00  0.00     0.316 HD
BRANCH  14  16
HETATM   16  C15 UNL     1      22.299   4.021  51.785  1.00  0.00     0.282 C 
BRANCH  16  17
HETATM   17  C16 UNL     1      20.868   4.352  51.309  1.00  0.00     0.141 C 
BRANCH  17  18
HETATM   18  S1  UNL     1      19.849   2.972  51.872  1.00  0.00     0.045 S 
HETATM   19  O1  UNL     1      18.436   3.525  52.038  1.00  0.00    -0.256 OA
BRANCH  18  20
HETATM   20  C17 UNL     1      19.738   1.690  50.609  1.00  0.00     0.330 C 
HETATM   21  F1  UNL     1      19.764   0.418  51.168  1.00  0.00    -0.242 F 
ENDBRANCH  18  20
ENDBRANCH  17  18
ENDBRANCH  16  17
ENDBRANCH  14  16
ENDBRANCH  13  14
ENDBRANCH  11  13
BRANCH   1  22
HETATM   22  N1  UNL     1      22.550   0.189  52.883  1.00  0.00    -0.355 N 
HETATM   23  H6  UNL     1      22.229   1.020  52.396  1.00  0.00     0.166 HD
BRANCH  22  24
HETATM   24  C3  UNL     1      22.180  -1.154  53.325  1.00  0.00     0.085 C 
HETATM   25  C2  UNL     1      21.197  -1.303  54.139  1.00  0.00    -0.014 C 
HETATM   26  C1  UNL     1      20.725   0.132  54.369  1.00  0.00     0.037 C 
ENDBRANCH  22  24
ENDBRANCH   1  22
BRANCH   6  27
HETATM   27  C8  UNL     1      29.387   0.120  53.806  1.00  0.00     0.120 C 
HETATM   28 CL1  UNL     1      29.737  -1.589  53.534  1.00  0.00    -0.130 Cl
ENDBRANCH   6  27
TORSDOF 9
ENDMDL
MODEL 5
REMARK VINA RESULT:      -7.0      5.107      7.941
REMARK  9 active torsions:
REMARK  status: ('A' for Active; 'I' for Inactive)
REMARK    1  A    between atoms: C3_3  and  N1_4 
REMARK    2  A    between atoms: N1_4  and  C4_5 
REMARK    3  A    between atoms: C7_10  and  C8_11 
REMARK    4  A    between atoms: C13_17  and  C14_18 
REMARK    5  A    between atoms: C14_18  and  N4_19 
REMARK    6  A    between atoms: N4_19  and  C15_20 
REMARK    7  A    between atoms: C15_20  and  C16_21 
REMARK    8  A    between atoms: C16_21  and  S1_22 
REMARK    9  A    between atoms: S1_22  and  C17_24 
ROOT
HETATM    1  C4  UNL     1      24.812   6.183  49.418  1.00  0.00     0.111 C 
HETATM    2  N2  UNL     1      25.147   7.283  49.022  1.00  0.00    -0.175 NA
HETATM    3  C5  UNL     1      24.755   8.632  48.993  1.00  0.00     0.205 A 
HETATM    4  N3  UNL     1      25.956   8.624  49.228  1.00  0.00    -0.219 NA
HETATM    5  C6  UNL     1      27.199   8.324  49.468  1.00  0.00     0.116 C 
HETATM    6  C7  UNL     1      28.434   8.269  48.690  1.00  0.00     0.020 C 
HETATM    7  C9  UNL     1      28.648   7.251  47.610  1.00  0.00     0.072 C 
HETATM    8  C10 UNL     1      28.405   5.812  48.202  1.00  0.00     0.054 A 
HETATM    9  C11 UNL     1      27.130   6.124  48.501  1.00  0.00     0.050 A 
HETATM   10  C12 UNL     1      26.094   5.491  49.070  1.00  0.00     0.037 A 
HETATM   11  C13 UNL     1      26.947   4.436  49.173  1.00  0.00     0.095 A 
HETATM   12  O2  UNL     1      28.205   4.600  48.700  1.00  0.00    -0.317 OA
ENDROOT
BRANCH  11  13
HETATM   13  C14 UNL     1      26.350   3.216  49.810  1.00  0.00     0.335 C 
BRANCH  13  14
HETATM   14  N4  UNL     1      26.794   3.218  51.236  1.00  0.00     0.090 N 
HETATM   15  H18 UNL     1      27.781   2.946  51.308  1.00  0.00     0.316 HD
BRANCH  14  16
HETATM   16  C15 UNL     1      26.024   2.233  51.965  1.00  0.00     0.282 C 
BRANCH  16  17
HETATM   17  C16 UNL     1      26.979   1.058  52.262  1.00  0.00     0.141 C 
BRANCH  17  18
HETATM   18  S1  UNL     1      28.318   1.769  53.241  1.00  0.00     0.045 S 
HETATM   19  O1  UNL     1      27.665   2.762  54.200  1.00  0.00    -0.256 OA
BRANCH  18  20
HETATM   20  C17 UNL     1      29.101   0.518  54.277  1.00  0.00     0.330 C 
HETATM   21  F1  UNL     1      28.168  -0.159  55.053  1.00  0.00    -0.242 F 
ENDBRANCH  18  20
ENDBRANCH  17  18
ENDBRANCH  16  17
ENDBRANCH  14  16
ENDBRANCH  13  14
ENDBRANCH  11  13
BRANCH   1  22
HETATM   22  N1  UNL     1      23.926   5.305  50.076  1.00  0.00    -0.355 N 
HETATM   23  H6  UNL     1      23.498   4.664  49.416  1.00  0.00     0.166 HD
BRANCH  22  24
HETATM   24  C3  UNL     1      24.003   5.696  51.483  1.00  0.00     0.085 C 
HETATM   25  C2  UNL     1      23.392   4.993  52.369  1.00  0.00    -0.014 C 
HETATM   26  C1  UNL     1      22.740   3.891  51.537  1.00  0.00     0.037 C 
ENDBRANCH  22  24
ENDBRANCH   1  22
BRANCH   6  27
HETATM   27  C8  UNL     1      28.956   9.633  48.187  1.00  0.00     0.120 C 
HETATM   28 CL1  UNL     1      27.885  10.166  46.888  1.00  0.00    -0.130 Cl
ENDBRANCH   6  27
TORSDOF 9
ENDMDL
MODEL 6
REMARK VINA RESULT:      -6.9      4.445      7.210
REMARK  9 active torsions:
REMARK  status: ('A' for Active; 'I' for Inactive)
REMARK    1  A    between atoms: C3_3  and  N1_4 
REMARK    2  A    between atoms: N1_4  and  C4_5 
REMARK    3  A    between atoms: C7_10  and  C8_11 
REMARK    4  A    between atoms: C13_17  and  C14_18 
REMARK    5  A    between atoms: C14_18  and  N4_19 
REMARK    6  A    between atoms: N4_19  and  C15_20 
REMARK    7  A    between atoms: C15_20  and  C16_21 
REMARK    8  A    between atoms: C16_21  and  S1_22 
REMARK    9  A    between atoms: S1_22  and  C17_24 
ROOT
HETATM    1  C4  UNL     1      24.498   2.202  51.450  1.00  0.00     0.111 C 
HETATM    2  N2  UNL     1      25.704   2.129  51.314  1.00  0.00    -0.175 NA
HETATM    3  C5  UNL     1      26.815   2.804  50.779  1.00  0.00     0.205 A 
HETATM    4  N3  UNL     1      27.161   2.378  51.872  1.00  0.00    -0.219 NA
HETATM    5  C6  UNL     1      27.253   1.825  53.047  1.00  0.00     0.116 C 
HETATM    6  C7  UNL     1      27.787   0.575  53.579  1.00  0.00     0.020 C 
HETATM    7  C9  UNL     1      27.160  -0.751  53.272  1.00  0.00     0.072 C 
HETATM    8  C10 UNL     1      25.631  -0.699  53.647  1.00  0.00     0.054 A 
HETATM    9  C11 UNL     1      25.423   0.293  52.762  1.00  0.00     0.050 A 
HETATM   10  C12 UNL     1      24.371   1.027  52.371  1.00  0.00     0.037 A 
HETATM   11  C13 UNL     1      23.669   0.286  53.270  1.00  0.00     0.095 A 
HETATM   12  O2  UNL     1      24.345  -0.658  53.966  1.00  0.00    -0.317 OA
ENDROOT
BRANCH  11  13
HETATM   13  C14 UNL     1      22.212   0.633  53.358  1.00  0.00     0.335 C 
BRANCH  13  14
HETATM   14  N4  UNL     1      21.482  -0.645  53.609  1.00  0.00     0.090 N 
HETATM   15  H18 UNL     1      21.689  -1.330  52.874  1.00  0.00     0.316 HD
BRANCH  14  16
HETATM   16  C15 UNL     1      20.059  -0.383  53.563  1.00  0.00     0.282 C 
BRANCH  16  17
HETATM   17  C16 UNL     1      19.726  -0.009  52.103  1.00  0.00     0.141 C 
BRANCH  17  18
HETATM   18  S1  UNL     1      17.923   0.028  52.020  1.00  0.00     0.045 S 
HETATM   19  O1  UNL     1      17.552  -0.409  50.605  1.00  0.00    -0.256 OA
BRANCH  18  20
HETATM   20  C17 UNL     1      17.198  -1.198  53.126  1.00  0.00     0.330 C 
HETATM   21  F1  UNL     1      17.705  -2.469  52.882  1.00  0.00    -0.242 F 
ENDBRANCH  18  20
ENDBRANCH  17  18
ENDBRANCH  16  17
ENDBRANCH  14  16
ENDBRANCH  13  14
ENDBRANCH  11  13
BRANCH   1  22
HETATM   22  N1  UNL     1      23.252   2.838  51.267  1.00  0.00    -0.355 N 
HETATM   23  H6  UNL     1      22.662   2.300  50.640  1.00  0.00     0.166 HD
BRANCH  22  24
HETATM   24  C3  UNL     1      23.335   4.043  52.090  1.00  0.00     0.085 C 
HETATM   25  C2  UNL     1      22.259   4.679  52.389  1.00  0.00    -0.014 C 
HETATM   26  C1  UNL     1      21.174   3.854  51.700  1.00  0.00     0.037 C 
ENDBRANCH  22  24
ENDBRANCH   1  22
BRANCH   6  27
HETATM   27  C8  UNL     1      29.321   0.423  53.489  1.00  0.00     0.120 C 
HETATM   28 CL1  UNL     1      29.685  -1.305  53.482  1.00  0.00    -0.130 Cl
ENDBRANCH   6  27
TORSDOF 9
ENDMDL
MODEL 7
REMARK VINA RESULT:      -6.6      2.968      4.615
REMARK  9 active torsions:
REMARK  status: ('A' for Active; 'I' for Inactive)
REMARK    1  A    between atoms: C3_3  and  N1_4 
REMARK    2  A    between atoms: N1_4  and  C4_5 
REMARK    3  A    between atoms: C7_10  and  C8_11 
REMARK    4  A    between atoms: C13_17  and  C14_18 
REMARK    5  A    between atoms: C14_18  and  N4_19 
REMARK    6  A    between atoms: N4_19  and  C15_20 
REMARK    7  A    between atoms: C15_20  and  C16_21 
REMARK    8  A    between atoms: C16_21  and  S1_22 
REMARK    9  A    between atoms: S1_22  and  C17_24 
ROOT
HETATM    1  C4  UNL     1      22.087   0.645  51.610  1.00  0.00     0.111 C 
HETATM    2  N2  UNL     1      21.510   1.276  50.744  1.00  0.00    -0.175 NA
HETATM    3  C5  UNL     1      20.255   1.460  50.140  1.00  0.00     0.205 A 
HETATM    4  N3  UNL     1      20.741   2.575  50.281  1.00  0.00    -0.219 NA
HETATM    5  C6  UNL     1      21.478   3.611  50.553  1.00  0.00     0.116 C 
HETATM    6  C7  UNL     1      22.391   4.475  49.809  1.00  0.00     0.020 C 
HETATM    7  C9  UNL     1      23.705   3.979  49.287  1.00  0.00     0.072 C 
HETATM    8  C10 UNL     1      24.526   3.345  50.473  1.00  0.00     0.054 A 
HETATM    9  C11 UNL     1      23.565   2.424  50.677  1.00  0.00     0.050 A 
HETATM   10  C12 UNL     1      23.374   1.408  51.531  1.00  0.00     0.037 A 
HETATM   11  C13 UNL     1      24.584   1.764  52.042  1.00  0.00     0.095 A 
HETATM   12  O2  UNL     1      25.219   2.814  51.470  1.00  0.00    -0.317 OA
ENDROOT
BRANCH  11  13
HETATM   13  C14 UNL     1      25.044   0.918  53.192  1.00  0.00     0.335 C 
BRANCH  13  14
HETATM   14  N4  UNL     1      25.556  -0.357  52.606  1.00  0.00     0.090 N 
HETATM   15  H18 UNL     1      24.807  -1.056  52.552  1.00  0.00     0.316 HD
BRANCH  14  16
HETATM   16  C15 UNL     1      26.578  -0.892  53.481  1.00  0.00     0.282 C 
BRANCH  16  17
HETATM   17  C16 UNL     1      26.793   0.151  54.598  1.00  0.00     0.141 C 
BRANCH  17  18
HETATM   18  S1  UNL     1      28.584   0.350  54.725  1.00  0.00     0.045 S 
HETATM   19  O1  UNL     1      29.195  -0.688  53.786  1.00  0.00    -0.256 OA
BRANCH  18  20
HETATM   20  C17 UNL     1      29.104   1.958  54.097  1.00  0.00     0.330 C 
HETATM   21  F1  UNL     1      28.015   2.749  53.753  1.00  0.00    -0.242 F 
ENDBRANCH  18  20
ENDBRANCH  17  18
ENDBRANCH  16  17
ENDBRANCH  14  16
ENDBRANCH  13  14
ENDBRANCH  11  13
BRANCH   1  22
HETATM   22  N1  UNL     1      22.130  -0.314  52.643  1.00  0.00    -0.355 N 
HETATM   23  H6  UNL     1      22.722  -1.097  52.382  1.00  0.00     0.166 HD
BRANCH  22  24
HETATM   24  C3  UNL     1      21.282   0.244  53.694  1.00  0.00     0.085 C 
HETATM   25  C2  UNL     1      21.332  -0.253  54.878  1.00  0.00    -0.014 C 
HETATM   26  C1  UNL     1      22.373  -1.362  54.736  1.00  0.00     0.037 C 
ENDBRANCH  22  24
ENDBRANCH   1  22
BRANCH   6  27
HETATM   27  C8  UNL     1      21.730   5.347  48.719  1.00  0.00     0.120 C 
HETATM   28 CL1  UNL     1      22.858   5.452  47.365  1.00  0.00    -0.130 Cl
ENDBRANCH   6  27
TORSDOF 9
ENDMDL
MODEL 8
REMARK VINA RESULT:      -6.4      4.477      7.053
REMARK  9 active torsions:
REMARK  status: ('A' for Active; 'I' for Inactive)
REMARK    1  A    between atoms: C3_3  and  N1_4 
REMARK    2  A    between atoms: N1_4  and  C4_5 
REMARK    3  A    between atoms: C7_10  and  C8_11 
REMARK    4  A    between atoms: C13_17  and  C14_18 
REMARK    5  A    between atoms: C14_18  and  N4_19 
REMARK    6  A    between atoms: N4_19  and  C15_20 
REMARK    7  A    between atoms: C15_20  and  C16_21 
REMARK    8  A    between atoms: C16_21  and  S1_22 
REMARK    9  A    between atoms: S1_22  and  C17_24 
ROOT
HETATM    1  C4  UNL     1      23.800   1.225  52.096  1.00  0.00     0.111 C 
HETATM    2  N2  UNL     1      24.350   0.587  52.972  1.00  0.00    -0.175 NA
HETATM    3  C5  UNL     1      24.172  -0.497  53.850  1.00  0.00     0.205 A 
HETATM    4  N3  UNL     1      25.311  -0.587  53.413  1.00  0.00    -0.219 NA
HETATM    5  C6  UNL     1      26.448  -0.443  52.795  1.00  0.00     0.116 C 
HETATM    6  C7  UNL     1      27.760   0.105  53.127  1.00  0.00     0.020 C 
HETATM    7  C9  UNL     1      27.974   1.571  53.354  1.00  0.00     0.072 C 
HETATM    8  C10 UNL     1      27.435   2.371  52.108  1.00  0.00     0.054 A 
HETATM    9  C11 UNL     1      26.191   1.898  52.313  1.00  0.00     0.050 A 
HETATM   10  C12 UNL     1      25.001   2.033  51.711  1.00  0.00     0.037 A 
HETATM   11  C13 UNL     1      25.662   2.853  50.849  1.00  0.00     0.095 A 
HETATM   12  O2  UNL     1      26.985   3.045  51.059  1.00  0.00    -0.317 OA
ENDROOT
BRANCH  11  13
HETATM   13  C14 UNL     1      24.803   3.436  49.766  1.00  0.00     0.335 C 
BRANCH  13  14
HETATM   14  N4  UNL     1      24.753   4.909  50.006  1.00  0.00     0.090 N 
HETATM   15  H18 UNL     1      23.787   5.252  49.946  1.00  0.00     0.316 HD
BRANCH  14  16
HETATM   16  C15 UNL     1      25.510   5.575  48.969  1.00  0.00     0.282 C 
BRANCH  16  17
HETATM   17  C16 UNL     1      24.602   6.690  48.406  1.00  0.00     0.141 C 
BRANCH  17  18
HETATM   18  S1  UNL     1      25.028   8.171  49.347  1.00  0.00     0.045 S 
HETATM   19  O1  UNL     1      24.421   7.984  50.735  1.00  0.00    -0.256 OA
BRANCH  18  20
HETATM   20  C17 UNL     1      26.810   8.291  49.595  1.00  0.00     0.330 C 
HETATM   21  F1  UNL     1      27.121   9.091  50.687  1.00  0.00    -0.242 F 
ENDBRANCH  18  20
ENDBRANCH  17  18
ENDBRANCH  16  17
ENDBRANCH  14  16
ENDBRANCH  13  14
ENDBRANCH  11  13
BRANCH   1  22
HETATM   22  N1  UNL     1      22.706   1.511  51.252  1.00  0.00    -0.355 N 
HETATM   23  H6  UNL     1      22.988   2.118  50.489  1.00  0.00     0.166 HD
BRANCH  22  24
HETATM   24  C3  UNL     1      21.588   0.781  51.847  1.00  0.00     0.085 C 
HETATM   25  C2  UNL     1      20.602   0.421  51.105  1.00  0.00    -0.014 C 
HETATM   26  C1  UNL     1      21.005   0.943  49.728  1.00  0.00     0.037 C 
ENDBRANCH  22  24
ENDBRANCH   1  22
BRANCH   6  27
HETATM   27  C8  UNL     1      28.548  -0.676  54.201  1.00  0.00     0.120 C 
HETATM   28 CL1  UNL     1      29.540  -1.875  53.366  1.00  0.00    -0.130 Cl
ENDBRANCH   6  27
TORSDOF 9
ENDMDL
MODEL 9
REMARK VINA RESULT:      -6.4      3.739      5.384
REMARK  9 active torsions:
REMARK  status: ('A' for Active; 'I' for Inactive)
REMARK    1  A    between atoms: C3_3  and  N1_4 
REMARK    2  A    between atoms: N1_4  and  C4_5 
REMARK    3  A    between atoms: C7_10  and  C8_11 
REMARK    4  A    between atoms: C13_17  and  C14_18 
REMARK    5  A    between atoms: C14_18  and  N4_19 
REMARK    6  A    between atoms: N4_19  and  C15_20 
REMARK    7  A    between atoms: C15_20  and  C16_21 
REMARK    8  A    between atoms: C16_21  and  S1_22 
REMARK    9  A    between atoms: S1_22  and  C17_24 
ROOT
HETATM    1  C4  UNL     1      24.752   0.381  53.398  1.00  0.00     0.111 C 
HETATM    2  N2  UNL     1      23.749  -0.258  53.652  1.00  0.00    -0.175 NA
HETATM    3  C5  UNL     1      23.165  -1.088  54.625  1.00  0.00     0.205 A 
HETATM    4  N3  UNL     1      22.284  -0.329  54.240  1.00  0.00    -0.219 NA
HETATM    5  C6  UNL     1      21.562   0.587  53.664  1.00  0.00     0.116 C 
HETATM    6  C7  UNL     1      20.598   0.628  52.568  1.00  0.00     0.020 C 
HETATM    7  C9  UNL     1      21.004   0.393  51.144  1.00  0.00     0.072 C 
HETATM    8  C10 UNL     1      22.175   1.378  50.772  1.00  0.00     0.054 A 
HETATM    9  C11 UNL     1      22.960   0.843  51.726  1.00  0.00     0.050 A 
HETATM   10  C12 UNL     1      24.203   1.058  52.179  1.00  0.00     0.037 A 
HETATM   11  C13 UNL     1      24.256   2.031  51.229  1.00  0.00     0.095 A 
HETATM   12  O2  UNL     1      23.158   2.210  50.457  1.00  0.00    -0.317 OA
ENDROOT
BRANCH  11  13
HETATM   13  C14 UNL     1      25.555   2.779  51.178  1.00  0.00     0.335 C 
BRANCH  13  14
HETATM   14  N4  UNL     1      25.683   3.319  49.791  1.00  0.00     0.090 N 
HETATM   15  H18 UNL     1      26.476   2.884  49.306  1.00  0.00     0.316 HD
BRANCH  14  16
HETATM   16  C15 UNL     1      25.953   4.738  49.868  1.00  0.00     0.282 C 
BRANCH  16  17
HETATM   17  C16 UNL     1      24.716   5.455  49.287  1.00  0.00     0.141 C 
BRANCH  17  18
HETATM   18  S1  UNL     1      23.841   6.129  50.715  1.00  0.00     0.045 S 
HETATM   19  O1  UNL     1      24.301   7.578  50.852  1.00  0.00    -0.256 OA
BRANCH  18  20
HETATM   20  C17 UNL     1      22.065   6.196  50.415  1.00  0.00     0.330 C 
HETATM   21  F1  UNL     1      21.425   7.035  51.320  1.00  0.00    -0.242 F 
ENDBRANCH  18  20
ENDBRANCH  17  18
ENDBRANCH  16  17
ENDBRANCH  14  16
ENDBRANCH  13  14
ENDBRANCH  11  13
BRANCH   1  22
HETATM   22  N1  UNL     1      26.049   0.848  53.696  1.00  0.00    -0.355 N 
HETATM   23  H6  UNL     1      26.011   1.629  54.343  1.00  0.00     0.166 HD
BRANCH  22  24
HETATM   24  C3  UNL     1      26.935  -0.025  52.927  1.00  0.00     0.085 C 
HETATM   25  C2  UNL     1      28.055  -0.395  53.435  1.00  0.00    -0.014 C 
HETATM   26  C1  UNL     1      28.048   0.284  54.803  1.00  0.00     0.037 C 
ENDBRANCH  22  24
ENDBRANCH   1  22
BRANCH   6  27
HETATM   27  C8  UNL     1      19.273  -0.122  52.829  1.00  0.00     0.120 C 
HETATM   28 CL1  UNL     1      18.367  -0.144  51.313  1.00  0.00    -0.130 Cl
ENDBRANCH   6  27
TORSDOF 9
ENDMDL
