MODEL 1
REMARK VINA RESULT:      -8.6      0.000      0.000
REMARK  3 active torsions:
REMARK  status: ('A' for Active; 'I' for Inactive)
REMARK    1  A    between atoms: C2_2  and  O1_4 
REMARK    2  A    between atoms: O1_4  and  C4_5 
REMARK    3  A    between atoms: C12_14  and  C13_15 
ROOT
HETATM    1  C4  UNL     1      20.565   0.383  52.932  1.00  0.00     0.080 A 
HETATM    2  C5  UNL     1      21.013   1.397  52.145  1.00  0.00     0.070 A 
HETATM    3  C6  UNL     1      22.365   1.742  52.019  1.00  0.00     0.076 A 
HETATM    4  C7  UNL     1      23.334   1.051  52.702  1.00  0.00     0.052 A 
HETATM    5  C8  UNL     1      22.920   0.014  53.513  1.00  0.00     0.092 A 
HETATM    6  C9  UNL     1      21.566  -0.314  53.626  1.00  0.00     0.012 A 
HETATM    7  C10 UNL     1      21.367  -1.477  54.565  1.00  0.00     0.071 C 
HETATM    8  C11 UNL     1      22.692  -1.390  55.333  1.00  0.00     0.180 C 
HETATM    9  O2  UNL     1      23.565  -0.892  54.339  1.00  0.00    -0.349 OA
HETATM   10  C12 UNL     1      24.679   1.342  52.627  1.00  0.00     0.062 A 
HETATM   11  N1  UNL     1      25.225   2.325  51.888  1.00  0.00    -0.232 NA
HETATM   12  P1  UNL     1      24.162   3.280  50.975  1.00  0.00     0.209 P 
HETATM   13  N2  UNL     1      22.549   2.795  51.178  1.00  0.00    -0.229 NA
ENDROOT
BRANCH  10  14
HETATM   14  C13 UNL     1      25.767   0.623  53.334  1.00  0.00     0.085 C 
HETATM   15  C14 UNL     1      26.463  -0.328  52.366  1.00  0.00    -0.016 C 
HETATM   16  C15 UNL     1      27.639  -0.844  52.708  1.00  0.00    -0.024 C 
HETATM   17  C16 UNL     1      28.173  -0.422  54.052  1.00  0.00     0.077 C 
HETATM   18  C17 UNL     1      28.056   1.071  54.065  1.00  0.00     0.012 C 
HETATM   19 CL1  UNL     1      29.419   2.081  54.525  1.00  0.00    -0.089 Cl
HETATM   20  C18 UNL     1      26.878   1.575  53.713  1.00  0.00     0.008 C 
ENDBRANCH  10  14
BRANCH   1  21
HETATM   21  O1  UNL     1      19.276  -0.014  53.110  1.00  0.00    -0.346 OA
BRANCH  21  22
HETATM   22  C2  UNL     1      18.505  -0.850  52.318  1.00  0.00     0.120 C 
HETATM   23  C1  UNL     1      17.663   0.061  51.413  1.00  0.00     0.040 C 
HETATM   24  C3  UNL     1      17.493  -1.650  53.116  1.00  0.00     0.040 C 
ENDBRANCH  21  22
ENDBRANCH   1  21
TORSDOF 3
ENDMDL
MODEL 2
REMARK VINA RESULT:      -8.3      3.813      7.334
REMARK  3 active torsions:
REMARK  status: ('A' for Active; 'I' for Inactive)
REMARK    1  A    between atoms: C2_2  and  O1_4 
REMARK    2  A    between atoms: O1_4  and  C4_5 
REMARK    3  A    between atoms: C12_14  and  C13_15 
ROOT
HETATM    1  C4  UNL     1      26.445   0.359  52.971  1.00  0.00     0.080 A 
HETATM    2  C5  UNL     1      25.574  -0.331  53.752  1.00  0.00     0.070 A 
HETATM    3  C6  UNL     1      24.181  -0.228  53.639  1.00  0.00     0.076 A 
HETATM    4  C7  UNL     1      23.611   0.598  52.704  1.00  0.00     0.052 A 
HETATM    5  C8  UNL     1      24.462   1.318  51.891  1.00  0.00     0.092 A 
HETATM    6  C9  UNL     1      25.849   1.201  52.020  1.00  0.00     0.012 A 
HETATM    7  C10 UNL     1      26.562   2.082  51.024  1.00  0.00     0.071 C 
HETATM    8  C11 UNL     1      25.420   3.059  50.715  1.00  0.00     0.180 C 
HETATM    9  O2  UNL     1      24.286   2.229  50.862  1.00  0.00    -0.349 OA
HETATM   10  C12 UNL     1      22.250   0.750  52.545  1.00  0.00     0.062 A 
HETATM   11  N1  UNL     1      21.304   0.123  53.267  1.00  0.00    -0.232 NA
HETATM   12  P1  UNL     1      21.840  -0.943  54.473  1.00  0.00     0.209 P 
HETATM   13  N2  UNL     1      23.533  -1.016  54.540  1.00  0.00    -0.229 NA
ENDROOT
BRANCH  10  14
HETATM   14  C13 UNL     1      21.581   1.620  51.545  1.00  0.00     0.085 C 
HETATM   15  C14 UNL     1      21.167   0.784  50.339  1.00  0.00    -0.016 C 
HETATM   16  C15 UNL     1      20.302   1.297  49.470  1.00  0.00    -0.024 C 
HETATM   17  C16 UNL     1      19.810   2.688  49.780  1.00  0.00     0.077 C 
HETATM   18  C17 UNL     1      19.385   2.639  51.215  1.00  0.00     0.012 C 
HETATM   19 CL1  UNL     1      17.813   3.247  51.713  1.00  0.00    -0.089 Cl
HETATM   20  C18 UNL     1      20.255   2.115  52.073  1.00  0.00     0.008 C 
ENDBRANCH  10  14
BRANCH   1  21
HETATM   21  O1  UNL     1      27.805   0.316  53.016  1.00  0.00    -0.346 OA
BRANCH  21  22
HETATM   22  C2  UNL     1      28.632   0.038  54.093  1.00  0.00     0.120 C 
HETATM   23  C1  UNL     1      29.298   1.364  54.485  1.00  0.00     0.040 C 
HETATM   24  C3  UNL     1      29.781  -0.883  53.731  1.00  0.00     0.040 C 
ENDBRANCH  21  22
ENDBRANCH   1  21
TORSDOF 3
ENDMDL
MODEL 3
REMARK VINA RESULT:      -8.2      3.562      4.975
REMARK  3 active torsions:
REMARK  status: ('A' for Active; 'I' for Inactive)
REMARK    1  A    between atoms: C2_2  and  O1_4 
REMARK    2  A    between atoms: O1_4  and  C4_5 
REMARK    3  A    between atoms: C12_14  and  C13_15 
ROOT
HETATM    1  C4  UNL     1      23.009   3.329  50.216  1.00  0.00     0.080 A 
HETATM    2  C5  UNL     1      22.363   2.370  50.929  1.00  0.00     0.070 A 
HETATM    3  C6  UNL     1      23.017   1.429  51.736  1.00  0.00     0.076 A 
HETATM    4  C7  UNL     1      24.385   1.432  51.850  1.00  0.00     0.052 A 
HETATM    5  C8  UNL     1      25.079   2.390  51.141  1.00  0.00     0.092 A 
HETATM    6  C9  UNL     1      24.407   3.319  50.341  1.00  0.00     0.012 A 
HETATM    7  C10 UNL     1      25.378   4.259  49.671  1.00  0.00     0.071 C 
HETATM    8  C11 UNL     1      26.648   3.406  49.785  1.00  0.00     0.180 C 
HETATM    9  O2  UNL     1      26.418   2.712  50.994  1.00  0.00    -0.349 OA
HETATM   10  C12 UNL     1      25.090   0.532  52.621  1.00  0.00     0.062 A 
HETATM   11  N1  UNL     1      24.551  -0.457  53.357  1.00  0.00    -0.232 NA
HETATM   12  P1  UNL     1      22.861  -0.601  53.328  1.00  0.00     0.209 P 
HETATM   13  N2  UNL     1      22.146   0.575  52.337  1.00  0.00    -0.229 NA
ENDROOT
BRANCH  10  14
HETATM   14  C13 UNL     1      26.564   0.496  52.789  1.00  0.00     0.085 C 
HETATM   15  C14 UNL     1      26.925   0.908  54.211  1.00  0.00    -0.016 C 
HETATM   16  C15 UNL     1      28.152   0.662  54.659  1.00  0.00    -0.024 C 
HETATM   17  C16 UNL     1      29.080  -0.016  53.684  1.00  0.00     0.077 C 
HETATM   18  C17 UNL     1      28.302  -1.182  53.156  1.00  0.00     0.012 C 
HETATM   19 CL1  UNL     1      29.000  -2.795  53.125  1.00  0.00    -0.089 Cl
HETATM   20  C18 UNL     1      27.073  -0.925  52.720  1.00  0.00     0.008 C 
ENDBRANCH  10  14
BRANCH   1  21
HETATM   21  O1  UNL     1      22.452   4.275  49.412  1.00  0.00    -0.346 OA
BRANCH  21  22
HETATM   22  C2  UNL     1      21.784   5.437  49.768  1.00  0.00     0.120 C 
HETATM   23  C1  UNL     1      22.428   6.573  48.960  1.00  0.00     0.040 C 
HETATM   24  C3  UNL     1      21.999   5.820  51.219  1.00  0.00     0.040 C 
ENDBRANCH  21  22
ENDBRANCH   1  21
TORSDOF 3
ENDMDL
MODEL 4
REMARK VINA RESULT:      -7.9      3.188      6.762
REMARK  3 active torsions:
REMARK  status: ('A' for Active; 'I' for Inactive)
REMARK    1  A    between atoms: C2_2  and  O1_4 
REMARK    2  A    between atoms: O1_4  and  C4_5 
REMARK    3  A    between atoms: C12_14  and  C13_15 
ROOT
HETATM    1  C4  UNL     1      26.912   0.163  53.073  1.00  0.00     0.080 A 
HETATM    2  C5  UNL     1      27.188   1.102  52.130  1.00  0.00     0.070 A 
HETATM    3  C6  UNL     1      26.223   1.953  51.575  1.00  0.00     0.076 A 
HETATM    4  C7  UNL     1      24.911   1.880  51.971  1.00  0.00     0.052 A 
HETATM    5  C8  UNL     1      24.589   0.939  52.926  1.00  0.00     0.092 A 
HETATM    6  C9  UNL     1      25.566   0.099  53.466  1.00  0.00     0.012 A 
HETATM    7  C10 UNL     1      24.971  -0.839  54.488  1.00  0.00     0.071 C 
HETATM    8  C11 UNL     1      23.503  -0.761  54.051  1.00  0.00     0.180 C 
HETATM    9  O2  UNL     1      23.418   0.563  53.566  1.00  0.00    -0.349 OA
HETATM   10  C12 UNL     1      23.913   2.682  51.462  1.00  0.00     0.062 A 
HETATM   11  N1  UNL     1      24.076   3.633  50.524  1.00  0.00    -0.232 NA
HETATM   12  P1  UNL     1      25.647   3.857  49.924  1.00  0.00     0.209 P 
HETATM   13  N2  UNL     1      26.754   2.796  50.649  1.00  0.00    -0.229 NA
ENDROOT
BRANCH  10  14
HETATM   14  C13 UNL     1      22.483   2.653  51.860  1.00  0.00     0.085 C 
HETATM   15  C14 UNL     1      21.887   4.049  51.718  1.00  0.00    -0.016 C 
HETATM   16  C15 UNL     1      20.565   4.187  51.737  1.00  0.00    -0.024 C 
HETATM   17  C16 UNL     1      19.777   2.912  51.902  1.00  0.00     0.077 C 
HETATM   18  C17 UNL     1      20.348   1.969  50.889  1.00  0.00     0.012 C 
HETATM   19 CL1  UNL     1      19.303   1.082  49.789  1.00  0.00    -0.089 Cl
HETATM   20  C18 UNL     1      21.671   1.847  50.873  1.00  0.00     0.008 C 
ENDBRANCH  10  14
BRANCH   1  21
HETATM   21  O1  UNL     1      27.786  -0.699  53.659  1.00  0.00    -0.346 OA
BRANCH  21  22
HETATM   22  C2  UNL     1      28.939  -1.262  53.134  1.00  0.00     0.120 C 
HETATM   23  C1  UNL     1      28.754  -2.784  53.212  1.00  0.00     0.040 C 
HETATM   24  C3  UNL     1      30.170  -0.975  53.972  1.00  0.00     0.040 C 
ENDBRANCH  21  22
ENDBRANCH   1  21
TORSDOF 3
ENDMDL
MODEL 5
REMARK VINA RESULT:      -7.4      2.770      3.794
REMARK  3 active torsions:
REMARK  status: ('A' for Active; 'I' for Inactive)
REMARK    1  A    between atoms: C2_2  and  O1_4 
REMARK    2  A    between atoms: O1_4  and  C4_5 
REMARK    3  A    between atoms: C12_14  and  C13_15 
ROOT
HETATM    1  C4  UNL     1      19.821   1.151  50.966  1.00  0.00     0.080 A 
HETATM    2  C5  UNL     1      19.839   0.334  52.052  1.00  0.00     0.070 A 
HETATM    3  C6  UNL     1      21.009  -0.015  52.741  1.00  0.00     0.076 A 
HETATM    4  C7  UNL     1      22.230   0.468  52.342  1.00  0.00     0.052 A 
HETATM    5  C8  UNL     1      22.254   1.300  51.243  1.00  0.00     0.092 A 
HETATM    6  C9  UNL     1      21.077   1.635  50.569  1.00  0.00     0.012 A 
HETATM    7  C10 UNL     1      21.360   2.555  49.406  1.00  0.00     0.071 C 
HETATM    8  C11 UNL     1      22.852   2.249  49.224  1.00  0.00     0.180 C 
HETATM    9  O2  UNL     1      23.251   1.969  50.550  1.00  0.00    -0.349 OA
HETATM   10  C12 UNL     1      23.417   0.160  52.971  1.00  0.00     0.062 A 
HETATM   11  N1  UNL     1      23.547  -0.641  54.045  1.00  0.00    -0.232 NA
HETATM   12  P1  UNL     1      22.126  -1.324  54.670  1.00  0.00     0.209 P 
HETATM   13  N2  UNL     1      20.759  -0.849  53.786  1.00  0.00    -0.229 NA
ENDROOT
BRANCH  10  14
HETATM   14  C13 UNL     1      24.761   0.660  52.590  1.00  0.00     0.085 C 
HETATM   15  C14 UNL     1      25.165   1.797  53.522  1.00  0.00    -0.016 C 
HETATM   16  C15 UNL     1      26.435   2.186  53.547  1.00  0.00    -0.024 C 
HETATM   17  C16 UNL     1      27.366   1.440  52.625  1.00  0.00     0.077 C 
HETATM   18  C17 UNL     1      27.092  -0.008  52.887  1.00  0.00     0.012 C 
HETATM   19 CL1  UNL     1      28.405  -1.134  53.200  1.00  0.00    -0.089 Cl
HETATM   20  C18 UNL     1      25.817  -0.383  52.869  1.00  0.00     0.008 C 
ENDBRANCH  10  14
BRANCH   1  21
HETATM   21  O1  UNL     1      18.734   1.537  50.243  1.00  0.00    -0.346 OA
BRANCH  21  22
HETATM   22  C2  UNL     1      17.558   2.122  50.684  1.00  0.00     0.120 C 
HETATM   23  C1  UNL     1      16.680   2.326  49.440  1.00  0.00     0.040 C 
HETATM   24  C3  UNL     1      17.766   3.515  51.246  1.00  0.00     0.040 C 
ENDBRANCH  21  22
ENDBRANCH   1  21
TORSDOF 3
ENDMDL
MODEL 6
REMARK VINA RESULT:      -7.4      3.971      5.703
REMARK  3 active torsions:
REMARK  status: ('A' for Active; 'I' for Inactive)
REMARK    1  A    between atoms: C2_2  and  O1_4 
REMARK    2  A    between atoms: O1_4  and  C4_5 
REMARK    3  A    between atoms: C12_14  and  C13_15 
ROOT
HETATM    1  C4  UNL     1      23.381   4.798  50.061  1.00  0.00     0.080 A 
HETATM    2  C5  UNL     1      22.543   3.972  50.742  1.00  0.00     0.070 A 
HETATM    3  C6  UNL     1      22.976   2.855  51.469  1.00  0.00     0.076 A 
HETATM    4  C7  UNL     1      24.308   2.532  51.533  1.00  0.00     0.052 A 
HETATM    5  C8  UNL     1      25.191   3.344  50.854  1.00  0.00     0.092 A 
HETATM    6  C9  UNL     1      24.739   4.453  50.134  1.00  0.00     0.012 A 
HETATM    7  C10 UNL     1      25.889   5.182  49.482  1.00  0.00     0.071 C 
HETATM    8  C11 UNL     1      26.925   4.051  49.501  1.00  0.00     0.180 C 
HETATM    9  O2  UNL     1      26.566   3.354  50.676  1.00  0.00    -0.349 OA
HETATM   10  C12 UNL     1      24.799   1.445  52.225  1.00  0.00     0.062 A 
HETATM   11  N1  UNL     1      24.059   0.564  52.923  1.00  0.00    -0.232 NA
HETATM   12  P1  UNL     1      22.383   0.820  52.949  1.00  0.00     0.209 P 
HETATM   13  N2  UNL     1      21.942   2.192  52.054  1.00  0.00    -0.229 NA
ENDROOT
BRANCH  10  14
HETATM   14  C13 UNL     1      26.227   1.055  52.336  1.00  0.00     0.085 C 
HETATM   15  C14 UNL     1      26.756   1.445  53.711  1.00  0.00    -0.016 C 
HETATM   16  C15 UNL     1      27.909   0.929  54.125  1.00  0.00    -0.024 C 
HETATM   17  C16 UNL     1      28.587  -0.011  53.163  1.00  0.00     0.077 C 
HETATM   18  C17 UNL     1      27.521  -0.977  52.747  1.00  0.00     0.012 C 
HETATM   19 CL1  UNL     1      27.801  -2.711  52.798  1.00  0.00    -0.089 Cl
HETATM   20  C18 UNL     1      26.369  -0.449  52.344  1.00  0.00     0.008 C 
ENDBRANCH  10  14
BRANCH   1  21
HETATM   21  O1  UNL     1      23.043   5.897  49.333  1.00  0.00    -0.346 OA
BRANCH  21  22
HETATM   22  C2  UNL     1      22.822   7.195  49.767  1.00  0.00     0.120 C 
HETATM   23  C1  UNL     1      21.300   7.368  49.866  1.00  0.00     0.040 C 
HETATM   24  C3  UNL     1      23.269   8.237  48.760  1.00  0.00     0.040 C 
ENDBRANCH  21  22
ENDBRANCH   1  21
TORSDOF 3
ENDMDL
MODEL 7
REMARK VINA RESULT:      -7.4      3.286      7.076
REMARK  3 active torsions:
REMARK  status: ('A' for Active; 'I' for Inactive)
REMARK    1  A    between atoms: C2_2  and  O1_4 
REMARK    2  A    between atoms: O1_4  and  C4_5 
REMARK    3  A    between atoms: C12_14  and  C13_15 
ROOT
HETATM    1  C4  UNL     1      24.167   0.444  53.010  1.00  0.00     0.080 A 
HETATM    2  C5  UNL     1      24.188   1.259  51.923  1.00  0.00     0.070 A 
HETATM    3  C6  UNL     1      23.035   1.678  51.245  1.00  0.00     0.076 A 
HETATM    4  C7  UNL     1      21.791   1.275  51.659  1.00  0.00     0.052 A 
HETATM    5  C8  UNL     1      21.726   0.446  52.759  1.00  0.00     0.092 A 
HETATM    6  C9  UNL     1      22.887   0.038  53.421  1.00  0.00     0.012 A 
HETATM    7  C10 UNL     1      22.560  -0.860  54.588  1.00  0.00     0.071 C 
HETATM    8  C11 UNL     1      21.155  -1.302  54.157  1.00  0.00     0.180 C 
HETATM    9  O2  UNL     1      20.697  -0.160  53.462  1.00  0.00    -0.349 OA
HETATM   10  C12 UNL     1      20.619   1.646  51.034  1.00  0.00     0.062 A 
HETATM   11  N1  UNL     1      20.529   2.440  49.951  1.00  0.00    -0.232 NA
HETATM   12  P1  UNL     1      21.983   3.029  49.308  1.00  0.00     0.209 P 
HETATM   13  N2  UNL     1      23.327   2.483  50.188  1.00  0.00    -0.229 NA
ENDROOT
BRANCH  10  14
HETATM   14  C13 UNL     1      19.249   1.250  51.444  1.00  0.00     0.085 C 
HETATM   15  C14 UNL     1      18.355   2.484  51.494  1.00  0.00    -0.016 C 
HETATM   16  C15 UNL     1      17.037   2.319  51.549  1.00  0.00    -0.024 C 
HETATM   17  C16 UNL     1      16.556   0.891  51.556  1.00  0.00     0.077 C 
HETATM   18  C17 UNL     1      17.277   0.233  50.421  1.00  0.00     0.012 C 
HETATM   19 CL1  UNL     1      16.406  -0.721  49.229  1.00  0.00    -0.089 Cl
HETATM   20  C18 UNL     1      18.593   0.412  50.371  1.00  0.00     0.008 C 
ENDBRANCH  10  14
BRANCH   1  21
HETATM   21  O1  UNL     1      25.235  -0.008  53.722  1.00  0.00    -0.346 OA
BRANCH  21  22
HETATM   22  C2  UNL     1      26.573  -0.034  53.364  1.00  0.00     0.120 C 
HETATM   23  C1  UNL     1      26.845  -1.434  52.797  1.00  0.00     0.040 C 
HETATM   24  C3  UNL     1      27.505   0.093  54.553  1.00  0.00     0.040 C 
ENDBRANCH  21  22
ENDBRANCH   1  21
TORSDOF 3
ENDMDL
MODEL 8
REMARK VINA RESULT:      -7.1      4.887      7.447
REMARK  3 active torsions:
REMARK  status: ('A' for Active; 'I' for Inactive)
REMARK    1  A    between atoms: C2_2  and  O1_4 
REMARK    2  A    between atoms: O1_4  and  C4_5 
REMARK    3  A    between atoms: C12_14  and  C13_15 
ROOT
HETATM    1  C4  UNL     1      25.134   5.489  49.009  1.00  0.00     0.080 A 
HETATM    2  C5  UNL     1      26.073   4.640  49.503  1.00  0.00     0.070 A 
HETATM    3  C6  UNL     1      25.773   3.546  50.326  1.00  0.00     0.076 A 
HETATM    4  C7  UNL     1      24.478   3.269  50.683  1.00  0.00     0.052 A 
HETATM    5  C8  UNL     1      23.495   4.108  50.202  1.00  0.00     0.092 A 
HETATM    6  C9  UNL     1      23.814   5.195  49.383  1.00  0.00     0.012 A 
HETATM    7  C10 UNL     1      22.575   5.959  48.988  1.00  0.00     0.071 C 
HETATM    8  C11 UNL     1      21.636   5.475  50.100  1.00  0.00     0.180 C 
HETATM    9  O2  UNL     1      22.116   4.167  50.331  1.00  0.00    -0.349 OA
HETATM   10  C12 UNL     1      24.116   2.214  51.492  1.00  0.00     0.062 A 
HETATM   11  N1  UNL     1      24.963   1.321  52.038  1.00  0.00    -0.232 NA
HETATM   12  P1  UNL     1      26.612   1.519  51.695  1.00  0.00     0.209 P 
HETATM   13  N2  UNL     1      26.889   2.858  50.690  1.00  0.00    -0.229 NA
ENDROOT
BRANCH  10  14
HETATM   14  C13 UNL     1      22.733   1.862  51.900  1.00  0.00     0.085 C 
HETATM   15  C14 UNL     1      22.132   0.897  50.885  1.00  0.00    -0.016 C 
HETATM   16  C15 UNL     1      21.027   0.233  51.207  1.00  0.00    -0.024 C 
HETATM   17  C16 UNL     1      20.472   0.513  52.580  1.00  0.00     0.077 C 
HETATM   18  C17 UNL     1      21.642   0.378  53.506  1.00  0.00     0.012 C 
HETATM   19 CL1  UNL     1      21.538  -0.609  54.956  1.00  0.00    -0.089 Cl
HETATM   20  C18 UNL     1      22.744   1.040  53.168  1.00  0.00     0.008 C 
ENDBRANCH  10  14
BRANCH   1  21
HETATM   21  O1  UNL     1      25.340   6.570  48.208  1.00  0.00    -0.346 OA
BRANCH  21  22
HETATM   22  C2  UNL     1      26.222   7.626  48.379  1.00  0.00     0.120 C 
HETATM   23  C1  UNL     1      25.834   8.307  49.699  1.00  0.00     0.040 C 
HETATM   24  C3  UNL     1      26.064   8.703  47.323  1.00  0.00     0.040 C 
ENDBRANCH  21  22
ENDBRANCH   1  21
TORSDOF 3
ENDMDL
MODEL 9
REMARK VINA RESULT:      -6.7      3.780      7.392
REMARK  3 active torsions:
REMARK  status: ('A' for Active; 'I' for Inactive)
REMARK    1  A    between atoms: C2_2  and  O1_4 
REMARK    2  A    between atoms: O1_4  and  C4_5 
REMARK    3  A    between atoms: C12_14  and  C13_15 
ROOT
HETATM    1  C4  UNL     1      24.417   0.690  53.203  1.00  0.00     0.080 A 
HETATM    2  C5  UNL     1      23.568  -0.171  53.823  1.00  0.00     0.070 A 
HETATM    3  C6  UNL     1      22.206  -0.279  53.510  1.00  0.00     0.076 A 
HETATM    4  C7  UNL     1      21.646   0.504  52.532  1.00  0.00     0.052 A 
HETATM    5  C8  UNL     1      22.474   1.393  51.880  1.00  0.00     0.092 A 
HETATM    6  C9  UNL     1      23.829   1.486  52.207  1.00  0.00     0.012 A 
HETATM    7  C10 UNL     1      24.523   2.524  51.359  1.00  0.00     0.071 C 
HETATM    8  C11 UNL     1      23.292   3.329  50.921  1.00  0.00     0.180 C 
HETATM    9  O2  UNL     1      22.298   2.326  50.871  1.00  0.00    -0.349 OA
HETATM   10  C12 UNL     1      20.314   0.452  52.181  1.00  0.00     0.062 A 
HETATM   11  N1  UNL     1      19.391  -0.356  52.733  1.00  0.00    -0.232 NA
HETATM   12  P1  UNL     1      19.919  -1.396  53.964  1.00  0.00     0.209 P 
HETATM   13  N2  UNL     1      21.576  -1.209  54.277  1.00  0.00    -0.229 NA
ENDROOT
BRANCH  10  14
HETATM   14  C13 UNL     1      19.659   1.266  51.126  1.00  0.00     0.085 C 
HETATM   15  C14 UNL     1      18.592   0.430  50.428  1.00  0.00    -0.016 C 
HETATM   16  C15 UNL     1      17.694   1.045  49.664  1.00  0.00    -0.024 C 
HETATM   17  C16 UNL     1      17.832   2.542  49.569  1.00  0.00     0.077 C 
HETATM   18  C17 UNL     1      17.955   3.012  50.985  1.00  0.00     0.012 C 
HETATM   19 CL1  UNL     1      16.958   4.325  51.593  1.00  0.00    -0.089 Cl
HETATM   20  C18 UNL     1      18.850   2.383  51.742  1.00  0.00     0.008 C 
ENDBRANCH  10  14
BRANCH   1  21
HETATM   21  O1  UNL     1      25.745   0.857  53.447  1.00  0.00    -0.346 OA
BRANCH  21  22
HETATM   22  C2  UNL     1      26.768  -0.076  53.373  1.00  0.00     0.120 C 
HETATM   23  C1  UNL     1      28.071   0.718  53.203  1.00  0.00     0.040 C 
HETATM   24  C3  UNL     1      26.681  -0.950  52.136  1.00  0.00     0.040 C 
ENDBRANCH  21  22
ENDBRANCH   1  21
TORSDOF 3
ENDMDL
