MODEL 1
REMARK VINA RESULT:      -9.9      0.000      0.000
REMARK  6 active torsions:
REMARK  status: ('A' for Active; 'I' for Inactive)
REMARK       I    between atoms: C1_2  and  N1_3 
REMARK    1  A    between atoms: C1_2  and  C17_23 
REMARK    2  A    between atoms: N1_3  and  C2_4 
REMARK    3  A    between atoms: C3_5  and  C4_6 
REMARK    4  A    between atoms: C5_7  and  C6_8 
REMARK    5  A    between atoms: C6_8  and  N2_9 
REMARK    6  A    between atoms: N2_9  and  C7_10 
ROOT
HETATM    1  C4  UNL     1      26.037   7.277  47.813  1.00  0.00     0.064 C 
HETATM    2  C5  UNL     1      27.020   8.155  47.917  1.00  0.00     0.012 C 
ENDROOT
BRANCH   1   3
HETATM    3  C3  UNL     1      25.755   6.274  48.799  1.00  0.00    -0.056 C 
HETATM    4  C2  UNL     1      25.509   5.413  49.618  1.00  0.00     0.018 C 
BRANCH   4   5
HETATM    5  N1  UNL     1      25.199   4.406  50.568  1.00  0.00    -0.281 N 
HETATM    6  C1  UNL     1      25.906   3.154  50.565  1.00  0.00     0.263 C 
HETATM    7  O1  UNL     1      26.796   3.069  49.652  1.00  0.00    -0.267 OA
HETATM    8  H1  UNL     1      24.451   4.571  51.276  1.00  0.00     0.179 HD
BRANCH   6   9
HETATM    9  C17 UNL     1      25.621   2.091  51.523  1.00  0.00     0.033 A 
HETATM   10  C18 UNL     1      26.521   1.218  52.101  1.00  0.00     0.018 A 
HETATM   11  C19 UNL     1      26.075   0.262  52.995  1.00  0.00     0.013 A 
HETATM   12  C20 UNL     1      24.744   0.126  53.354  1.00  0.00    -0.026 A 
HETATM   13  C21 UNL     1      24.315  -0.821  54.236  1.00  0.00     0.012 A 
HETATM   14  C25 UNL     1      23.850   1.002  52.772  1.00  0.00    -0.025 A 
HETATM   15  C22 UNL     1      22.979  -0.946  54.586  1.00  0.00     0.001 A 
HETATM   16  C23 UNL     1      22.064  -0.083  54.019  1.00  0.00     0.001 A 
HETATM   17  C24 UNL     1      22.509   0.879  53.121  1.00  0.00     0.012 A 
HETATM   18  C26 UNL     1      24.287   1.952  51.885  1.00  0.00     0.029 A 
ENDBRANCH   6   9
ENDBRANCH   4   5
ENDBRANCH   1   3
BRANCH   2  19
HETATM   19  C6  UNL     1      27.930   8.184  49.073  1.00  0.00     0.300 C 
BRANCH  19  20
HETATM   20  N2  UNL     1      28.884   7.095  48.952  1.00  0.00     0.116 N 
HETATM   21  H6  UNL     1      29.300   6.912  49.888  1.00  0.00     0.319 HD
BRANCH  20  22
HETATM   22  C7  UNL     1      29.950   7.426  48.023  1.00  0.00     0.382 C 
HETATM   23  C8  UNL     1      30.680   8.621  48.646  1.00  0.00     0.147 C 
HETATM   24  N3  UNL     1      31.715   8.483  49.498  1.00  0.00    -0.273 NA
HETATM   25  C9  UNL     1      32.031   7.081  49.735  1.00  0.00     0.118 C 
HETATM   26  C10 UNL     1      32.703   6.526  48.755  1.00  0.00     0.051 C 
HETATM   27  C11 UNL     1      33.308   5.302  48.286  1.00  0.00     0.069 A 
HETATM   28  N4  UNL     1      34.507   4.747  48.286  1.00  0.00    -0.260 NA
HETATM   29  C15 UNL     1      32.148   4.714  47.737  1.00  0.00     0.010 A 
HETATM   30  C12 UNL     1      34.740   3.528  47.744  1.00  0.00     0.117 A 
HETATM   31  C13 UNL     1      33.681   2.860  47.179  1.00  0.00     0.020 A 
HETATM   32  C14 UNL     1      32.450   3.467  47.198  1.00  0.00     0.017 A 
HETATM   33  C16 UNL     1      30.741   5.173  47.640  1.00  0.00     0.127 C 
HETATM   34  N5  UNL     1      30.850   6.372  47.918  1.00  0.00    -0.260 NA
ENDBRANCH  20  22
ENDBRANCH  19  20
ENDBRANCH   2  19
TORSDOF 6
ENDMDL
MODEL 2
REMARK VINA RESULT:      -9.9      4.115      9.744
REMARK  6 active torsions:
REMARK  status: ('A' for Active; 'I' for Inactive)
REMARK       I    between atoms: C1_2  and  N1_3 
REMARK    1  A    between atoms: C1_2  and  C17_23 
REMARK    2  A    between atoms: N1_3  and  C2_4 
REMARK    3  A    between atoms: C3_5  and  C4_6 
REMARK    4  A    between atoms: C5_7  and  C6_8 
REMARK    5  A    between atoms: C6_8  and  N2_9 
REMARK    6  A    between atoms: N2_9  and  C7_10 
ROOT
HETATM    1  C4  UNL     1      19.542   3.567  51.854  1.00  0.00     0.064 C 
HETATM    2  C5  UNL     1      19.137   2.316  51.713  1.00  0.00     0.012 C 
ENDROOT
BRANCH   1   3
HETATM    3  C3  UNL     1      20.838   4.036  51.457  1.00  0.00    -0.056 C 
HETATM    4  C2  UNL     1      21.943   4.417  51.130  1.00  0.00     0.018 C 
BRANCH   4   5
HETATM    5  N1  UNL     1      23.242   4.861  50.771  1.00  0.00    -0.281 N 
HETATM    6  C1  UNL     1      23.919   4.302  49.633  1.00  0.00     0.263 C 
HETATM    7  O1  UNL     1      23.243   3.406  49.022  1.00  0.00    -0.267 OA
HETATM    8  H1  UNL     1      23.713   5.601  51.336  1.00  0.00     0.179 HD
BRANCH   6   9
HETATM    9  C17 UNL     1      25.253   4.729  49.227  1.00  0.00     0.033 A 
HETATM   10  C18 UNL     1      26.433   4.021  49.342  1.00  0.00     0.018 A 
HETATM   11  C19 UNL     1      27.618   4.583  48.904  1.00  0.00     0.013 A 
HETATM   12  C20 UNL     1      27.692   5.847  48.342  1.00  0.00    -0.026 A 
HETATM   13  C21 UNL     1      28.867   6.391  47.914  1.00  0.00     0.012 A 
HETATM   14  C25 UNL     1      26.510   6.549  48.231  1.00  0.00    -0.025 A 
HETATM   15  C22 UNL     1      28.928   7.658  47.355  1.00  0.00     0.001 A 
HETATM   16  C23 UNL     1      27.760   8.382  47.232  1.00  0.00     0.001 A 
HETATM   17  C24 UNL     1      26.567   7.821  47.670  1.00  0.00     0.012 A 
HETATM   18  C26 UNL     1      25.332   5.997  48.664  1.00  0.00     0.029 A 
ENDBRANCH   6   9
ENDBRANCH   4   5
ENDBRANCH   1   3
BRANCH   2  19
HETATM   19  C6  UNL     1      19.992   1.275  51.123  1.00  0.00     0.300 C 
BRANCH  19  20
HETATM   20  N2  UNL     1      20.306   0.287  52.142  1.00  0.00     0.116 N 
HETATM   21  H6  UNL     1      19.415  -0.096  52.519  1.00  0.00     0.319 HD
BRANCH  20  22
HETATM   22  C7  UNL     1      21.062   0.875  53.234  1.00  0.00     0.382 C 
HETATM   23  C8  UNL     1      20.632   0.107  54.489  1.00  0.00     0.147 C 
HETATM   24  N3  UNL     1      21.251  -1.015  54.908  1.00  0.00    -0.273 NA
HETATM   25  C9  UNL     1      22.350  -1.382  54.027  1.00  0.00     0.118 C 
HETATM   26  C10 UNL     1      23.430  -0.661  54.213  1.00  0.00     0.051 C 
HETATM   27  C11 UNL     1      24.785  -0.433  53.771  1.00  0.00     0.069 A 
HETATM   28  N4  UNL     1      26.001  -0.803  54.130  1.00  0.00    -0.260 NA
HETATM   29  C15 UNL     1      24.489   0.411  52.678  1.00  0.00     0.010 A 
HETATM   30  C12 UNL     1      27.108  -0.394  53.463  1.00  0.00     0.117 A 
HETATM   31  C13 UNL     1      26.940   0.432  52.380  1.00  0.00     0.020 A 
HETATM   32  C14 UNL     1      25.662   0.796  52.035  1.00  0.00     0.017 A 
HETATM   33  C16 UNL     1      23.212   0.932  52.130  1.00  0.00     0.127 C 
HETATM   34  N5  UNL     1      22.425   0.676  53.047  1.00  0.00    -0.260 NA
ENDBRANCH  20  22
ENDBRANCH  19  20
ENDBRANCH   2  19
TORSDOF 6
ENDMDL
MODEL 3
REMARK VINA RESULT:      -9.4      2.748      9.345
REMARK  6 active torsions:
REMARK  status: ('A' for Active; 'I' for Inactive)
REMARK       I    between atoms: C1_2  and  N1_3 
REMARK    1  A    between atoms: C1_2  and  C17_23 
REMARK    2  A    between atoms: N1_3  and  C2_4 
REMARK    3  A    between atoms: C3_5  and  C4_6 
REMARK    4  A    between atoms: C5_7  and  C6_8 
REMARK    5  A    between atoms: C6_8  and  N2_9 
REMARK    6  A    between atoms: N2_9  and  C7_10 
ROOT
HETATM    1  C4  UNL     1      22.394   4.463  51.408  1.00  0.00     0.064 C 
HETATM    2  C5  UNL     1      21.854   3.270  51.221  1.00  0.00     0.012 C 
ENDROOT
BRANCH   1   3
HETATM    3  C3  UNL     1      23.691   4.838  50.923  1.00  0.00    -0.056 C 
HETATM    4  C2  UNL     1      24.780   5.174  50.509  1.00  0.00     0.018 C 
BRANCH   4   5
HETATM    5  N1  UNL     1      26.044   5.576  50.005  1.00  0.00    -0.281 N 
HETATM    6  C1  UNL     1      26.147   6.255  48.741  1.00  0.00     0.263 C 
HETATM    7  O1  UNL     1      25.021   6.439  48.164  1.00  0.00    -0.267 OA
HETATM    8  H1  UNL     1      26.910   5.379  50.553  1.00  0.00     0.179 HD
BRANCH   6   9
HETATM    9  C17 UNL     1      27.424   6.687  48.185  1.00  0.00     0.033 A 
HETATM   10  C18 UNL     1      27.718   7.902  47.600  1.00  0.00     0.018 A 
HETATM   11  C19 UNL     1      28.992   8.145  47.120  1.00  0.00     0.013 A 
HETATM   12  C20 UNL     1      30.017   7.216  47.195  1.00  0.00    -0.026 A 
HETATM   13  C21 UNL     1      31.269   7.467  46.717  1.00  0.00     0.012 A 
HETATM   14  C25 UNL     1      29.716   6.004  47.780  1.00  0.00    -0.025 A 
HETATM   15  C22 UNL     1      32.286   6.527  46.797  1.00  0.00     0.001 A 
HETATM   16  C23 UNL     1      32.013   5.306  47.378  1.00  0.00     0.001 A 
HETATM   17  C24 UNL     1      30.734   5.059  47.862  1.00  0.00     0.012 A 
HETATM   18  C26 UNL     1      28.455   5.757  48.258  1.00  0.00     0.029 A 
ENDBRANCH   6   9
ENDBRANCH   4   5
ENDBRANCH   1   3
BRANCH   2  19
HETATM   19  C6  UNL     1      22.547   2.201  50.484  1.00  0.00     0.300 C 
BRANCH  19  20
HETATM   20  N2  UNL     1      22.705   1.051  51.356  1.00  0.00     0.116 N 
HETATM   21  H6  UNL     1      21.816   0.510  51.358  1.00  0.00     0.319 HD
BRANCH  20  22
HETATM   22  C7  UNL     1      23.009   1.455  52.717  1.00  0.00     0.382 C 
HETATM   23  C8  UNL     1      22.295   0.438  53.616  1.00  0.00     0.147 C 
HETATM   24  N3  UNL     1      22.873  -0.709  54.024  1.00  0.00    -0.273 NA
HETATM   25  C9  UNL     1      24.227  -0.842  53.506  1.00  0.00     0.118 C 
HETATM   26  C10 UNL     1      25.106  -0.114  54.154  1.00  0.00     0.051 C 
HETATM   27  C11 UNL     1      26.497   0.266  54.227  1.00  0.00     0.069 A 
HETATM   28  N4  UNL     1      27.572  -0.102  54.901  1.00  0.00    -0.260 NA
HETATM   29  C15 UNL     1      26.466   1.288  53.253  1.00  0.00     0.010 A 
HETATM   30  C12 UNL     1      28.779   0.485  54.713  1.00  0.00     0.117 A 
HETATM   31  C13 UNL     1      28.868   1.494  53.787  1.00  0.00     0.020 A 
HETATM   32  C14 UNL     1      27.731   1.850  53.106  1.00  0.00     0.017 A 
HETATM   33  C16 UNL     1      25.376   1.836  52.409  1.00  0.00     0.127 C 
HETATM   34  N5  UNL     1      24.374   1.368  52.959  1.00  0.00    -0.260 NA
ENDBRANCH  20  22
ENDBRANCH  19  20
ENDBRANCH   2  19
TORSDOF 6
ENDMDL
MODEL 4
REMARK VINA RESULT:      -9.4      3.527      6.765
REMARK  6 active torsions:
REMARK  status: ('A' for Active; 'I' for Inactive)
REMARK       I    between atoms: C1_2  and  N1_3 
REMARK    1  A    between atoms: C1_2  and  C17_23 
REMARK    2  A    between atoms: N1_3  and  C2_4 
REMARK    3  A    between atoms: C3_5  and  C4_6 
REMARK    4  A    between atoms: C5_7  and  C6_8 
REMARK    5  A    between atoms: C6_8  and  N2_9 
REMARK    6  A    between atoms: N2_9  and  C7_10 
ROOT
HETATM    1  C4  UNL     1      28.019   5.231  48.478  1.00  0.00     0.064 C 
HETATM    2  C5  UNL     1      27.688   6.471  48.160  1.00  0.00     0.012 C 
ENDROOT
BRANCH   1   3
HETATM    3  C3  UNL     1      27.164   4.339  49.206  1.00  0.00    -0.056 C 
HETATM    4  C2  UNL     1      26.427   3.599  49.824  1.00  0.00     0.018 C 
BRANCH   4   5
HETATM    5  N1  UNL     1      25.565   2.751  50.565  1.00  0.00    -0.281 N 
HETATM    6  C1  UNL     1      26.070   1.974  51.665  1.00  0.00     0.263 C 
HETATM    7  O1  UNL     1      27.320   2.134  51.876  1.00  0.00    -0.267 OA
HETATM    8  H1  UNL     1      24.554   2.687  50.314  1.00  0.00     0.179 HD
BRANCH   6   9
HETATM    9  C17 UNL     1      25.221   1.089  52.455  1.00  0.00     0.033 A 
HETATM   10  C18 UNL     1      25.614   0.203  53.437  1.00  0.00     0.018 A 
HETATM   11  C19 UNL     1      24.668  -0.566  54.090  1.00  0.00     0.013 A 
HETATM   12  C20 UNL     1      23.314  -0.497  53.808  1.00  0.00    -0.026 A 
HETATM   13  C21 UNL     1      22.390  -1.262  54.458  1.00  0.00     0.012 A 
HETATM   14  C25 UNL     1      22.928   0.390  52.825  1.00  0.00    -0.025 A 
HETATM   15  C22 UNL     1      21.037  -1.183  54.165  1.00  0.00     0.001 A 
HETATM   16  C23 UNL     1      20.623  -0.304  53.186  1.00  0.00     0.001 A 
HETATM   17  C24 UNL     1      21.571   0.471  52.528  1.00  0.00     0.012 A 
HETATM   18  C26 UNL     1      23.861   1.155  52.175  1.00  0.00     0.029 A 
ENDBRANCH   6   9
ENDBRANCH   4   5
ENDBRANCH   1   3
BRANCH   2  19
HETATM   19  C6  UNL     1      26.391   7.058  48.529  1.00  0.00     0.300 C 
BRANCH  19  20
HETATM   20  N2  UNL     1      26.352   7.255  49.968  1.00  0.00     0.116 N 
HETATM   21  H6  UNL     1      26.426   6.327  50.432  1.00  0.00     0.319 HD
BRANCH  20  22
HETATM   22  C7  UNL     1      25.114   7.889  50.383  1.00  0.00     0.382 C 
HETATM   23  C8  UNL     1      24.602   8.637  49.146  1.00  0.00     0.147 C 
HETATM   24  N3  UNL     1      23.790   8.069  48.232  1.00  0.00    -0.273 NA
HETATM   25  C9  UNL     1      23.478   6.689  48.575  1.00  0.00     0.118 C 
HETATM   26  C10 UNL     1      22.572   6.579  49.518  1.00  0.00     0.051 C 
HETATM   27  C11 UNL     1      21.822   5.649  50.327  1.00  0.00     0.069 A 
HETATM   28  N4  UNL     1      20.633   5.073  50.299  1.00  0.00    -0.260 NA
HETATM   29  C15 UNL     1      22.795   5.441  51.329  1.00  0.00     0.010 A 
HETATM   30  C12 UNL     1      20.228   4.204  51.257  1.00  0.00     0.117 A 
HETATM   31  C13 UNL     1      21.095   3.925  52.284  1.00  0.00     0.020 A 
HETATM   32  C14 UNL     1      22.321   4.542  52.281  1.00  0.00     0.017 A 
HETATM   33  C16 UNL     1      24.159   5.988  51.532  1.00  0.00     0.127 C 
HETATM   34  N5  UNL     1      24.169   6.932  50.735  1.00  0.00    -0.260 NA
ENDBRANCH  20  22
ENDBRANCH  19  20
ENDBRANCH   2  19
TORSDOF 6
ENDMDL
MODEL 5
REMARK VINA RESULT:      -9.3      2.014      9.823
REMARK  6 active torsions:
REMARK  status: ('A' for Active; 'I' for Inactive)
REMARK       I    between atoms: C1_2  and  N1_3 
REMARK    1  A    between atoms: C1_2  and  C17_23 
REMARK    2  A    between atoms: N1_3  and  C2_4 
REMARK    3  A    between atoms: C3_5  and  C4_6 
REMARK    4  A    between atoms: C5_7  and  C6_8 
REMARK    5  A    between atoms: C6_8  and  N2_9 
REMARK    6  A    between atoms: N2_9  and  C7_10 
ROOT
HETATM    1  C4  UNL     1      24.456   6.937  50.441  1.00  0.00     0.064 C 
HETATM    2  C5  UNL     1      23.752   5.828  50.597  1.00  0.00     0.012 C 
ENDROOT
BRANCH   1   3
HETATM    3  C3  UNL     1      25.764   6.976  49.854  1.00  0.00    -0.056 C 
HETATM    4  C2  UNL     1      26.865   7.027  49.348  1.00  0.00     0.018 C 
BRANCH   4   5
HETATM    5  N1  UNL     1      28.143   7.088  48.735  1.00  0.00    -0.281 N 
HETATM    6  C1  UNL     1      28.814   5.886  48.319  1.00  0.00     0.263 C 
HETATM    7  O1  UNL     1      28.153   4.819  48.560  1.00  0.00    -0.267 OA
HETATM    8  H1  UNL     1      28.604   8.011  48.581  1.00  0.00     0.179 HD
BRANCH   6   9
HETATM    9  C17 UNL     1      30.127   5.901  47.684  1.00  0.00     0.033 A 
HETATM   10  C18 UNL     1      30.763   6.975  47.096  1.00  0.00     0.018 A 
HETATM   11  C19 UNL     1      32.017   6.810  46.535  1.00  0.00     0.013 A 
HETATM   12  C20 UNL     1      32.688   5.599  46.529  1.00  0.00    -0.026 A 
HETATM   13  C21 UNL     1      33.924   5.448  45.972  1.00  0.00     0.012 A 
HETATM   14  C25 UNL     1      32.047   4.529  47.119  1.00  0.00    -0.025 A 
HETATM   15  C22 UNL     1      34.584   4.229  45.973  1.00  0.00     0.001 A 
HETATM   16  C23 UNL     1      33.965   3.142  46.556  1.00  0.00     0.001 A 
HETATM   17  C24 UNL     1      32.706   3.305  47.121  1.00  0.00     0.012 A 
HETATM   18  C26 UNL     1      30.804   4.687  47.676  1.00  0.00     0.029 A 
ENDBRANCH   6   9
ENDBRANCH   4   5
ENDBRANCH   1   3
BRANCH   2  19
HETATM   19  C6  UNL     1      24.256   4.512  50.175  1.00  0.00     0.300 C 
BRANCH  19  20
HETATM   20  N2  UNL     1      24.903   3.868  51.305  1.00  0.00     0.116 N 
HETATM   21  H6  UNL     1      25.817   4.335  51.475  1.00  0.00     0.319 HD
BRANCH  20  22
HETATM   22  C7  UNL     1      25.138   2.458  51.049  1.00  0.00     0.382 C 
HETATM   23  C8  UNL     1      26.640   2.247  51.271  1.00  0.00     0.147 C 
HETATM   24  N3  UNL     1      27.164   1.927  52.470  1.00  0.00    -0.273 NA
HETATM   25  C9  UNL     1      26.135   1.815  53.493  1.00  0.00     0.118 C 
HETATM   26  C10 UNL     1      25.463   0.690  53.435  1.00  0.00     0.051 C 
HETATM   27  C11 UNL     1      24.393  -0.076  54.029  1.00  0.00     0.069 A 
HETATM   28  N4  UNL     1      24.267  -1.037  54.927  1.00  0.00    -0.260 NA
HETATM   29  C15 UNL     1      23.320   0.525  53.335  1.00  0.00     0.010 A 
HETATM   30  C12 UNL     1      23.061  -1.548  55.273  1.00  0.00     0.117 A 
HETATM   31  C13 UNL     1      21.943  -1.038  54.661  1.00  0.00     0.020 A 
HETATM   32  C14 UNL     1      22.113  -0.041  53.733  1.00  0.00     0.017 A 
HETATM   33  C16 UNL     1      23.264   1.595  52.308  1.00  0.00     0.127 C 
HETATM   34  N5  UNL     1      24.448   1.674  51.965  1.00  0.00    -0.260 NA
ENDBRANCH  20  22
ENDBRANCH  19  20
ENDBRANCH   2  19
TORSDOF 6
ENDMDL
MODEL 6
REMARK VINA RESULT:      -9.3      5.320      8.571
REMARK  6 active torsions:
REMARK  status: ('A' for Active; 'I' for Inactive)
REMARK       I    between atoms: C1_2  and  N1_3 
REMARK    1  A    between atoms: C1_2  and  C17_23 
REMARK    2  A    between atoms: N1_3  and  C2_4 
REMARK    3  A    between atoms: C3_5  and  C4_6 
REMARK    4  A    between atoms: C5_7  and  C6_8 
REMARK    5  A    between atoms: C6_8  and  N2_9 
REMARK    6  A    between atoms: N2_9  and  C7_10 
ROOT
HETATM    1  C4  UNL     1      22.683   6.247  51.076  1.00  0.00     0.064 C 
HETATM    2  C5  UNL     1      23.856   5.948  50.543  1.00  0.00     0.012 C 
ENDROOT
BRANCH   1   3
HETATM    3  C3  UNL     1      21.656   5.281  51.339  1.00  0.00    -0.056 C 
HETATM    4  C2  UNL     1      20.801   4.449  51.559  1.00  0.00     0.018 C 
BRANCH   4   5
HETATM    5  N1  UNL     1      19.807   3.464  51.796  1.00  0.00    -0.281 N 
HETATM    6  C1  UNL     1      19.714   2.300  50.957  1.00  0.00     0.263 C 
HETATM    7  O1  UNL     1      20.588   2.268  50.025  1.00  0.00    -0.267 OA
HETATM    8  H1  UNL     1      19.135   3.582  52.586  1.00  0.00     0.179 HD
BRANCH   6   9
HETATM    9  C17 UNL     1      18.710   1.263  51.165  1.00  0.00     0.033 A 
HETATM   10  C18 UNL     1      17.492   1.133  50.528  1.00  0.00     0.018 A 
HETATM   11  C19 UNL     1      16.655   0.081  50.851  1.00  0.00     0.013 A 
HETATM   12  C20 UNL     1      16.975  -0.875  51.800  1.00  0.00    -0.026 A 
HETATM   13  C21 UNL     1      16.141  -1.908  52.111  1.00  0.00     0.012 A 
HETATM   14  C25 UNL     1      18.194  -0.740  52.433  1.00  0.00    -0.025 A 
HETATM   15  C22 UNL     1      16.474  -2.858  53.065  1.00  0.00     0.001 A 
HETATM   16  C23 UNL     1      17.687  -2.746  53.713  1.00  0.00     0.001 A 
HETATM   17  C24 UNL     1      18.531  -1.690  53.390  1.00  0.00     0.012 A 
HETATM   18  C26 UNL     1      19.028   0.302  52.117  1.00  0.00     0.029 A 
ENDBRANCH   6   9
ENDBRANCH   4   5
ENDBRANCH   1   3
BRANCH   2  19
HETATM   19  C6  UNL     1      24.220   4.573  50.166  1.00  0.00     0.300 C 
BRANCH  19  20
HETATM   20  N2  UNL     1      24.940   3.956  51.266  1.00  0.00     0.116 N 
HETATM   21  H6  UNL     1      25.853   4.441  51.379  1.00  0.00     0.319 HD
BRANCH  20  22
HETATM   22  C7  UNL     1      25.188   2.547  51.013  1.00  0.00     0.382 C 
HETATM   23  C8  UNL     1      26.691   2.348  51.243  1.00  0.00     0.147 C 
HETATM   24  N3  UNL     1      27.210   2.034  52.446  1.00  0.00    -0.273 NA
HETATM   25  C9  UNL     1      26.176   1.915  53.464  1.00  0.00     0.118 C 
HETATM   26  C10 UNL     1      25.513   0.785  53.403  1.00  0.00     0.051 C 
HETATM   27  C11 UNL     1      24.446   0.012  53.993  1.00  0.00     0.069 A 
HETATM   28  N4  UNL     1      24.322  -0.949  54.891  1.00  0.00    -0.260 NA
HETATM   29  C15 UNL     1      23.372   0.603  53.291  1.00  0.00     0.010 A 
HETATM   30  C12 UNL     1      23.118  -1.469  55.231  1.00  0.00     0.117 A 
HETATM   31  C13 UNL     1      22.000  -0.969  54.612  1.00  0.00     0.020 A 
HETATM   32  C14 UNL     1      22.167   0.029  53.684  1.00  0.00     0.017 A 
HETATM   33  C16 UNL     1      23.313   1.671  52.263  1.00  0.00     0.127 C 
HETATM   34  N5  UNL     1      24.499   1.758  51.926  1.00  0.00    -0.260 NA
ENDBRANCH  20  22
ENDBRANCH  19  20
ENDBRANCH   2  19
TORSDOF 6
ENDMDL
MODEL 7
REMARK VINA RESULT:      -9.3      5.653     10.167
REMARK  6 active torsions:
REMARK  status: ('A' for Active; 'I' for Inactive)
REMARK       I    between atoms: C1_2  and  N1_3 
REMARK    1  A    between atoms: C1_2  and  C17_23 
REMARK    2  A    between atoms: N1_3  and  C2_4 
REMARK    3  A    between atoms: C3_5  and  C4_6 
REMARK    4  A    between atoms: C5_7  and  C6_8 
REMARK    5  A    between atoms: C6_8  and  N2_9 
REMARK    6  A    between atoms: N2_9  and  C7_10 
ROOT
HETATM    1  C4  UNL     1      22.272   5.635  50.344  1.00  0.00     0.064 C 
HETATM    2  C5  UNL     1      21.313   5.254  49.517  1.00  0.00     0.012 C 
ENDROOT
BRANCH   1   3
HETATM    3  C3  UNL     1      23.421   4.836  50.656  1.00  0.00    -0.056 C 
HETATM    4  C2  UNL     1      24.385   4.144  50.911  1.00  0.00     0.018 C 
BRANCH   4   5
HETATM    5  N1  UNL     1      25.497   3.318  51.219  1.00  0.00    -0.281 N 
HETATM    6  C1  UNL     1      25.621   2.711  52.517  1.00  0.00     0.263 C 
HETATM    7  O1  UNL     1      24.660   2.994  53.311  1.00  0.00    -0.267 OA
HETATM    8  H1  UNL     1      26.233   3.148  50.501  1.00  0.00     0.179 HD
BRANCH   6   9
HETATM    9  C17 UNL     1      26.745   1.855  52.877  1.00  0.00     0.033 A 
HETATM   10  C18 UNL     1      27.944   2.238  53.446  1.00  0.00     0.018 A 
HETATM   11  C19 UNL     1      28.910   1.287  53.723  1.00  0.00     0.013 A 
HETATM   12  C20 UNL     1      28.740  -0.061  53.455  1.00  0.00    -0.026 A 
HETATM   13  C21 UNL     1      29.699  -0.990  53.731  1.00  0.00     0.012 A 
HETATM   14  C25 UNL     1      27.540  -0.437  52.886  1.00  0.00    -0.025 A 
HETATM   15  C22 UNL     1      29.517  -2.337  53.457  1.00  0.00     0.001 A 
HETATM   16  C23 UNL     1      28.326  -2.740  52.888  1.00  0.00     0.001 A 
HETATM   17  C24 UNL     1      27.354  -1.787  52.609  1.00  0.00     0.012 A 
HETATM   18  C26 UNL     1      26.579   0.502  52.610  1.00  0.00     0.029 A 
ENDBRANCH   6   9
ENDBRANCH   4   5
ENDBRANCH   1   3
BRANCH   2  19
HETATM   19  C6  UNL     1      21.340   3.953  48.829  1.00  0.00     0.300 C 
BRANCH  19  20
HETATM   20  N2  UNL     1      20.175   3.183  49.228  1.00  0.00     0.116 N 
HETATM   21  H6  UNL     1      19.911   3.457  50.196  1.00  0.00     0.319 HD
BRANCH  20  22
HETATM   22  C7  UNL     1      20.450   1.757  49.204  1.00  0.00     0.382 C 
HETATM   23  C8  UNL     1      21.883   1.608  49.728  1.00  0.00     0.147 C 
HETATM   24  N3  UNL     1      22.172   1.455  51.035  1.00  0.00    -0.273 NA
HETATM   25  C9  UNL     1      20.968   1.452  51.854  1.00  0.00     0.118 C 
HETATM   26  C10 UNL     1      20.315   0.315  51.817  1.00  0.00     0.051 C 
HETATM   27  C11 UNL     1      19.151  -0.392  52.295  1.00  0.00     0.069 A 
HETATM   28  N4  UNL     1      18.855  -1.233  53.270  1.00  0.00    -0.260 NA
HETATM   29  C15 UNL     1      18.230   0.092  51.341  1.00  0.00     0.010 A 
HETATM   30  C12 UNL     1      17.604  -1.722  53.449  1.00  0.00     0.117 A 
HETATM   31  C13 UNL     1      16.623  -1.318  52.578  1.00  0.00     0.020 A 
HETATM   32  C14 UNL     1      16.967  -0.444  51.577  1.00  0.00     0.017 A 
HETATM   33  C16 UNL     1      18.370   1.021  50.193  1.00  0.00     0.127 C 
HETATM   34  N5  UNL     1      19.598   1.081  50.069  1.00  0.00    -0.260 NA
ENDBRANCH  20  22
ENDBRANCH  19  20
ENDBRANCH   2  19
TORSDOF 6
ENDMDL
MODEL 8
REMARK VINA RESULT:      -9.2      3.432      6.001
REMARK  6 active torsions:
REMARK  status: ('A' for Active; 'I' for Inactive)
REMARK       I    between atoms: C1_2  and  N1_3 
REMARK    1  A    between atoms: C1_2  and  C17_23 
REMARK    2  A    between atoms: N1_3  and  C2_4 
REMARK    3  A    between atoms: C3_5  and  C4_6 
REMARK    4  A    between atoms: C5_7  and  C6_8 
REMARK    5  A    between atoms: C6_8  and  N2_9 
REMARK    6  A    between atoms: N2_9  and  C7_10 
ROOT
HETATM    1  C4  UNL     1      27.653   5.253  48.418  1.00  0.00     0.064 C 
HETATM    2  C5  UNL     1      27.498   6.564  48.339  1.00  0.00     0.012 C 
ENDROOT
BRANCH   1   3
HETATM    3  C3  UNL     1      26.845   4.402  49.242  1.00  0.00    -0.056 C 
HETATM    4  C2  UNL     1      26.176   3.666  49.938  1.00  0.00     0.018 C 
BRANCH   4   5
HETATM    5  N1  UNL     1      25.395   2.789  50.734  1.00  0.00    -0.281 N 
HETATM    6  C1  UNL     1      26.014   1.963  51.735  1.00  0.00     0.263 C 
HETATM    7  O1  UNL     1      27.281   2.108  51.811  1.00  0.00    -0.267 OA
HETATM    8  H1  UNL     1      24.362   2.741  50.596  1.00  0.00     0.179 HD
BRANCH   6   9
HETATM    9  C17 UNL     1      25.251   1.048  52.577  1.00  0.00     0.033 A 
HETATM   10  C18 UNL     1      25.740   0.178  53.531  1.00  0.00     0.018 A 
HETATM   11  C19 UNL     1      24.868  -0.625  54.242  1.00  0.00     0.013 A 
HETATM   12  C20 UNL     1      23.496  -0.607  54.049  1.00  0.00    -0.026 A 
HETATM   13  C21 UNL     1      22.645  -1.404  54.756  1.00  0.00     0.012 A 
HETATM   14  C25 UNL     1      23.014   0.264  53.094  1.00  0.00    -0.025 A 
HETATM   15  C22 UNL     1      21.274  -1.377  54.551  1.00  0.00     0.001 A 
HETATM   16  C23 UNL     1      20.765  -0.514  53.602  1.00  0.00     0.001 A 
HETATM   17  C24 UNL     1      21.639   0.294  52.885  1.00  0.00     0.012 A 
HETATM   18  C26 UNL     1      23.875   1.063  52.386  1.00  0.00     0.029 A 
ENDBRANCH   6   9
ENDBRANCH   4   5
ENDBRANCH   1   3
BRANCH   2  19
HETATM   19  C6  UNL     1      26.464   7.280  49.103  1.00  0.00     0.300 C 
BRANCH  19  20
HETATM   20  N2  UNL     1      26.233   8.575  48.486  1.00  0.00     0.116 N 
HETATM   21  H6  UNL     1      26.907   8.697  47.704  1.00  0.00     0.319 HD
BRANCH  20  22
HETATM   22  C7  UNL     1      26.421   9.656  49.438  1.00  0.00     0.382 C 
HETATM   23  C8  UNL     1      27.795   9.408  50.072  1.00  0.00     0.147 C 
HETATM   24  N3  UNL     1      28.937   9.908  49.559  1.00  0.00    -0.273 NA
HETATM   25  C9  UNL     1      28.689  10.690  48.356  1.00  0.00     0.118 C 
HETATM   26  C10 UNL     1      28.220  11.890  48.603  1.00  0.00     0.051 C 
HETATM   27  C11 UNL     1      27.761  13.121  48.006  1.00  0.00     0.069 A 
HETATM   28  N4  UNL     1      28.265  14.307  47.711  1.00  0.00    -0.260 NA
HETATM   29  C15 UNL     1      26.430  12.725  47.751  1.00  0.00     0.010 A 
HETATM   30  C12 UNL     1      27.528  15.278  47.120  1.00  0.00     0.117 A 
HETATM   31  C13 UNL     1      26.216  15.004  46.824  1.00  0.00     0.020 A 
HETATM   32  C14 UNL     1      25.727  13.762  47.145  1.00  0.00     0.017 A 
HETATM   33  C16 UNL     1      25.693  11.463  48.007  1.00  0.00     0.127 C 
HETATM   34  N5  UNL     1      26.457  10.882  48.785  1.00  0.00    -0.260 NA
ENDBRANCH  20  22
ENDBRANCH  19  20
ENDBRANCH   2  19
TORSDOF 6
ENDMDL
MODEL 9
REMARK VINA RESULT:      -9.0      1.539      2.240
REMARK  6 active torsions:
REMARK  status: ('A' for Active; 'I' for Inactive)
REMARK       I    between atoms: C1_2  and  N1_3 
REMARK    1  A    between atoms: C1_2  and  C17_23 
REMARK    2  A    between atoms: N1_3  and  C2_4 
REMARK    3  A    between atoms: C3_5  and  C4_6 
REMARK    4  A    between atoms: C5_7  and  C6_8 
REMARK    5  A    between atoms: C6_8  and  N2_9 
REMARK    6  A    between atoms: N2_9  and  C7_10 
ROOT
HETATM    1  C4  UNL     1      26.815   8.290  47.567  1.00  0.00     0.064 C 
HETATM    2  C5  UNL     1      27.966   8.935  47.477  1.00  0.00     0.012 C 
ENDROOT
BRANCH   1   3
HETATM    3  C3  UNL     1      26.607   7.141  48.399  1.00  0.00    -0.056 C 
HETATM    4  C2  UNL     1      26.450   6.161  49.097  1.00  0.00     0.018 C 
BRANCH   4   5
HETATM    5  N1  UNL     1      26.272   5.002  49.896  1.00  0.00    -0.281 N 
HETATM    6  C1  UNL     1      24.988   4.696  50.466  1.00  0.00     0.263 C 
HETATM    7  O1  UNL     1      24.082   5.551  50.182  1.00  0.00    -0.267 OA
HETATM    8  H1  UNL     1      27.077   4.362  50.072  1.00  0.00     0.179 HD
BRANCH   6   9
HETATM    9  C17 UNL     1      24.759   3.515  51.292  1.00  0.00     0.033 A 
HETATM   10  C18 UNL     1      23.683   3.265  52.119  1.00  0.00     0.018 A 
HETATM   11  C19 UNL     1      23.626   2.084  52.837  1.00  0.00     0.013 A 
HETATM   12  C20 UNL     1      24.612   1.114  52.773  1.00  0.00    -0.026 A 
HETATM   13  C21 UNL     1      24.547  -0.047  53.486  1.00  0.00     0.012 A 
HETATM   14  C25 UNL     1      25.685   1.370  51.945  1.00  0.00    -0.025 A 
HETATM   15  C22 UNL     1      25.542  -1.010  53.414  1.00  0.00     0.001 A 
HETATM   16  C23 UNL     1      26.626  -0.778  52.593  1.00  0.00     0.001 A 
HETATM   17  C24 UNL     1      26.686   0.407  51.870  1.00  0.00     0.012 A 
HETATM   18  C26 UNL     1      25.746   2.539  51.230  1.00  0.00     0.029 A 
ENDBRANCH   6   9
ENDBRANCH   4   5
ENDBRANCH   1   3
BRANCH   2  19
HETATM   19  C6  UNL     1      29.158   8.526  48.236  1.00  0.00     0.300 C 
BRANCH  19  20
HETATM   20  N2  UNL     1      30.032   7.757  47.367  1.00  0.00     0.116 N 
HETATM   21  H6  UNL     1      29.812   6.747  47.484  1.00  0.00     0.319 HD
BRANCH  20  22
HETATM   22  C7  UNL     1      31.430   7.973  47.696  1.00  0.00     0.382 C 
HETATM   23  C8  UNL     1      31.504   7.916  49.226  1.00  0.00     0.147 C 
HETATM   24  N3  UNL     1      31.711   6.772  49.907  1.00  0.00    -0.273 NA
HETATM   25  C9  UNL     1      31.850   5.632  49.011  1.00  0.00     0.118 C 
HETATM   26  C10 UNL     1      33.028   5.561  48.438  1.00  0.00     0.051 C 
HETATM   27  C11 UNL     1      33.845   4.812  47.513  1.00  0.00     0.069 A 
HETATM   28  N4  UNL     1      34.761   3.862  47.573  1.00  0.00    -0.260 NA
HETATM   29  C15 UNL     1      33.375   5.405  46.321  1.00  0.00     0.010 A 
HETATM   30  C12 UNL     1      35.350   3.355  46.463  1.00  0.00     0.117 A 
HETATM   31  C13 UNL     1      34.969   3.857  45.243  1.00  0.00     0.020 A 
HETATM   32  C14 UNL     1      34.015   4.844  45.220  1.00  0.00     0.017 A 
HETATM   33  C16 UNL     1      32.373   6.467  46.056  1.00  0.00     0.127 C 
HETATM   34  N5  UNL     1      32.216   6.948  47.184  1.00  0.00    -0.260 NA
ENDBRANCH  20  22
ENDBRANCH  19  20
ENDBRANCH   2  19
TORSDOF 6
ENDMDL
