MODEL 1
REMARK VINA RESULT:      -7.9      0.000      0.000
REMARK  10 active torsions:
REMARK  status: ('A' for Active; 'I' for Inactive)
REMARK    1  A    between atoms: C5_6  and  N1_7 
REMARK    2  A    between atoms: N1_7  and  C6_8 
REMARK    3  A    between atoms: C6_8  and  C7_9 
REMARK    4  A    between atoms: C9_12  and  C10_13 
REMARK    5  A    between atoms: C10_13  and  O1_14 
REMARK    6  A    between atoms: O1_14  and  C11_15 
REMARK    7  A    between atoms: C11_15  and  C12_16 
REMARK    8  A    between atoms: C12_16  and  C13_17 
REMARK    9  A    between atoms: C13_17  and  C14_18 
REMARK   10  A    between atoms: C14_18  and  N3_19 
ROOT
HETATM    1  C7  UNL     1      26.900   4.479  49.182  1.00  0.00     0.065 A 
HETATM    2  N2  UNL     1      28.122   4.537  48.727  1.00  0.00    -0.262 NA
HETATM    3  C8  UNL     1      28.368   5.799  48.160  1.00  0.00     0.127 A 
HETATM    4  C9  UNL     1      27.315   6.586  48.235  1.00  0.00    -0.002 A 
HETATM    5  C18 UNL     1      26.296   5.770  48.907  1.00  0.00     0.031 A 
HETATM    6  C19 UNL     1      25.062   6.147  49.188  1.00  0.00     0.083 C 
HETATM    7  C20 UNL     1      23.864   5.563  49.814  1.00  0.00     0.233 C 
HETATM    8  O3  UNL     1      23.570   6.155  51.044  1.00  0.00    -0.383 OA
HETATM    9  C21 UNL     1      23.786   7.531  51.004  1.00  0.00     0.194 C 
HETATM   10  C22 UNL     1      23.669   8.054  49.573  1.00  0.00     0.201 C 
HETATM   11  O4  UNL     1      24.706   7.442  48.833  1.00  0.00    -0.350 OA
ENDROOT
BRANCH   4  12
HETATM   12  C10 UNL     1      27.195   8.016  47.735  1.00  0.00     0.208 C 
BRANCH  12  13
HETATM   13  O1  UNL     1      27.736   8.866  48.690  1.00  0.00    -0.387 OA
BRANCH  13  14
HETATM   14  C11 UNL     1      28.684   9.712  48.205  1.00  0.00     0.168 C 
BRANCH  14  15
HETATM   15  C12 UNL     1      30.003   9.758  48.893  1.00  0.00     0.028 C 
BRANCH  15  16
HETATM   16  C13 UNL     1      30.632   8.416  49.152  1.00  0.00     0.032 C 
BRANCH  16  17
HETATM   17  C14 UNL     1      31.526   7.880  48.109  1.00  0.00     0.275 C 
BRANCH  17  18
HETATM   18  N3  UNL     1      32.559   6.990  48.510  1.00  0.00     0.113 N 
HETATM   19  C15 UNL     1      32.955   6.082  47.447  1.00  0.00     0.301 C 
HETATM   20  C16 UNL     1      31.952   4.961  47.628  1.00  0.00     0.200 C 
HETATM   21  O2  UNL     1      31.637   4.942  48.965  1.00  0.00    -0.361 OA
HETATM   22  C17 UNL     1      32.198   6.075  49.544  1.00  0.00     0.440 C 
ENDBRANCH  17  18
ENDBRANCH  16  17
ENDBRANCH  15  16
ENDBRANCH  14  15
ENDBRANCH  13  14
ENDBRANCH  12  13
ENDBRANCH   4  12
BRANCH   1  23
HETATM   23  C6  UNL     1      26.393   3.251  49.830  1.00  0.00     0.180 C 
BRANCH  23  24
HETATM   24  N1  UNL     1      26.657   3.285  51.276  1.00  0.00    -0.384 N 
HETATM   25  H4  UNL     1      26.598   4.158  51.863  1.00  0.00     0.160 HD
BRANCH  24  26
HETATM   26  C5  UNL     1      27.017   2.099  51.981  1.00  0.00     0.031 A 
HETATM   27  C4  UNL     1      26.514   0.842  51.677  1.00  0.00     0.029 A 
HETATM   28  C3  UNL     1      26.904  -0.261  52.400  1.00  0.00     0.005 A 
HETATM   29  C2  UNL     1      27.808  -0.154  53.448  1.00  0.00     0.042 A 
HETATM   30  C1  UNL     1      28.338   1.091  53.784  1.00  0.00     0.118 A 
HETATM   31  F1  UNL     1      29.229   1.290  54.797  1.00  0.00    -0.206 F 
HETATM   32  C23 UNL     1      27.907   2.152  53.025  1.00  0.00     0.071 A 
ENDBRANCH  24  26
ENDBRANCH  23  24
ENDBRANCH   1  23
TORSDOF 10
ENDMDL
MODEL 2
REMARK VINA RESULT:      -7.6      2.766      6.981
REMARK  10 active torsions:
REMARK  status: ('A' for Active; 'I' for Inactive)
REMARK    1  A    between atoms: C5_6  and  N1_7 
REMARK    2  A    between atoms: N1_7  and  C6_8 
REMARK    3  A    between atoms: C6_8  and  C7_9 
REMARK    4  A    between atoms: C9_12  and  C10_13 
REMARK    5  A    between atoms: C10_13  and  O1_14 
REMARK    6  A    between atoms: O1_14  and  C11_15 
REMARK    7  A    between atoms: C11_15  and  C12_16 
REMARK    8  A    between atoms: C12_16  and  C13_17 
REMARK    9  A    between atoms: C13_17  and  C14_18 
REMARK   10  A    between atoms: C14_18  and  N3_19 
ROOT
HETATM    1  C7  UNL     1      27.350   5.463  48.816  1.00  0.00     0.065 A 
HETATM    2  N2  UNL     1      27.528   4.171  48.753  1.00  0.00    -0.262 NA
HETATM    3  C8  UNL     1      26.516   3.508  49.466  1.00  0.00     0.127 A 
HETATM    4  C9  UNL     1      25.660   4.351  50.007  1.00  0.00    -0.002 A 
HETATM    5  C18 UNL     1      26.156   5.676  49.612  1.00  0.00     0.031 A 
HETATM    6  C19 UNL     1      25.614   6.835  49.940  1.00  0.00     0.083 C 
HETATM    7  C20 UNL     1      25.888   8.265  49.713  1.00  0.00     0.233 C 
HETATM    8  O3  UNL     1      24.936   8.859  48.883  1.00  0.00    -0.383 OA
HETATM    9  C21 UNL     1      23.655   8.388  49.169  1.00  0.00     0.194 C 
HETATM   10  C22 UNL     1      23.574   7.890  50.612  1.00  0.00     0.201 C 
HETATM   11  O4  UNL     1      24.459   6.792  50.711  1.00  0.00    -0.350 OA
ENDROOT
BRANCH   4  12
HETATM   12  C10 UNL     1      24.439   4.015  50.846  1.00  0.00     0.208 C 
BRANCH  12  13
HETATM   13  O1  UNL     1      24.148   2.667  50.684  1.00  0.00    -0.387 OA
BRANCH  13  14
HETATM   14  C11 UNL     1      24.318   1.924  51.811  1.00  0.00     0.168 C 
BRANCH  14  15
HETATM   15  C12 UNL     1      24.429   2.637  53.112  1.00  0.00     0.028 C 
BRANCH  15  16
HETATM   16  C13 UNL     1      25.737   2.448  53.831  1.00  0.00     0.032 C 
BRANCH  16  17
HETATM   17  C14 UNL     1      26.804   1.730  53.109  1.00  0.00     0.275 C 
BRANCH  17  18
HETATM   18  N3  UNL     1      27.465   0.667  53.782  1.00  0.00     0.113 N 
HETATM   19  C15 UNL     1      27.718  -0.469  52.912  1.00  0.00     0.301 C 
HETATM   20  C16 UNL     1      26.415  -1.232  53.038  1.00  0.00     0.200 C 
HETATM   21  O2  UNL     1      25.929  -0.954  54.292  1.00  0.00    -0.361 OA
HETATM   22  C17 UNL     1      26.714   0.059  54.831  1.00  0.00     0.440 C 
ENDBRANCH  17  18
ENDBRANCH  16  17
ENDBRANCH  15  16
ENDBRANCH  14  15
ENDBRANCH  13  14
ENDBRANCH  12  13
ENDBRANCH   4  12
BRANCH   1  23
HETATM   23  C6  UNL     1      28.285   6.387  48.140  1.00  0.00     0.180 C 
BRANCH  23  24
HETATM   24  N1  UNL     1      29.468   6.629  48.979  1.00  0.00    -0.384 N 
HETATM   25  H4  UNL     1      29.455   7.206  49.860  1.00  0.00     0.160 HD
BRANCH  24  26
HETATM   26  C5  UNL     1      30.735   6.073  48.632  1.00  0.00     0.031 A 
HETATM   27  C4  UNL     1      31.929   6.451  49.230  1.00  0.00     0.029 A 
HETATM   28  C3  UNL     1      33.117   5.875  48.846  1.00  0.00     0.005 A 
HETATM   29  C2  UNL     1      33.160   4.902  47.857  1.00  0.00     0.042 A 
HETATM   30  C1  UNL     1      31.982   4.494  47.232  1.00  0.00     0.118 A 
HETATM   31  F1  UNL     1      31.930   3.548  46.251  1.00  0.00    -0.206 F 
HETATM   32  C23 UNL     1      30.831   5.110  47.661  1.00  0.00     0.071 A 
ENDBRANCH  24  26
ENDBRANCH  23  24
ENDBRANCH   1  23
TORSDOF 10
ENDMDL
MODEL 3
REMARK VINA RESULT:      -7.4      5.839      8.007
REMARK  10 active torsions:
REMARK  status: ('A' for Active; 'I' for Inactive)
REMARK    1  A    between atoms: C5_6  and  N1_7 
REMARK    2  A    between atoms: N1_7  and  C6_8 
REMARK    3  A    between atoms: C6_8  and  C7_9 
REMARK    4  A    between atoms: C9_12  and  C10_13 
REMARK    5  A    between atoms: C10_13  and  O1_14 
REMARK    6  A    between atoms: O1_14  and  C11_15 
REMARK    7  A    between atoms: C11_15  and  C12_16 
REMARK    8  A    between atoms: C12_16  and  C13_17 
REMARK    9  A    between atoms: C13_17  and  C14_18 
REMARK   10  A    between atoms: C14_18  and  N3_19 
ROOT
HETATM    1  C7  UNL     1      24.877   1.942  52.848  1.00  0.00     0.065 A 
HETATM    2  N2  UNL     1      24.986   2.899  51.967  1.00  0.00    -0.262 NA
HETATM    3  C8  UNL     1      23.965   2.794  51.008  1.00  0.00     0.127 A 
HETATM    4  C9  UNL     1      23.173   1.769  51.243  1.00  0.00    -0.002 A 
HETATM    5  C18 UNL     1      23.721   1.154  52.458  1.00  0.00     0.031 A 
HETATM    6  C19 UNL     1      23.251   0.079  53.063  1.00  0.00     0.083 C 
HETATM    7  C20 UNL     1      23.590  -0.742  54.239  1.00  0.00     0.233 C 
HETATM    8  O3  UNL     1      22.642  -0.621  55.257  1.00  0.00    -0.383 OA
HETATM    9  C21 UNL     1      21.350  -0.572  54.738  1.00  0.00     0.194 C 
HETATM   10  C22 UNL     1      21.291  -1.258  53.373  1.00  0.00     0.201 C 
HETATM   11  O4  UNL     1      22.122  -0.510  52.509  1.00  0.00    -0.350 OA
ENDROOT
BRANCH   4  12
HETATM   12  C10 UNL     1      21.964   1.332  50.432  1.00  0.00     0.208 C 
BRANCH  12  13
HETATM   13  O1  UNL     1      22.261   1.476  49.083  1.00  0.00    -0.387 OA
BRANCH  13  14
HETATM   14  C11 UNL     1      21.385   2.264  48.403  1.00  0.00     0.168 C 
BRANCH  14  15
HETATM   15  C12 UNL     1      21.887   3.012  47.219  1.00  0.00     0.028 C 
BRANCH  15  16
HETATM   16  C13 UNL     1      21.902   4.509  47.372  1.00  0.00     0.032 C 
BRANCH  16  17
HETATM   17  C14 UNL     1      22.405   5.050  48.649  1.00  0.00     0.275 C 
BRANCH  17  18
HETATM   18  N3  UNL     1      21.582   5.968  49.354  1.00  0.00     0.113 N 
HETATM   19  C15 UNL     1      21.763   5.885  50.794  1.00  0.00     0.301 C 
HETATM   20  C16 UNL     1      20.792   4.779  51.149  1.00  0.00     0.200 C 
HETATM   21  O2  UNL     1      19.785   4.839  50.217  1.00  0.00    -0.361 OA
HETATM   22  C17 UNL     1      20.179   5.737  49.232  1.00  0.00     0.440 C 
ENDBRANCH  17  18
ENDBRANCH  16  17
ENDBRANCH  15  16
ENDBRANCH  14  15
ENDBRANCH  13  14
ENDBRANCH  12  13
ENDBRANCH   4  12
BRANCH   1  23
HETATM   23  C6  UNL     1      25.835   1.833  53.968  1.00  0.00     0.180 C 
BRANCH  23  24
HETATM   24  N1  UNL     1      27.217   1.822  53.465  1.00  0.00    -0.384 N 
HETATM   25  H4  UNL     1      27.730   2.682  53.140  1.00  0.00     0.160 HD
BRANCH  24  26
HETATM   26  C5  UNL     1      27.956   0.605  53.391  1.00  0.00     0.031 A 
HETATM   27  C4  UNL     1      29.301   0.503  53.718  1.00  0.00     0.029 A 
HETATM   28  C3  UNL     1      29.954  -0.704  53.623  1.00  0.00     0.005 A 
HETATM   29  C2  UNL     1      29.295  -1.850  53.202  1.00  0.00     0.042 A 
HETATM   30  C1  UNL     1      27.943  -1.790  52.865  1.00  0.00     0.118 A 
HETATM   31  F1  UNL     1      27.215  -2.863  52.441  1.00  0.00    -0.206 F 
HETATM   32  C23 UNL     1      27.350  -0.555  52.981  1.00  0.00     0.071 A 
ENDBRANCH  24  26
ENDBRANCH  23  24
ENDBRANCH   1  23
TORSDOF 10
ENDMDL
MODEL 4
REMARK VINA RESULT:      -7.2      3.608      6.450
REMARK  10 active torsions:
REMARK  status: ('A' for Active; 'I' for Inactive)
REMARK    1  A    between atoms: C5_6  and  N1_7 
REMARK    2  A    between atoms: N1_7  and  C6_8 
REMARK    3  A    between atoms: C6_8  and  C7_9 
REMARK    4  A    between atoms: C9_12  and  C10_13 
REMARK    5  A    between atoms: C10_13  and  O1_14 
REMARK    6  A    between atoms: O1_14  and  C11_15 
REMARK    7  A    between atoms: C11_15  and  C12_16 
REMARK    8  A    between atoms: C12_16  and  C13_17 
REMARK    9  A    between atoms: C13_17  and  C14_18 
REMARK   10  A    between atoms: C14_18  and  N3_19 
ROOT
HETATM    1  C7  UNL     1      24.103   1.725  53.052  1.00  0.00     0.065 A 
HETATM    2  N2  UNL     1      24.583   2.939  53.056  1.00  0.00    -0.262 NA
HETATM    3  C8  UNL     1      23.617   3.844  52.586  1.00  0.00     0.127 A 
HETATM    4  C9  UNL     1      22.491   3.241  52.268  1.00  0.00    -0.002 A 
HETATM    5  C18 UNL     1      22.743   1.823  52.554  1.00  0.00     0.031 A 
HETATM    6  C19 UNL     1      21.889   0.832  52.375  1.00  0.00     0.083 C 
HETATM    7  C20 UNL     1      21.869  -0.630  52.550  1.00  0.00     0.233 C 
HETATM    8  O3  UNL     1      21.018  -1.026  53.585  1.00  0.00    -0.383 OA
HETATM    9  C21 UNL     1      19.851  -0.264  53.594  1.00  0.00     0.194 C 
HETATM   10  C22 UNL     1      19.562   0.298  52.203  1.00  0.00     0.201 C 
HETATM   11  O4  UNL     1      20.631   1.168  51.889  1.00  0.00    -0.350 OA
ENDROOT
BRANCH   4  12
HETATM   12  C10 UNL     1      21.223   3.880  51.727  1.00  0.00     0.208 C 
BRANCH  12  13
HETATM   13  O1  UNL     1      21.490   5.210  51.429  1.00  0.00    -0.387 OA
BRANCH  13  14
HETATM   14  C11 UNL     1      21.018   5.612  50.218  1.00  0.00     0.168 C 
BRANCH  14  15
HETATM   15  C12 UNL     1      22.003   6.029  49.184  1.00  0.00     0.028 C 
BRANCH  15  16
HETATM   16  C13 UNL     1      23.141   5.069  48.966  1.00  0.00     0.032 C 
BRANCH  16  17
HETATM   17  C14 UNL     1      24.440   5.644  48.569  1.00  0.00     0.275 C 
BRANCH  17  18
HETATM   18  N3  UNL     1      25.506   5.590  49.507  1.00  0.00     0.113 N 
HETATM   19  C15 UNL     1      26.090   6.896  49.760  1.00  0.00     0.301 C 
HETATM   20  C16 UNL     1      27.110   6.984  48.643  1.00  0.00     0.200 C 
HETATM   21  O2  UNL     1      27.495   5.694  48.374  1.00  0.00    -0.361 OA
HETATM   22  C17 UNL     1      26.647   4.848  49.080  1.00  0.00     0.440 C 
ENDBRANCH  17  18
ENDBRANCH  16  17
ENDBRANCH  15  16
ENDBRANCH  14  15
ENDBRANCH  13  14
ENDBRANCH  12  13
ENDBRANCH   4  12
BRANCH   1  23
HETATM   23  C6  UNL     1      24.927   0.585  53.506  1.00  0.00     0.180 C 
BRANCH  23  24
HETATM   24  N1  UNL     1      25.969   0.276  52.516  1.00  0.00    -0.384 N 
HETATM   25  H4  UNL     1      25.795   0.220  51.479  1.00  0.00     0.160 HD
BRANCH  24  26
HETATM   26  C5  UNL     1      27.313   0.029  52.924  1.00  0.00     0.031 A 
HETATM   27  C4  UNL     1      28.202   1.030  53.288  1.00  0.00     0.029 A 
HETATM   28  C3  UNL     1      29.486   0.721  53.671  1.00  0.00     0.005 A 
HETATM   29  C2  UNL     1      29.931  -0.593  53.706  1.00  0.00     0.042 A 
HETATM   30  C1  UNL     1      29.069  -1.629  53.348  1.00  0.00     0.118 A 
HETATM   31  F1  UNL     1      29.420  -2.947  53.352  1.00  0.00    -0.206 F 
HETATM   32  C23 UNL     1      27.801  -1.252  52.975  1.00  0.00     0.071 A 
ENDBRANCH  24  26
ENDBRANCH  23  24
ENDBRANCH   1  23
TORSDOF 10
ENDMDL
MODEL 5
REMARK VINA RESULT:      -7.1      1.934      2.492
REMARK  10 active torsions:
REMARK  status: ('A' for Active; 'I' for Inactive)
REMARK    1  A    between atoms: C5_6  and  N1_7 
REMARK    2  A    between atoms: N1_7  and  C6_8 
REMARK    3  A    between atoms: C6_8  and  C7_9 
REMARK    4  A    between atoms: C9_12  and  C10_13 
REMARK    5  A    between atoms: C10_13  and  O1_14 
REMARK    6  A    between atoms: O1_14  and  C11_15 
REMARK    7  A    between atoms: C11_15  and  C12_16 
REMARK    8  A    between atoms: C12_16  and  C13_17 
REMARK    9  A    between atoms: C13_17  and  C14_18 
REMARK   10  A    between atoms: C14_18  and  N3_19 
ROOT
HETATM    1  C7  UNL     1      26.850   4.484  49.180  1.00  0.00     0.065 A 
HETATM    2  N2  UNL     1      28.078   4.601  48.753  1.00  0.00    -0.262 NA
HETATM    3  C8  UNL     1      28.264   5.858  48.154  1.00  0.00     0.127 A 
HETATM    4  C9  UNL     1      27.165   6.582  48.177  1.00  0.00    -0.002 A 
HETATM    5  C18 UNL     1      26.179   5.727  48.850  1.00  0.00     0.031 A 
HETATM    6  C19 UNL     1      24.918   6.038  49.089  1.00  0.00     0.083 C 
HETATM    7  C20 UNL     1      23.740   5.402  49.704  1.00  0.00     0.233 C 
HETATM    8  O3  UNL     1      23.380   6.012  50.907  1.00  0.00    -0.383 OA
HETATM    9  C21 UNL     1      23.515   7.397  50.829  1.00  0.00     0.194 C 
HETATM   10  C22 UNL     1      23.404   7.869  49.379  1.00  0.00     0.201 C 
HETATM   11  O4  UNL     1      24.495   7.298  48.685  1.00  0.00    -0.350 OA
ENDROOT
BRANCH   4  12
HETATM   12  C10 UNL     1      26.974   7.987  47.629  1.00  0.00     0.208 C 
BRANCH  12  13
HETATM   13  O1  UNL     1      28.212   8.613  47.573  1.00  0.00    -0.387 OA
BRANCH  13  14
HETATM   14  C11 UNL     1      28.381   9.592  48.502  1.00  0.00     0.168 C 
BRANCH  14  15
HETATM   15  C12 UNL     1      29.447   9.413  49.524  1.00  0.00     0.028 C 
BRANCH  15  16
HETATM   16  C13 UNL     1      30.670  10.267  49.325  1.00  0.00     0.032 C 
BRANCH  16  17
HETATM   17  C14 UNL     1      30.531  11.445  48.449  1.00  0.00     0.275 C 
BRANCH  17  18
HETATM   18  N3  UNL     1      31.397  11.547  47.327  1.00  0.00     0.113 N 
HETATM   19  C15 UNL     1      30.756  12.176  46.185  1.00  0.00     0.301 C 
HETATM   20  C16 UNL     1      30.088  10.984  45.530  1.00  0.00     0.200 C 
HETATM   21  O2  UNL     1      30.868   9.895  45.831  1.00  0.00    -0.361 OA
HETATM   22  C17 UNL     1      31.810  10.301  46.770  1.00  0.00     0.440 C 
ENDBRANCH  17  18
ENDBRANCH  16  17
ENDBRANCH  15  16
ENDBRANCH  14  15
ENDBRANCH  13  14
ENDBRANCH  12  13
ENDBRANCH   4  12
BRANCH   1  23
HETATM   23  C6  UNL     1      26.401   3.247  49.855  1.00  0.00     0.180 C 
BRANCH  23  24
HETATM   24  N1  UNL     1      26.761   3.278  51.280  1.00  0.00    -0.384 N 
HETATM   25  H4  UNL     1      26.829   4.161  51.849  1.00  0.00     0.160 HD
BRANCH  24  26
HETATM   26  C5  UNL     1      27.043   2.073  51.988  1.00  0.00     0.031 A 
HETATM   27  C4  UNL     1      26.504   0.839  51.650  1.00  0.00     0.029 A 
HETATM   28  C3  UNL     1      26.819  -0.284  52.377  1.00  0.00     0.005 A 
HETATM   29  C2  UNL     1      27.681  -0.223  53.464  1.00  0.00     0.042 A 
HETATM   30  C1  UNL     1      28.244   0.997  53.835  1.00  0.00     0.118 A 
HETATM   31  F1  UNL     1      29.098   1.152  54.887  1.00  0.00    -0.206 F 
HETATM   32  C23 UNL     1      27.888   2.081  53.069  1.00  0.00     0.071 A 
ENDBRANCH  24  26
ENDBRANCH  23  24
ENDBRANCH   1  23
TORSDOF 10
ENDMDL
MODEL 6
REMARK VINA RESULT:      -7.0      3.110      7.413
REMARK  10 active torsions:
REMARK  status: ('A' for Active; 'I' for Inactive)
REMARK    1  A    between atoms: C5_6  and  N1_7 
REMARK    2  A    between atoms: N1_7  and  C6_8 
REMARK    3  A    between atoms: C6_8  and  C7_9 
REMARK    4  A    between atoms: C9_12  and  C10_13 
REMARK    5  A    between atoms: C10_13  and  O1_14 
REMARK    6  A    between atoms: O1_14  and  C11_15 
REMARK    7  A    between atoms: C11_15  and  C12_16 
REMARK    8  A    between atoms: C12_16  and  C13_17 
REMARK    9  A    between atoms: C13_17  and  C14_18 
REMARK   10  A    between atoms: C14_18  and  N3_19 
ROOT
HETATM    1  C7  UNL     1      27.305   5.482  48.592  1.00  0.00     0.065 A 
HETATM    2  N2  UNL     1      27.601   4.318  49.103  1.00  0.00    -0.262 NA
HETATM    3  C8  UNL     1      26.452   3.723  49.650  1.00  0.00     0.127 A 
HETATM    4  C9  UNL     1      25.387   4.485  49.507  1.00  0.00    -0.002 A 
HETATM    5  C18 UNL     1      25.883   5.677  48.807  1.00  0.00     0.031 A 
HETATM    6  C19 UNL     1      25.162   6.726  48.458  1.00  0.00     0.083 C 
HETATM    7  C20 UNL     1      25.381   8.021  47.790  1.00  0.00     0.233 C 
HETATM    8  O3  UNL     1      24.775   8.075  46.533  1.00  0.00    -0.383 OA
HETATM    9  C21 UNL     1      23.527   7.454  46.551  1.00  0.00     0.194 C 
HETATM   10  C22 UNL     1      22.940   7.462  47.962  1.00  0.00     0.201 C 
HETATM   11  O4  UNL     1      23.808   6.688  48.765  1.00  0.00    -0.350 OA
ENDROOT
BRANCH   4  12
HETATM   12  C10 UNL     1      23.970   4.185  49.966  1.00  0.00     0.208 C 
BRANCH  12  13
HETATM   13  O1  UNL     1      23.943   2.911  50.518  1.00  0.00    -0.387 OA
BRANCH  13  14
HETATM   14  C11 UNL     1      23.391   2.856  51.760  1.00  0.00     0.168 C 
BRANCH  14  15
HETATM   15  C12 UNL     1      24.253   2.419  52.892  1.00  0.00     0.028 C 
BRANCH  15  16
HETATM   16  C13 UNL     1      25.015   1.144  52.656  1.00  0.00     0.032 C 
BRANCH  16  17
HETATM   17  C14 UNL     1      26.183   0.889  53.519  1.00  0.00     0.275 C 
BRANCH  17  18
HETATM   18  N3  UNL     1      27.477   1.043  52.952  1.00  0.00     0.113 N 
HETATM   19  C15 UNL     1      28.413   0.034  53.418  1.00  0.00     0.301 C 
HETATM   20  C16 UNL     1      28.923   0.673  54.694  1.00  0.00     0.200 C 
HETATM   21  O2  UNL     1      28.850   2.030  54.498  1.00  0.00    -0.361 OA
HETATM   22  C17 UNL     1      28.154   2.246  53.314  1.00  0.00     0.440 C 
ENDBRANCH  17  18
ENDBRANCH  16  17
ENDBRANCH  15  16
ENDBRANCH  14  15
ENDBRANCH  13  14
ENDBRANCH  12  13
ENDBRANCH   4  12
BRANCH   1  23
HETATM   23  C6  UNL     1      28.347   6.311  47.949  1.00  0.00     0.180 C 
BRANCH  23  24
HETATM   24  N1  UNL     1      29.236   6.898  48.963  1.00  0.00    -0.384 N 
HETATM   25  H4  UNL     1      29.653   6.355  49.763  1.00  0.00     0.160 HD
BRANCH  24  26
HETATM   26  C5  UNL     1      29.592   8.278  48.911  1.00  0.00     0.031 A 
HETATM   27  C4  UNL     1      30.899   8.730  48.803  1.00  0.00     0.029 A 
HETATM   28  C3  UNL     1      31.172  10.078  48.759  1.00  0.00     0.005 A 
HETATM   29  C2  UNL     1      30.156  11.021  48.818  1.00  0.00     0.042 A 
HETATM   30  C1  UNL     1      28.829  10.608  48.926  1.00  0.00     0.118 A 
HETATM   31  F1  UNL     1      27.768  11.463  48.991  1.00  0.00    -0.206 F 
HETATM   32  C23 UNL     1      28.625   9.249  48.966  1.00  0.00     0.071 A 
ENDBRANCH  24  26
ENDBRANCH  23  24
ENDBRANCH   1  23
TORSDOF 10
ENDMDL
MODEL 7
REMARK VINA RESULT:      -7.0      5.741      8.110
REMARK  10 active torsions:
REMARK  status: ('A' for Active; 'I' for Inactive)
REMARK    1  A    between atoms: C5_6  and  N1_7 
REMARK    2  A    between atoms: N1_7  and  C6_8 
REMARK    3  A    between atoms: C6_8  and  C7_9 
REMARK    4  A    between atoms: C9_12  and  C10_13 
REMARK    5  A    between atoms: C10_13  and  O1_14 
REMARK    6  A    between atoms: O1_14  and  C11_15 
REMARK    7  A    between atoms: C11_15  and  C12_16 
REMARK    8  A    between atoms: C12_16  and  C13_17 
REMARK    9  A    between atoms: C13_17  and  C14_18 
REMARK   10  A    between atoms: C14_18  and  N3_19 
ROOT
HETATM    1  C7  UNL     1      23.008  -0.187  53.643  1.00  0.00     0.065 A 
HETATM    2  N2  UNL     1      22.026  -1.047  53.649  1.00  0.00    -0.262 NA
HETATM    3  C8  UNL     1      20.891  -0.490  53.037  1.00  0.00     0.127 A 
HETATM    4  C9  UNL     1      21.109   0.740  52.621  1.00  0.00    -0.002 A 
HETATM    5  C18 UNL     1      22.504   1.009  52.992  1.00  0.00     0.031 A 
HETATM    6  C19 UNL     1      23.160   2.135  52.780  1.00  0.00     0.083 C 
HETATM    7  C20 UNL     1      24.504   2.677  53.046  1.00  0.00     0.233 C 
HETATM    8  O3  UNL     1      25.242   2.854  51.874  1.00  0.00    -0.383 OA
HETATM    9  C21 UNL     1      24.440   3.341  50.844  1.00  0.00     0.194 C 
HETATM   10  C22 UNL     1      23.235   4.094  51.408  1.00  0.00     0.201 C 
HETATM   11  O4  UNL     1      22.470   3.149  52.128  1.00  0.00    -0.350 OA
ENDROOT
BRANCH   4  12
HETATM   12  C10 UNL     1      20.130   1.663  51.916  1.00  0.00     0.208 C 
BRANCH  12  13
HETATM   13  O1  UNL     1      19.727   1.060  50.731  1.00  0.00    -0.387 OA
BRANCH  13  14
HETATM   14  C11 UNL     1      20.200   1.668  49.611  1.00  0.00     0.168 C 
BRANCH  14  15
HETATM   15  C12 UNL     1      21.384   1.072  48.935  1.00  0.00     0.028 C 
BRANCH  15  16
HETATM   16  C13 UNL     1      22.259   2.052  48.202  1.00  0.00     0.032 C 
BRANCH  16  17
HETATM   17  C14 UNL     1      21.595   2.971  47.258  1.00  0.00     0.275 C 
BRANCH  17  18
HETATM   18  N3  UNL     1      22.294   4.147  46.871  1.00  0.00     0.113 N 
HETATM   19  C15 UNL     1      22.335   5.143  47.928  1.00  0.00     0.301 C 
HETATM   20  C16 UNL     1      21.028   5.873  47.695  1.00  0.00     0.200 C 
HETATM   21  O2  UNL     1      20.769   5.776  46.350  1.00  0.00    -0.361 OA
HETATM   22  C17 UNL     1      21.689   4.884  45.810  1.00  0.00     0.440 C 
ENDBRANCH  17  18
ENDBRANCH  16  17
ENDBRANCH  15  16
ENDBRANCH  14  15
ENDBRANCH  13  14
ENDBRANCH  12  13
ENDBRANCH   4  12
BRANCH   1  23
HETATM   23  C6  UNL     1      24.320  -0.535  54.229  1.00  0.00     0.180 C 
BRANCH  23  24
HETATM   24  N1  UNL     1      25.346  -0.622  53.181  1.00  0.00    -0.384 N 
HETATM   25  H4  UNL     1      25.132  -0.770  52.160  1.00  0.00     0.160 HD
BRANCH  24  26
HETATM   26  C5  UNL     1      26.731  -0.507  53.503  1.00  0.00     0.031 A 
HETATM   27  C4  UNL     1      27.260   0.530  54.258  1.00  0.00     0.029 A 
HETATM   28  C3  UNL     1      28.607   0.580  54.531  1.00  0.00     0.005 A 
HETATM   29  C2  UNL     1      29.474  -0.398  54.064  1.00  0.00     0.042 A 
HETATM   30  C1  UNL     1      28.982  -1.457  53.301  1.00  0.00     0.118 A 
HETATM   31  F1  UNL     1      29.760  -2.460  52.801  1.00  0.00    -0.206 F 
HETATM   32  C23 UNL     1      27.629  -1.447  53.064  1.00  0.00     0.071 A 
ENDBRANCH  24  26
ENDBRANCH  23  24
ENDBRANCH   1  23
TORSDOF 10
ENDMDL
MODEL 8
REMARK VINA RESULT:      -7.0      3.704      7.748
REMARK  10 active torsions:
REMARK  status: ('A' for Active; 'I' for Inactive)
REMARK    1  A    between atoms: C5_6  and  N1_7 
REMARK    2  A    between atoms: N1_7  and  C6_8 
REMARK    3  A    between atoms: C6_8  and  C7_9 
REMARK    4  A    between atoms: C9_12  and  C10_13 
REMARK    5  A    between atoms: C10_13  and  O1_14 
REMARK    6  A    between atoms: O1_14  and  C11_15 
REMARK    7  A    between atoms: C11_15  and  C12_16 
REMARK    8  A    between atoms: C12_16  and  C13_17 
REMARK    9  A    between atoms: C13_17  and  C14_18 
REMARK   10  A    between atoms: C14_18  and  N3_19 
ROOT
HETATM    1  C7  UNL     1      23.313   5.145  50.911  1.00  0.00     0.065 A 
HETATM    2  N2  UNL     1      23.849   5.190  52.101  1.00  0.00    -0.262 NA
HETATM    3  C8  UNL     1      23.577   4.003  52.800  1.00  0.00     0.127 A 
HETATM    4  C9  UNL     1      22.862   3.162  52.082  1.00  0.00    -0.002 A 
HETATM    5  C18 UNL     1      22.649   3.859  50.808  1.00  0.00     0.031 A 
HETATM    6  C19 UNL     1      21.968   3.396  49.776  1.00  0.00     0.083 C 
HETATM    7  C20 UNL     1      21.588   3.858  48.430  1.00  0.00     0.233 C 
HETATM    8  O3  UNL     1      22.234   3.137  47.423  1.00  0.00    -0.383 OA
HETATM    9  C21 UNL     1      22.311   1.783  47.745  1.00  0.00     0.194 C 
HETATM   10  C22 UNL     1      21.195   1.395  48.715  1.00  0.00     0.201 C 
HETATM   11  O4  UNL     1      21.421   2.126  49.904  1.00  0.00    -0.350 OA
ENDROOT
BRANCH   4  12
HETATM   12  C10 UNL     1      22.374   1.783  52.493  1.00  0.00     0.208 C 
BRANCH  12  13
HETATM   13  O1  UNL     1      23.398   0.869  52.282  1.00  0.00    -0.387 OA
BRANCH  13  14
HETATM   14  C11 UNL     1      23.223  -0.318  52.922  1.00  0.00     0.168 C 
BRANCH  14  15
HETATM   15  C12 UNL     1      23.803  -0.474  54.283  1.00  0.00     0.028 C 
BRANCH  15  16
HETATM   16  C13 UNL     1      25.288  -0.714  54.318  1.00  0.00     0.032 C 
BRANCH  16  17
HETATM   17  C14 UNL     1      26.159   0.472  54.421  1.00  0.00     0.275 C 
BRANCH  17  18
HETATM   18  N3  UNL     1      27.291   0.543  53.564  1.00  0.00     0.113 N 
HETATM   19  C15 UNL     1      27.682   1.912  53.272  1.00  0.00     0.301 C 
HETATM   20  C16 UNL     1      26.794   2.225  52.085  1.00  0.00     0.200 C 
HETATM   21  O2  UNL     1      26.582   1.031  51.440  1.00  0.00    -0.361 OA
HETATM   22  C17 UNL     1      27.087   0.021  52.252  1.00  0.00     0.440 C 
ENDBRANCH  17  18
ENDBRANCH  16  17
ENDBRANCH  15  16
ENDBRANCH  14  15
ENDBRANCH  13  14
ENDBRANCH  12  13
ENDBRANCH   4  12
BRANCH   1  23
HETATM   23  C6  UNL     1      23.459   6.279  49.974  1.00  0.00     0.180 C 
BRANCH  23  24
HETATM   24  N1  UNL     1      24.657   7.066  50.299  1.00  0.00    -0.384 N 
HETATM   25  H4  UNL     1      24.695   7.788  51.065  1.00  0.00     0.160 HD
BRANCH  24  26
HETATM   26  C5  UNL     1      25.870   6.885  49.571  1.00  0.00     0.031 A 
HETATM   27  C4  UNL     1      26.645   7.933  49.097  1.00  0.00     0.029 A 
HETATM   28  C3  UNL     1      27.805   7.687  48.400  1.00  0.00     0.005 A 
HETATM   29  C2  UNL     1      28.235   6.391  48.151  1.00  0.00     0.042 A 
HETATM   30  C1  UNL     1      27.485   5.309  48.611  1.00  0.00     0.118 A 
HETATM   31  F1  UNL     1      27.830   4.004  48.412  1.00  0.00    -0.206 F 
HETATM   32  C23 UNL     1      26.337   5.624  49.299  1.00  0.00     0.071 A 
ENDBRANCH  24  26
ENDBRANCH  23  24
ENDBRANCH   1  23
TORSDOF 10
ENDMDL
MODEL 9
REMARK VINA RESULT:      -6.9      4.899      7.606
REMARK  10 active torsions:
REMARK  status: ('A' for Active; 'I' for Inactive)
REMARK    1  A    between atoms: C5_6  and  N1_7 
REMARK    2  A    between atoms: N1_7  and  C6_8 
REMARK    3  A    between atoms: C6_8  and  C7_9 
REMARK    4  A    between atoms: C9_12  and  C10_13 
REMARK    5  A    between atoms: C10_13  and  O1_14 
REMARK    6  A    between atoms: O1_14  and  C11_15 
REMARK    7  A    between atoms: C11_15  and  C12_16 
REMARK    8  A    between atoms: C12_16  and  C13_17 
REMARK    9  A    between atoms: C13_17  and  C14_18 
REMARK   10  A    between atoms: C14_18  and  N3_19 
ROOT
HETATM    1  C7  UNL     1      23.811  -0.180  53.465  1.00  0.00     0.065 A 
HETATM    2  N2  UNL     1      22.761  -0.954  53.513  1.00  0.00    -0.262 NA
HETATM    3  C8  UNL     1      21.697  -0.373  52.804  1.00  0.00     0.127 A 
HETATM    4  C9  UNL     1      22.031   0.788  52.280  1.00  0.00    -0.002 A 
HETATM    5  C18 UNL     1      23.431   0.981  52.680  1.00  0.00     0.031 A 
HETATM    6  C19 UNL     1      24.184   2.024  52.387  1.00  0.00     0.083 C 
HETATM    7  C20 UNL     1      25.559   2.481  52.654  1.00  0.00     0.233 C 
HETATM    8  O3  UNL     1      26.348   2.480  51.502  1.00  0.00    -0.383 OA
HETATM    9  C21 UNL     1      25.624   2.924  50.397  1.00  0.00     0.194 C 
HETATM   10  C22 UNL     1      24.468   3.824  50.835  1.00  0.00     0.201 C 
HETATM   11  O4  UNL     1      23.603   3.020  51.612  1.00  0.00    -0.350 OA
ENDROOT
BRANCH   4  12
HETATM   12  C10 UNL     1      21.155   1.711  51.449  1.00  0.00     0.208 C 
BRANCH  12  13
HETATM   13  O1  UNL     1      20.421   2.518  52.308  1.00  0.00    -0.387 OA
BRANCH  13  14
HETATM   14  C11 UNL     1      19.851   3.596  51.705  1.00  0.00     0.168 C 
BRANCH  14  15
HETATM   15  C12 UNL     1      20.514   4.156  50.498  1.00  0.00     0.028 C 
BRANCH  15  16
HETATM   16  C13 UNL     1      20.412   5.650  50.351  1.00  0.00     0.032 C 
BRANCH  16  17
HETATM   17  C14 UNL     1      21.551   6.453  50.833  1.00  0.00     0.275 C 
BRANCH  17  18
HETATM   18  N3  UNL     1      22.640   6.664  49.944  1.00  0.00     0.113 N 
HETATM   19  C15 UNL     1      23.296   7.942  50.162  1.00  0.00     0.301 C 
HETATM   20  C16 UNL     1      22.450   8.859  49.303  1.00  0.00     0.200 C 
HETATM   21  O2  UNL     1      21.970   8.084  48.276  1.00  0.00    -0.361 OA
HETATM   22  C17 UNL     1      22.283   6.761  48.566  1.00  0.00     0.440 C 
ENDBRANCH  17  18
ENDBRANCH  16  17
ENDBRANCH  15  16
ENDBRANCH  14  15
ENDBRANCH  13  14
ENDBRANCH  12  13
ENDBRANCH   4  12
BRANCH   1  23
HETATM   23  C6  UNL     1      25.069  -0.571  54.135  1.00  0.00     0.180 C 
BRANCH  23  24
HETATM   24  N1  UNL     1      26.048  -1.057  53.152  1.00  0.00    -0.384 N 
HETATM   25  H4  UNL     1      25.787  -1.549  52.259  1.00  0.00     0.160 HD
BRANCH  24  26
HETATM   26  C5  UNL     1      27.447  -0.880  53.365  1.00  0.00     0.031 A 
HETATM   27  C4  UNL     1      28.396  -1.852  53.083  1.00  0.00     0.029 A 
HETATM   28  C3  UNL     1      29.731  -1.614  53.314  1.00  0.00     0.005 A 
HETATM   29  C2  UNL     1      30.169  -0.403  53.832  1.00  0.00     0.042 A 
HETATM   30  C1  UNL     1      29.247   0.600  54.128  1.00  0.00     0.118 A 
HETATM   31  F1  UNL     1      29.586   1.819  54.639  1.00  0.00    -0.206 F 
HETATM   32  C23 UNL     1      27.930   0.299  53.875  1.00  0.00     0.071 A 
ENDBRANCH  24  26
ENDBRANCH  23  24
ENDBRANCH   1  23
TORSDOF 10
ENDMDL
