MODEL 1
REMARK VINA RESULT:      -7.7      0.000      0.000
REMARK  4 active torsions:
REMARK  status: ('A' for Active; 'I' for Inactive)
REMARK    1  A    between atoms: O1_1  and  C1_2 
REMARK    2  A    between atoms: C5_6  and  C6_7 
REMARK    3  A    between atoms: C9_10  and  N1_11 
REMARK    4  A    between atoms: N1_11  and  C10_12 
ROOT
HETATM    1  C6  UNL     1      25.153   2.605  51.925  1.00  0.00     0.019 C 
HETATM    2  C7  UNL     1      24.271   1.808  51.355  1.00  0.00    -0.007 C 
HETATM    3  C8  UNL     1      23.589   0.942  52.088  1.00  0.00     0.063 C 
HETATM    4  C9  UNL     1      24.571   0.048  52.755  1.00  0.00     0.129 C 
HETATM    5  N2  UNL     1      25.715  -0.364  52.255  1.00  0.00    -0.225 NA
HETATM    6  C12 UNL     1      26.595  -1.212  52.948  1.00  0.00     0.236 C 
HETATM    7  N3  UNL     1      27.684  -0.748  53.486  1.00  0.00    -0.241 NA
HETATM    8  C13 UNL     1      28.001   0.633  53.381  1.00  0.00     0.207 C 
HETATM    9  N4  UNL     1      27.073   1.276  54.033  1.00  0.00    -0.148 NA
HETATM   10  N5  UNL     1      27.209   2.683  54.048  1.00  0.00    -0.307 N 
HETATM   11  P1  UNL     1      25.501   2.210  53.674  1.00  0.00     0.067 P 
HETATM   12  H11 UNL     1      27.305   3.731  54.058  1.00  0.00     0.181 HD
HETATM   13  H12 UNL     1      24.618   2.960  54.535  1.00  0.00     0.098 HD
ENDROOT
BRANCH   1  14
HETATM   14  C5  UNL     1      25.508   3.531  50.854  1.00  0.00    -0.019 A 
HETATM   15  C4  UNL     1      24.493   4.437  50.566  1.00  0.00     0.012 A 
HETATM   16  C3  UNL     1      24.677   5.389  49.566  1.00  0.00     0.004 A 
HETATM   17  C2  UNL     1      25.888   5.377  48.902  1.00  0.00     0.036 A 
HETATM   18  C1  UNL     1      26.886   4.472  49.200  1.00  0.00     0.066 A 
HETATM   19  C14 UNL     1      26.707   3.528  50.190  1.00  0.00     0.049 A 
BRANCH  18  20
HETATM   20  O1  UNL     1      28.104   4.484  48.510  1.00  0.00    -0.361 OA
HETATM   21  H1  UNL     1      28.672   5.318  48.487  1.00  0.00     0.217 HD
ENDBRANCH  18  20
ENDBRANCH   1  14
BRANCH   4  22
HETATM   22  N1  UNL     1      24.253  -0.446  54.077  1.00  0.00    -0.349 N 
HETATM   23  H6  UNL     1      25.018  -0.478  54.816  1.00  0.00     0.167 HD
BRANCH  22  24
HETATM   24  C10 UNL     1      22.975  -0.908  54.500  1.00  0.00     0.119 C 
HETATM   25  C11 UNL     1      23.347  -1.478  55.659  1.00  0.00     0.205 C 
HETATM   26  F1  UNL     1      24.702  -1.264  55.712  1.00  0.00    -0.218 F 
ENDBRANCH  22  24
ENDBRANCH   4  22
TORSDOF 4
ENDMDL
MODEL 2
REMARK VINA RESULT:      -7.1      4.398      6.916
REMARK  4 active torsions:
REMARK  status: ('A' for Active; 'I' for Inactive)
REMARK    1  A    between atoms: O1_1  and  C1_2 
REMARK    2  A    between atoms: C5_6  and  C6_7 
REMARK    3  A    between atoms: C9_10  and  N1_11 
REMARK    4  A    between atoms: N1_11  and  C10_12 
ROOT
HETATM    1  C6  UNL     1      23.003   1.104  51.876  1.00  0.00     0.019 C 
HETATM    2  C7  UNL     1      21.901   0.696  51.278  1.00  0.00    -0.007 C 
HETATM    3  C8  UNL     1      21.620   1.108  50.052  1.00  0.00     0.063 C 
HETATM    4  C9  UNL     1      21.536   2.592  50.086  1.00  0.00     0.129 C 
HETATM    5  N2  UNL     1      21.085   3.324  51.080  1.00  0.00    -0.225 NA
HETATM    6  C12 UNL     1      21.036   4.727  51.040  1.00  0.00     0.236 C 
HETATM    7  N3  UNL     1      21.901   5.444  51.695  1.00  0.00    -0.241 NA
HETATM    8  C13 UNL     1      22.915   4.813  52.465  1.00  0.00     0.207 C 
HETATM    9  N4  UNL     1      23.670   4.167  51.622  1.00  0.00    -0.148 NA
HETATM   10  N5  UNL     1      24.753   3.464  52.198  1.00  0.00    -0.307 N 
HETATM   11  P1  UNL     1      23.891   2.429  50.987  1.00  0.00     0.067 P 
HETATM   12  H11 UNL     1      25.558   2.936  52.623  1.00  0.00     0.181 HD
HETATM   13  H12 UNL     1      24.869   1.856  50.094  1.00  0.00     0.098 HD
ENDROOT
BRANCH   1  14
HETATM   14  C5  UNL     1      23.059   0.273  53.075  1.00  0.00    -0.019 A 
HETATM   15  C4  UNL     1      21.799  -0.062  53.559  1.00  0.00     0.012 A 
HETATM   16  C3  UNL     1      21.683  -0.852  54.700  1.00  0.00     0.004 A 
HETATM   17  C2  UNL     1      22.856  -1.267  55.300  1.00  0.00     0.036 A 
HETATM   18  C1  UNL     1      24.099  -0.926  54.807  1.00  0.00     0.066 A 
HETATM   19  C14 UNL     1      24.219  -0.144  53.677  1.00  0.00     0.049 A 
BRANCH  18  20
HETATM   20  O1  UNL     1      25.272  -1.362  55.436  1.00  0.00    -0.361 OA
HETATM   21  H1  UNL     1      25.733  -2.206  55.133  1.00  0.00     0.217 HD
ENDBRANCH  18  20
ENDBRANCH   1  14
BRANCH   4  22
HETATM   22  N1  UNL     1      21.971   3.325  48.917  1.00  0.00    -0.349 N 
HETATM   23  H6  UNL     1      22.781   4.009  49.006  1.00  0.00     0.167 HD
BRANCH  22  24
HETATM   24  C10 UNL     1      21.402   3.216  47.617  1.00  0.00     0.119 C 
HETATM   25  C11 UNL     1      22.066   4.227  47.029  1.00  0.00     0.205 C 
HETATM   26  F1  UNL     1      22.863   4.724  48.030  1.00  0.00    -0.218 F 
ENDBRANCH  22  24
ENDBRANCH   4  22
TORSDOF 4
ENDMDL
MODEL 3
REMARK VINA RESULT:      -7.1      4.528      6.335
REMARK  4 active torsions:
REMARK  status: ('A' for Active; 'I' for Inactive)
REMARK    1  A    between atoms: O1_1  and  C1_2 
REMARK    2  A    between atoms: C5_6  and  C6_7 
REMARK    3  A    between atoms: C9_10  and  N1_11 
REMARK    4  A    between atoms: N1_11  and  C10_12 
ROOT
HETATM    1  C6  UNL     1      22.635   0.732  52.479  1.00  0.00     0.019 C 
HETATM    2  C7  UNL     1      21.793   0.470  53.457  1.00  0.00    -0.007 C 
HETATM    3  C8  UNL     1      20.527   0.194  53.187  1.00  0.00     0.063 C 
HETATM    4  C9  UNL     1      19.958   1.362  52.465  1.00  0.00     0.129 C 
HETATM    5  N2  UNL     1      20.264   2.625  52.662  1.00  0.00    -0.225 NA
HETATM    6  C12 UNL     1      19.682   3.678  51.937  1.00  0.00     0.236 C 
HETATM    7  N3  UNL     1      20.343   4.287  50.997  1.00  0.00    -0.241 NA
HETATM    8  C13 UNL     1      21.672   3.891  50.687  1.00  0.00     0.207 C 
HETATM    9  N4  UNL     1      21.598   2.673  50.231  1.00  0.00    -0.148 NA
HETATM   10  N5  UNL     1      22.831   2.090  49.860  1.00  0.00    -0.307 N 
HETATM   11  P1  UNL     1      21.847   0.930  50.843  1.00  0.00     0.067 P 
HETATM   12  H11 UNL     1      23.748   1.651  49.587  1.00  0.00     0.181 HD
HETATM   13  H12 UNL     1      21.809  -0.338  50.156  1.00  0.00     0.098 HD
ENDROOT
BRANCH   1  14
HETATM   14  C5  UNL     1      23.931   0.756  53.151  1.00  0.00    -0.019 A 
HETATM   15  C4  UNL     1      24.225  -0.438  53.800  1.00  0.00     0.012 A 
HETATM   16  C3  UNL     1      25.427  -0.574  54.489  1.00  0.00     0.004 A 
HETATM   17  C2  UNL     1      26.280   0.512  54.487  1.00  0.00     0.036 A 
HETATM   18  C1  UNL     1      25.974   1.690  53.837  1.00  0.00     0.066 A 
HETATM   19  C14 UNL     1      24.785   1.830  53.154  1.00  0.00     0.049 A 
BRANCH  18  20
HETATM   20  O1  UNL     1      26.860   2.775  53.853  1.00  0.00    -0.361 OA
HETATM   21  H1  UNL     1      27.604   2.821  54.532  1.00  0.00     0.217 HD
ENDBRANCH  18  20
ENDBRANCH   1  14
BRANCH   4  22
HETATM   22  N1  UNL     1      18.954   1.112  51.453  1.00  0.00    -0.349 N 
HETATM   23  H6  UNL     1      18.848   1.800  50.648  1.00  0.00     0.167 HD
BRANCH  22  24
HETATM   24  C10 UNL     1      18.065   0.001  51.429  1.00  0.00     0.119 C 
HETATM   25  C11 UNL     1      17.611   0.143  50.172  1.00  0.00     0.205 C 
HETATM   26  F1  UNL     1      18.274   1.249  49.704  1.00  0.00    -0.218 F 
ENDBRANCH  22  24
ENDBRANCH   4  22
TORSDOF 4
ENDMDL
MODEL 4
REMARK VINA RESULT:      -6.9      2.619      3.357
REMARK  4 active torsions:
REMARK  status: ('A' for Active; 'I' for Inactive)
REMARK    1  A    between atoms: O1_1  and  C1_2 
REMARK    2  A    between atoms: C5_6  and  C6_7 
REMARK    3  A    between atoms: C9_10  and  N1_11 
REMARK    4  A    between atoms: N1_11  and  C10_12 
ROOT
HETATM    1  C6  UNL     1      24.121   4.252  50.033  1.00  0.00     0.019 C 
HETATM    2  C7  UNL     1      23.859   3.309  49.150  1.00  0.00    -0.007 C 
HETATM    3  C8  UNL     1      22.796   2.535  49.302  1.00  0.00     0.063 C 
HETATM    4  C9  UNL     1      22.931   1.839  50.608  1.00  0.00     0.129 C 
HETATM    5  N2  UNL     1      24.050   1.430  51.162  1.00  0.00    -0.225 NA
HETATM    6  C12 UNL     1      24.099   0.778  52.405  1.00  0.00     0.236 C 
HETATM    7  N3  UNL     1      24.502   1.403  53.472  1.00  0.00    -0.241 NA
HETATM    8  C13 UNL     1      24.900   2.764  53.394  1.00  0.00     0.207 C 
HETATM    9  N4  UNL     1      23.838   3.441  53.060  1.00  0.00    -0.148 NA
HETATM   10  N5  UNL     1      24.027   4.836  52.930  1.00  0.00    -0.307 N 
HETATM   11  P1  UNL     1      23.077   4.187  51.530  1.00  0.00     0.067 P 
HETATM   12  H11 UNL     1      24.164   5.875  52.828  1.00  0.00     0.181 HD
HETATM   13  H12 UNL     1      21.904   5.008  51.351  1.00  0.00     0.098 HD
ENDROOT
BRANCH   1  14
HETATM   14  C5  UNL     1      25.204   5.004  49.408  1.00  0.00    -0.019 A 
HETATM   15  C4  UNL     1      24.758   6.138  48.739  1.00  0.00     0.012 A 
HETATM   16  C3  UNL     1      25.672   6.964  48.090  1.00  0.00     0.004 A 
HETATM   17  C2  UNL     1      27.003   6.598  48.148  1.00  0.00     0.036 A 
HETATM   18  C1  UNL     1      27.430   5.469  48.816  1.00  0.00     0.066 A 
HETATM   19  C14 UNL     1      26.528   4.648  49.461  1.00  0.00     0.049 A 
BRANCH  18  20
HETATM   20  O1  UNL     1      28.786   5.123  48.859  1.00  0.00    -0.361 OA
HETATM   21  H1  UNL     1      29.483   5.730  48.454  1.00  0.00     0.217 HD
ENDBRANCH  18  20
ENDBRANCH   1  14
BRANCH   4  22
HETATM   22  N1  UNL     1      21.724   1.558  51.356  1.00  0.00    -0.349 N 
HETATM   23  H6  UNL     1      21.574   2.034  52.296  1.00  0.00     0.167 HD
BRANCH  22  24
HETATM   24  C10 UNL     1      20.685   0.677  50.944  1.00  0.00     0.119 C 
HETATM   25  C11 UNL     1      20.063   0.543  52.128  1.00  0.00     0.205 C 
HETATM   26  F1  UNL     1      20.803   1.324  52.980  1.00  0.00    -0.218 F 
ENDBRANCH  22  24
ENDBRANCH   4  22
TORSDOF 4
ENDMDL
MODEL 5
REMARK VINA RESULT:      -6.8      4.434      7.106
REMARK  4 active torsions:
REMARK  status: ('A' for Active; 'I' for Inactive)
REMARK    1  A    between atoms: O1_1  and  C1_2 
REMARK    2  A    between atoms: C5_6  and  C6_7 
REMARK    3  A    between atoms: C9_10  and  N1_11 
REMARK    4  A    between atoms: N1_11  and  C10_12 
ROOT
HETATM    1  C6  UNL     1      22.945   1.758  52.602  1.00  0.00     0.019 C 
HETATM    2  C7  UNL     1      24.025   1.249  52.043  1.00  0.00    -0.007 C 
HETATM    3  C8  UNL     1      24.912   2.046  51.468  1.00  0.00     0.063 C 
HETATM    4  C9  UNL     1      24.212   2.793  50.391  1.00  0.00     0.129 C 
HETATM    5  N2  UNL     1      23.239   2.339  49.633  1.00  0.00    -0.225 NA
HETATM    6  C12 UNL     1      22.623   3.107  48.631  1.00  0.00     0.236 C 
HETATM    7  N3  UNL     1      21.439   3.613  48.811  1.00  0.00    -0.241 NA
HETATM    8  C13 UNL     1      20.747   3.396  50.033  1.00  0.00     0.207 C 
HETATM    9  N4  UNL     1      21.446   3.985  50.962  1.00  0.00    -0.148 NA
HETATM   10  N5  UNL     1      20.918   3.884  52.270  1.00  0.00    -0.307 N 
HETATM   11  P1  UNL     1      22.696   3.536  52.270  1.00  0.00     0.067 P 
HETATM   12  H11 UNL     1      20.530   3.808  53.245  1.00  0.00     0.181 HD
HETATM   13  H12 UNL     1      23.318   4.324  53.307  1.00  0.00     0.098 HD
ENDROOT
BRANCH   1  14
HETATM   14  C5  UNL     1      22.360   0.616  53.300  1.00  0.00    -0.019 A 
HETATM   15  C4  UNL     1      21.054   0.353  52.904  1.00  0.00     0.012 A 
HETATM   16  C3  UNL     1      20.356  -0.707  53.477  1.00  0.00     0.004 A 
HETATM   17  C2  UNL     1      21.020  -1.455  54.430  1.00  0.00     0.036 A 
HETATM   18  C1  UNL     1      22.318  -1.181  54.812  1.00  0.00     0.066 A 
HETATM   19  C14 UNL     1      23.012  -0.132  54.246  1.00  0.00     0.049 A 
BRANCH  18  20
HETATM   20  O1  UNL     1      22.965  -1.957  55.781  1.00  0.00    -0.361 OA
HETATM   21  H1  UNL     1      22.455  -2.320  56.572  1.00  0.00     0.217 HD
ENDBRANCH  18  20
ENDBRANCH   1  14
BRANCH   4  22
HETATM   22  N1  UNL     1      24.636   4.149  50.118  1.00  0.00    -0.349 N 
HETATM   23  H6  UNL     1      23.941   4.945  50.246  1.00  0.00     0.167 HD
BRANCH  22  24
HETATM   24  C10 UNL     1      25.934   4.534  49.679  1.00  0.00     0.119 C 
HETATM   25  C11 UNL     1      25.741   5.865  49.648  1.00  0.00     0.205 C 
HETATM   26  F1  UNL     1      24.438   6.019  50.051  1.00  0.00    -0.218 F 
ENDBRANCH  22  24
ENDBRANCH   4  22
TORSDOF 4
ENDMDL
MODEL 6
REMARK VINA RESULT:      -6.8      3.915      5.647
REMARK  4 active torsions:
REMARK  status: ('A' for Active; 'I' for Inactive)
REMARK    1  A    between atoms: O1_1  and  C1_2 
REMARK    2  A    between atoms: C5_6  and  C6_7 
REMARK    3  A    between atoms: C9_10  and  N1_11 
REMARK    4  A    between atoms: N1_11  and  C10_12 
ROOT
HETATM    1  C6  UNL     1      24.586   1.645  51.796  1.00  0.00     0.019 C 
HETATM    2  C7  UNL     1      23.795   1.375  52.815  1.00  0.00    -0.007 C 
HETATM    3  C8  UNL     1      22.481   1.400  52.660  1.00  0.00     0.063 C 
HETATM    4  C9  UNL     1      22.109   2.766  52.209  1.00  0.00     0.129 C 
HETATM    5  N2  UNL     1      22.688   3.890  52.567  1.00  0.00    -0.225 NA
HETATM    6  C12 UNL     1      22.280   5.149  52.097  1.00  0.00     0.236 C 
HETATM    7  N3  UNL     1      22.970   5.781  51.194  1.00  0.00    -0.241 NA
HETATM    8  C13 UNL     1      24.154   5.202  50.666  1.00  0.00     0.207 C 
HETATM    9  N4  UNL     1      23.787   4.124  50.032  1.00  0.00    -0.148 NA
HETATM   10  N5  UNL     1      24.834   3.393  49.425  1.00  0.00    -0.307 N 
HETATM   11  P1  UNL     1      23.718   2.284  50.322  1.00  0.00     0.067 P 
HETATM   12  H11 UNL     1      25.612   2.845  48.976  1.00  0.00     0.181 HD
HETATM   13  H12 UNL     1      23.357   1.193  49.450  1.00  0.00     0.098 HD
ENDROOT
BRANCH   1  14
HETATM   14  C5  UNL     1      25.912   1.298  52.301  1.00  0.00    -0.019 A 
HETATM   15  C4  UNL     1      26.074  -0.069  52.496  1.00  0.00     0.012 A 
HETATM   16  C3  UNL     1      27.285  -0.561  52.975  1.00  0.00     0.004 A 
HETATM   17  C2  UNL     1      28.281   0.361  53.235  1.00  0.00     0.036 A 
HETATM   18  C1  UNL     1      28.104   1.715  53.035  1.00  0.00     0.066 A 
HETATM   19  C14 UNL     1      26.906   2.207  52.560  1.00  0.00     0.049 A 
BRANCH  18  20
HETATM   20  O1  UNL     1      29.132   2.627  53.306  1.00  0.00    -0.361 OA
HETATM   21  H1  UNL     1      29.110   3.190  54.143  1.00  0.00     0.217 HD
ENDBRANCH  18  20
ENDBRANCH   1  14
BRANCH   4  22
HETATM   22  N1  UNL     1      20.991   2.902  51.299  1.00  0.00    -0.349 N 
HETATM   23  H6  UNL     1      21.174   3.207  50.296  1.00  0.00     0.167 HD
BRANCH  22  24
HETATM   24  C10 UNL     1      19.628   2.659  51.627  1.00  0.00     0.119 C 
HETATM   25  C11 UNL     1      19.061   3.322  50.604  1.00  0.00     0.205 C 
HETATM   26  F1  UNL     1      20.130   3.811  49.895  1.00  0.00    -0.218 F 
ENDBRANCH  22  24
ENDBRANCH   4  22
TORSDOF 4
ENDMDL
MODEL 7
REMARK VINA RESULT:      -6.7      3.555      4.784
REMARK  4 active torsions:
REMARK  status: ('A' for Active; 'I' for Inactive)
REMARK    1  A    between atoms: O1_1  and  C1_2 
REMARK    2  A    between atoms: C5_6  and  C6_7 
REMARK    3  A    between atoms: C9_10  and  N1_11 
REMARK    4  A    between atoms: N1_11  and  C10_12 
ROOT
HETATM    1  C6  UNL     1      24.994   3.776  49.654  1.00  0.00     0.019 C 
HETATM    2  C7  UNL     1      25.492   3.417  50.820  1.00  0.00    -0.007 C 
HETATM    3  C8  UNL     1      24.927   2.438  51.510  1.00  0.00     0.063 C 
HETATM    4  C9  UNL     1      23.519   2.834  51.776  1.00  0.00     0.129 C 
HETATM    5  N2  UNL     1      23.081   4.052  52.000  1.00  0.00    -0.225 NA
HETATM    6  C12 UNL     1      21.730   4.350  52.244  1.00  0.00     0.236 C 
HETATM    7  N3  UNL     1      20.990   4.897  51.326  1.00  0.00    -0.241 NA
HETATM    8  C13 UNL     1      21.541   5.203  50.053  1.00  0.00     0.207 C 
HETATM    9  N4  UNL     1      21.865   4.064  49.507  1.00  0.00    -0.148 NA
HETATM   10  N5  UNL     1      22.437   4.153  48.218  1.00  0.00    -0.307 N 
HETATM   11  P1  UNL     1      23.383   3.012  49.260  1.00  0.00     0.067 P 
HETATM   12  H11 UNL     1      22.868   4.215  47.260  1.00  0.00     0.181 HD
HETATM   13  H12 UNL     1      23.584   1.783  48.530  1.00  0.00     0.098 HD
ENDROOT
BRANCH   1  14
HETATM   14  C5  UNL     1      26.001   4.694  49.129  1.00  0.00    -0.019 A 
HETATM   15  C4  UNL     1      25.479   5.942  48.810  1.00  0.00     0.012 A 
HETATM   16  C3  UNL     1      26.314   6.931  48.297  1.00  0.00     0.004 A 
HETATM   17  C2  UNL     1      27.646   6.606  48.129  1.00  0.00     0.036 A 
HETATM   18  C1  UNL     1      28.149   5.361  48.451  1.00  0.00     0.066 A 
HETATM   19  C14 UNL     1      27.325   4.379  48.960  1.00  0.00     0.049 A 
BRANCH  18  20
HETATM   20  O1  UNL     1      29.504   5.060  48.271  1.00  0.00    -0.361 OA
HETATM   21  H1  UNL     1      29.980   4.435  48.905  1.00  0.00     0.217 HD
ENDBRANCH  18  20
ENDBRANCH   1  14
BRANCH   4  22
HETATM   22  N1  UNL     1      22.516   1.791  51.816  1.00  0.00    -0.349 N 
HETATM   23  H6  UNL     1      21.807   1.724  51.025  1.00  0.00     0.167 HD
BRANCH  22  24
HETATM   24  C10 UNL     1      22.381   0.816  52.843  1.00  0.00     0.119 C 
HETATM   25  C11 UNL     1      21.699  -0.109  52.144  1.00  0.00     0.205 C 
HETATM   26  F1  UNL     1      21.561   0.453  50.900  1.00  0.00    -0.218 F 
ENDBRANCH  22  24
ENDBRANCH   4  22
TORSDOF 4
ENDMDL
MODEL 8
REMARK VINA RESULT:      -6.7      3.545      6.027
REMARK  4 active torsions:
REMARK  status: ('A' for Active; 'I' for Inactive)
REMARK    1  A    between atoms: O1_1  and  C1_2 
REMARK    2  A    between atoms: C5_6  and  C6_7 
REMARK    3  A    between atoms: C9_10  and  N1_11 
REMARK    4  A    between atoms: N1_11  and  C10_12 
ROOT
HETATM    1  C6  UNL     1      25.857   1.907  52.140  1.00  0.00     0.019 C 
HETATM    2  C7  UNL     1      26.471   2.470  51.119  1.00  0.00    -0.007 C 
HETATM    3  C8  UNL     1      26.051   3.635  50.652  1.00  0.00     0.063 C 
HETATM    4  C9  UNL     1      24.636   3.465  50.231  1.00  0.00     0.129 C 
HETATM    5  N2  UNL     1      24.104   2.385  49.704  1.00  0.00    -0.225 NA
HETATM    6  C12 UNL     1      22.753   2.298  49.329  1.00  0.00     0.236 C 
HETATM    7  N3  UNL     1      21.900   1.637  50.054  1.00  0.00    -0.241 NA
HETATM    8  C13 UNL     1      22.325   0.989  51.245  1.00  0.00     0.207 C 
HETATM    9  N4  UNL     1      22.712   1.931  52.059  1.00  0.00    -0.148 NA
HETATM   10  N5  UNL     1      23.178   1.487  53.318  1.00  0.00    -0.307 N 
HETATM   11  P1  UNL     1      24.299   2.729  52.624  1.00  0.00     0.067 P 
HETATM   12  H11 UNL     1      23.530   1.160  54.255  1.00  0.00     0.181 HD
HETATM   13  H12 UNL     1      24.560   3.727  53.632  1.00  0.00     0.098 HD
ENDROOT
BRANCH   1  14
HETATM   14  C5  UNL     1      26.733   0.791  52.483  1.00  0.00    -0.019 A 
HETATM   15  C4  UNL     1      27.895   1.196  53.130  1.00  0.00     0.012 A 
HETATM   16  C3  UNL     1      28.836   0.247  53.524  1.00  0.00     0.004 A 
HETATM   17  C2  UNL     1      28.552  -1.075  53.242  1.00  0.00     0.036 A 
HETATM   18  C1  UNL     1      27.393  -1.461  52.599  1.00  0.00     0.066 A 
HETATM   19  C14 UNL     1      26.459  -0.524  52.208  1.00  0.00     0.049 A 
BRANCH  18  20
HETATM   20  O1  UNL     1      27.132  -2.809  52.327  1.00  0.00    -0.361 OA
HETATM   21  H1  UNL     1      27.670  -3.306  51.633  1.00  0.00     0.217 HD
ENDBRANCH  18  20
ENDBRANCH   1  14
BRANCH   4  22
HETATM   22  N1  UNL     1      23.739   4.590  50.389  1.00  0.00    -0.349 N 
HETATM   23  H6  UNL     1      22.858   4.472  50.973  1.00  0.00     0.167 HD
BRANCH  22  24
HETATM   24  C10 UNL     1      23.927   5.881  49.819  1.00  0.00     0.119 C 
HETATM   25  C11 UNL     1      23.180   6.586  50.686  1.00  0.00     0.205 C 
HETATM   26  F1  UNL     1      22.710   5.640  51.562  1.00  0.00    -0.218 F 
ENDBRANCH  22  24
ENDBRANCH   4  22
TORSDOF 4
ENDMDL
MODEL 9
REMARK VINA RESULT:      -6.6      7.521      9.759
REMARK  4 active torsions:
REMARK  status: ('A' for Active; 'I' for Inactive)
REMARK    1  A    between atoms: O1_1  and  C1_2 
REMARK    2  A    between atoms: C5_6  and  C6_7 
REMARK    3  A    between atoms: C9_10  and  N1_11 
REMARK    4  A    between atoms: N1_11  and  C10_12 
ROOT
HETATM    1  C6  UNL     1      30.188   5.959  48.475  1.00  0.00     0.019 C 
HETATM    2  C7  UNL     1      30.488   5.091  47.530  1.00  0.00    -0.007 C 
HETATM    3  C8  UNL     1      31.737   4.676  47.383  1.00  0.00     0.063 C 
HETATM    4  C9  UNL     1      32.578   5.872  47.116  1.00  0.00     0.129 C 
HETATM    5  N2  UNL     1      32.221   6.941  46.439  1.00  0.00    -0.225 NA
HETATM    6  C12 UNL     1      33.074   8.037  46.228  1.00  0.00     0.236 C 
HETATM    7  N3  UNL     1      32.918   9.142  46.895  1.00  0.00    -0.241 NA
HETATM    8  C13 UNL     1      31.877   9.257  47.854  1.00  0.00     0.207 C 
HETATM    9  N4  UNL     1      32.147   8.399  48.797  1.00  0.00    -0.148 NA
HETATM   10  N5  UNL     1      31.217   8.358  49.862  1.00  0.00    -0.307 N 
HETATM   11  P1  UNL     1      31.638   6.683  49.316  1.00  0.00     0.067 P 
HETATM   12  H11 UNL     1      30.525   8.322  50.654  1.00  0.00     0.181 HD
HETATM   13  H12 UNL     1      31.980   5.895  50.476  1.00  0.00     0.098 HD
ENDROOT
BRANCH   1  14
HETATM   14  C5  UNL     1      28.728   5.982  48.455  1.00  0.00    -0.019 A 
HETATM   15  C4  UNL     1      28.214   7.179  47.969  1.00  0.00     0.012 A 
HETATM   16  C3  UNL     1      26.835   7.357  47.887  1.00  0.00     0.004 A 
HETATM   17  C2  UNL     1      26.039   6.309  48.304  1.00  0.00     0.036 A 
HETATM   18  C1  UNL     1      26.565   5.127  48.784  1.00  0.00     0.066 A 
HETATM   19  C14 UNL     1      27.930   4.945  48.866  1.00  0.00     0.049 A 
BRANCH  18  20
HETATM   20  O1  UNL     1      25.732   4.080  49.199  1.00  0.00    -0.361 OA
HETATM   21  H1  UNL     1      25.666   3.232  48.657  1.00  0.00     0.217 HD
ENDBRANCH  18  20
ENDBRANCH   1  14
BRANCH   4  22
HETATM   22  N1  UNL     1      33.932   5.878  47.625  1.00  0.00    -0.349 N 
HETATM   23  H6  UNL     1      34.486   6.787  47.614  1.00  0.00     0.167 HD
BRANCH  22  24
HETATM   24  C10 UNL     1      34.619   4.750  48.155  1.00  0.00     0.119 C 
HETATM   25  C11 UNL     1      35.414   5.398  49.024  1.00  0.00     0.205 C 
HETATM   26  F1  UNL     1      35.076   6.717  48.862  1.00  0.00    -0.218 F 
ENDBRANCH  22  24
ENDBRANCH   4  22
TORSDOF 4
ENDMDL
