MODEL 1
REMARK VINA RESULT:      -6.8      0.000      0.000
REMARK  7 active torsions:
REMARK  status: ('A' for Active; 'I' for Inactive)
REMARK    1  A    between atoms: O1_2  and  C2_3 
REMARK    2  A    between atoms: C3_4  and  C4_5 
REMARK    3  A    between atoms: C6_9  and  N3_10 
REMARK    4  A    between atoms: N3_10  and  C7_11 
REMARK    5  A    between atoms: C13_18  and  C14_19 
REMARK    6  A    between atoms: C15_20  and  C16_21 
REMARK    7  A    between atoms: C16_21  and  O2_22 
ROOT
HETATM    1  C4  UNL     1      22.933   1.690  50.792  1.00  0.00     0.074 A 
HETATM    2  N1  UNL     1      23.341   2.583  49.854  1.00  0.00    -0.241 NA
HETATM    3  C5  UNL     1      24.475   3.264  50.089  1.00  0.00     0.236 A 
HETATM    4  N2  UNL     1      25.161   3.061  51.200  1.00  0.00    -0.224 NA
HETATM    5  C6  UNL     1      24.835   2.207  52.169  1.00  0.00     0.142 A 
HETATM    6  C13 UNL     1      23.679   1.521  51.918  1.00  0.00     0.038 A 
ENDROOT
BRANCH   5   7
HETATM    7  N3  UNL     1      25.613   2.039  53.332  1.00  0.00    -0.340 N 
HETATM    8  H7  UNL     1      25.248   2.357  54.246  1.00  0.00     0.167 HD
BRANCH   7   9
HETATM    9  C7  UNL     1      26.888   1.470  53.444  1.00  0.00     0.035 A 
HETATM   10  C8  UNL     1      28.014   2.234  53.770  1.00  0.00     0.029 A 
HETATM   11  C9  UNL     1      29.282   1.731  53.894  1.00  0.00     0.004 A 
HETATM   12  C10 UNL     1      29.508   0.392  53.692  1.00  0.00     0.019 A 
HETATM   13  C11 UNL     1      28.452  -0.431  53.368  1.00  0.00     0.013 A 
HETATM   14 BR1  UNL     1      28.805  -2.273  53.098  1.00  0.00    -0.051 Br
HETATM   15  C12 UNL     1      27.214   0.146  53.262  1.00  0.00     0.048 A 
ENDBRANCH   7   9
ENDBRANCH   5   7
BRANCH   6  16
HETATM   16  C14 UNL     1      23.152   0.559  52.828  1.00  0.00     0.015 C 
HETATM   17  C15 UNL     1      23.198  -0.509  53.567  1.00  0.00     0.000 C 
BRANCH  17  18
HETATM   18  C16 UNL     1      22.289  -1.253  54.487  1.00  0.00     0.194 C 
BRANCH  18  19
HETATM   19  O2  UNL     1      22.906  -1.453  55.716  1.00  0.00    -0.392 OA
HETATM   20  C17 UNL     1      24.277  -1.311  55.554  1.00  0.00     0.201 C 
ENDBRANCH  18  19
ENDBRANCH  17  18
ENDBRANCH   6  16
BRANCH   1  21
HETATM   21  C3  UNL     1      21.707   1.007  50.455  1.00  0.00     0.056 C 
HETATM   22  C2  UNL     1      20.582   1.640  50.749  1.00  0.00     0.136 C 
BRANCH  22  23
HETATM   23  O1  UNL     1      20.559   2.892  51.349  1.00  0.00    -0.368 OA
HETATM   24  C1  UNL     1      19.844   4.004  50.914  1.00  0.00     0.208 C 
ENDBRANCH  22  23
ENDBRANCH   1  21
TORSDOF 7
ENDMDL
MODEL 2
REMARK VINA RESULT:      -6.7      2.340      4.261
REMARK  7 active torsions:
REMARK  status: ('A' for Active; 'I' for Inactive)
REMARK    1  A    between atoms: O1_2  and  C2_3 
REMARK    2  A    between atoms: C3_4  and  C4_5 
REMARK    3  A    between atoms: C6_9  and  N3_10 
REMARK    4  A    between atoms: N3_10  and  C7_11 
REMARK    5  A    between atoms: C13_18  and  C14_19 
REMARK    6  A    between atoms: C15_20  and  C16_21 
REMARK    7  A    between atoms: C16_21  and  O2_22 
ROOT
HETATM    1  C4  UNL     1      23.174   1.945  50.753  1.00  0.00     0.074 A 
HETATM    2  N1  UNL     1      22.336   1.129  51.443  1.00  0.00    -0.241 NA
HETATM    3  C5  UNL     1      22.701   0.759  52.681  1.00  0.00     0.236 A 
HETATM    4  N2  UNL     1      23.840   1.182  53.200  1.00  0.00    -0.224 NA
HETATM    5  C6  UNL     1      24.719   1.982  52.596  1.00  0.00     0.142 A 
HETATM    6  C13 UNL     1      24.335   2.351  51.336  1.00  0.00     0.038 A 
ENDROOT
BRANCH   5   7
HETATM    7  N3  UNL     1      25.918   2.396  53.207  1.00  0.00    -0.340 N 
HETATM    8  H7  UNL     1      25.988   3.345  53.613  1.00  0.00     0.167 HD
BRANCH   7   9
HETATM    9  C7  UNL     1      27.108   1.671  53.357  1.00  0.00     0.035 A 
HETATM   10  C8  UNL     1      28.308   2.287  53.728  1.00  0.00     0.029 A 
HETATM   11  C9  UNL     1      29.498   1.629  53.890  1.00  0.00     0.004 A 
HETATM   12  C10 UNL     1      29.562   0.273  53.684  1.00  0.00     0.019 A 
HETATM   13  C11 UNL     1      28.423  -0.410  53.316  1.00  0.00     0.013 A 
HETATM   14 BR1  UNL     1      28.552  -2.280  53.041  1.00  0.00    -0.051 Br
HETATM   15  C12 UNL     1      27.271   0.318  53.174  1.00  0.00     0.048 A 
ENDBRANCH   7   9
ENDBRANCH   5   7
BRANCH   6  16
HETATM   16  C14 UNL     1      25.133   3.202  50.517  1.00  0.00     0.015 C 
HETATM   17  C15 UNL     1      26.242   3.616  49.981  1.00  0.00     0.000 C 
BRANCH  17  18
HETATM   18  C16 UNL     1      26.680   4.696  49.051  1.00  0.00     0.194 C 
BRANCH  18  19
HETATM   19  O2  UNL     1      27.995   4.484  48.652  1.00  0.00    -0.392 OA
HETATM   20  C17 UNL     1      28.561   5.705  48.313  1.00  0.00     0.201 C 
ENDBRANCH  18  19
ENDBRANCH  17  18
ENDBRANCH   6  16
BRANCH   1  21
HETATM   21  C3  UNL     1      22.701   2.289  49.434  1.00  0.00     0.056 C 
HETATM   22  C2  UNL     1      21.888   3.332  49.355  1.00  0.00     0.136 C 
BRANCH  22  23
HETATM   23  O1  UNL     1      21.499   4.067  50.467  1.00  0.00    -0.368 OA
HETATM   24  C1  UNL     1      20.193   4.306  50.884  1.00  0.00     0.208 C 
ENDBRANCH  22  23
ENDBRANCH   1  21
TORSDOF 7
ENDMDL
MODEL 3
REMARK VINA RESULT:      -6.7      3.176      6.306
REMARK  7 active torsions:
REMARK  status: ('A' for Active; 'I' for Inactive)
REMARK    1  A    between atoms: O1_2  and  C2_3 
REMARK    2  A    between atoms: C3_4  and  C4_5 
REMARK    3  A    between atoms: C6_9  and  N3_10 
REMARK    4  A    between atoms: N3_10  and  C7_11 
REMARK    5  A    between atoms: C13_18  and  C14_19 
REMARK    6  A    between atoms: C15_20  and  C16_21 
REMARK    7  A    between atoms: C16_21  and  O2_22 
ROOT
HETATM    1  C4  UNL     1      26.160   0.821  52.287  1.00  0.00     0.074 A 
HETATM    2  N1  UNL     1      26.881   1.563  51.407  1.00  0.00    -0.241 NA
HETATM    3  C5  UNL     1      26.283   2.629  50.850  1.00  0.00     0.236 A 
HETATM    4  N2  UNL     1      25.036   2.935  51.158  1.00  0.00    -0.224 NA
HETATM    5  C6  UNL     1      24.258   2.265  52.009  1.00  0.00     0.142 A 
HETATM    6  C13 UNL     1      24.878   1.183  52.568  1.00  0.00     0.038 A 
ENDROOT
BRANCH   5   7
HETATM    7  N3  UNL     1      22.932   2.646  52.293  1.00  0.00    -0.340 N 
HETATM    8  H7  UNL     1      22.743   3.332  53.044  1.00  0.00     0.167 HD
BRANCH   7   9
HETATM    9  C7  UNL     1      21.755   2.209  51.671  1.00  0.00     0.035 A 
HETATM   10  C8  UNL     1      21.738   1.107  50.810  1.00  0.00     0.029 A 
HETATM   11  C9  UNL     1      20.619   0.637  50.177  1.00  0.00     0.004 A 
HETATM   12  C10 UNL     1      19.411   1.258  50.374  1.00  0.00     0.019 A 
HETATM   13  C11 UNL     1      19.341   2.352  51.209  1.00  0.00     0.013 A 
HETATM   14 BR1  UNL     1      17.656   3.182  51.455  1.00  0.00    -0.051 Br
HETATM   15  C12 UNL     1      20.503   2.763  51.805  1.00  0.00     0.048 A 
ENDBRANCH   7   9
ENDBRANCH   5   7
BRANCH   6  16
HETATM   16  C14 UNL     1      24.224   0.330  53.504  1.00  0.00     0.015 C 
HETATM   17  C15 UNL     1      23.319  -0.523  53.885  1.00  0.00     0.000 C 
BRANCH  17  18
HETATM   18  C16 UNL     1      22.954  -1.258  55.130  1.00  0.00     0.194 C 
BRANCH  18  19
HETATM   19  O2  UNL     1      21.802  -2.009  54.925  1.00  0.00    -0.392 OA
HETATM   20  C17 UNL     1      20.908  -1.259  54.175  1.00  0.00     0.201 C 
ENDBRANCH  18  19
ENDBRANCH  17  18
ENDBRANCH   6  16
BRANCH   1  21
HETATM   21  C3  UNL     1      26.883  -0.303  52.834  1.00  0.00     0.056 C 
HETATM   22  C2  UNL     1      27.720  -0.038  53.825  1.00  0.00     0.136 C 
BRANCH  22  23
HETATM   23  O1  UNL     1      27.908   1.243  54.327  1.00  0.00    -0.368 OA
HETATM   24  C1  UNL     1      29.055   2.021  54.199  1.00  0.00     0.208 C 
ENDBRANCH  22  23
ENDBRANCH   1  21
TORSDOF 7
ENDMDL
MODEL 4
REMARK VINA RESULT:      -6.7      2.288      4.188
REMARK  7 active torsions:
REMARK  status: ('A' for Active; 'I' for Inactive)
REMARK    1  A    between atoms: O1_2  and  C2_3 
REMARK    2  A    between atoms: C3_4  and  C4_5 
REMARK    3  A    between atoms: C6_9  and  N3_10 
REMARK    4  A    between atoms: N3_10  and  C7_11 
REMARK    5  A    between atoms: C13_18  and  C14_19 
REMARK    6  A    between atoms: C15_20  and  C16_21 
REMARK    7  A    between atoms: C16_21  and  O2_22 
ROOT
HETATM    1  C4  UNL     1      21.237   1.043  53.189  1.00  0.00     0.074 A 
HETATM    2  N1  UNL     1      20.805   0.390  54.299  1.00  0.00    -0.241 NA
HETATM    3  C5  UNL     1      21.628  -0.516  54.852  1.00  0.00     0.236 A 
HETATM    4  N2  UNL     1      22.815  -0.754  54.325  1.00  0.00    -0.224 NA
HETATM    5  C6  UNL     1      23.318  -0.161  53.242  1.00  0.00     0.142 A 
HETATM    6  C13 UNL     1      22.470   0.759  52.689  1.00  0.00     0.038 A 
ENDROOT
BRANCH   5   7
HETATM    7  N3  UNL     1      24.595  -0.462  52.731  1.00  0.00    -0.340 N 
HETATM    8  H7  UNL     1      24.699  -1.185  51.999  1.00  0.00     0.167 HD
BRANCH   7   9
HETATM    9  C7  UNL     1      25.825   0.106  53.087  1.00  0.00     0.035 A 
HETATM   10  C8  UNL     1      25.947   1.461  53.414  1.00  0.00     0.029 A 
HETATM   11  C9  UNL     1      27.122   2.069  53.770  1.00  0.00     0.004 A 
HETATM   12  C10 UNL     1      28.281   1.335  53.822  1.00  0.00     0.019 A 
HETATM   13  C11 UNL     1      28.247  -0.007  53.515  1.00  0.00     0.013 A 
HETATM   14 BR1  UNL     1      29.868  -0.984  53.600  1.00  0.00    -0.051 Br
HETATM   15  C12 UNL     1      27.035  -0.542  53.168  1.00  0.00     0.048 A 
ENDBRANCH   7   9
ENDBRANCH   5   7
BRANCH   6  16
HETATM   16  C14 UNL     1      22.813   1.505  51.524  1.00  0.00     0.015 C 
HETATM   17  C15 UNL     1      23.507   2.367  50.842  1.00  0.00     0.000 C 
BRANCH  17  18
HETATM   18  C16 UNL     1      23.524   2.918  49.456  1.00  0.00     0.194 C 
BRANCH  18  19
HETATM   19  O2  UNL     1      22.257   2.836  48.890  1.00  0.00    -0.392 OA
HETATM   20  C17 UNL     1      22.314   1.996  47.787  1.00  0.00     0.201 C 
ENDBRANCH  18  19
ENDBRANCH  17  18
ENDBRANCH   6  16
BRANCH   1  21
HETATM   21  C3  UNL     1      20.288   1.996  52.665  1.00  0.00     0.056 C 
HETATM   22  C2  UNL     1      19.288   1.498  51.953  1.00  0.00     0.136 C 
BRANCH  22  23
HETATM   23  O1  UNL     1      19.141   0.139  51.712  1.00  0.00    -0.368 OA
HETATM   24  C1  UNL     1      18.013  -0.631  51.980  1.00  0.00     0.208 C 
ENDBRANCH  22  23
ENDBRANCH   1  21
TORSDOF 7
ENDMDL
MODEL 5
REMARK VINA RESULT:      -6.5      1.500      1.954
REMARK  7 active torsions:
REMARK  status: ('A' for Active; 'I' for Inactive)
REMARK    1  A    between atoms: O1_2  and  C2_3 
REMARK    2  A    between atoms: C3_4  and  C4_5 
REMARK    3  A    between atoms: C6_9  and  N3_10 
REMARK    4  A    between atoms: N3_10  and  C7_11 
REMARK    5  A    between atoms: C13_18  and  C14_19 
REMARK    6  A    between atoms: C15_20  and  C16_21 
REMARK    7  A    between atoms: C16_21  and  O2_22 
ROOT
HETATM    1  C4  UNL     1      21.884   1.493  50.006  1.00  0.00     0.074 A 
HETATM    2  N1  UNL     1      22.407   2.302  49.049  1.00  0.00    -0.241 NA
HETATM    3  C5  UNL     1      23.559   2.935  49.326  1.00  0.00     0.236 A 
HETATM    4  N2  UNL     1      24.152   2.768  50.494  1.00  0.00    -0.224 NA
HETATM    5  C6  UNL     1      23.710   1.996  51.487  1.00  0.00     0.142 A 
HETATM    6  C13 UNL     1      22.537   1.357  51.192  1.00  0.00     0.038 A 
ENDROOT
BRANCH   5   7
HETATM    7  N3  UNL     1      24.393   1.863  52.712  1.00  0.00    -0.340 N 
HETATM    8  H7  UNL     1      24.031   2.336  53.557  1.00  0.00     0.167 HD
BRANCH   7   9
HETATM    9  C7  UNL     1      25.563   1.139  52.974  1.00  0.00     0.035 A 
HETATM   10  C8  UNL     1      25.643  -0.242  52.762  1.00  0.00     0.029 A 
HETATM   11  C9  UNL     1      26.759  -0.998  53.000  1.00  0.00     0.004 A 
HETATM   12  C10 UNL     1      27.899  -0.401  53.480  1.00  0.00     0.019 A 
HETATM   13  C11 UNL     1      27.905   0.956  53.715  1.00  0.00     0.013 A 
HETATM   14 BR1  UNL     1      29.496   1.742  54.376  1.00  0.00    -0.051 Br
HETATM   15  C12 UNL     1      26.749   1.644  53.453  1.00  0.00     0.048 A 
ENDBRANCH   7   9
ENDBRANCH   5   7
BRANCH   6  16
HETATM   16  C14 UNL     1      21.893   0.485  52.117  1.00  0.00     0.015 C 
HETATM   17  C15 UNL     1      21.855  -0.397  53.071  1.00  0.00     0.000 C 
BRANCH  17  18
HETATM   18  C16 UNL     1      20.818  -1.140  53.844  1.00  0.00     0.194 C 
BRANCH  18  19
HETATM   19  O2  UNL     1      21.382  -1.715  54.977  1.00  0.00    -0.392 OA
HETATM   20  C17 UNL     1      22.691  -1.269  55.099  1.00  0.00     0.201 C 
ENDBRANCH  18  19
ENDBRANCH  17  18
ENDBRANCH   6  16
BRANCH   1  21
HETATM   21  C3  UNL     1      20.647   0.855  49.620  1.00  0.00     0.056 C 
HETATM   22  C2  UNL     1      19.541   1.559  49.805  1.00  0.00     0.136 C 
BRANCH  22  23
HETATM   23  O1  UNL     1      19.546   2.841  50.339  1.00  0.00    -0.368 OA
HETATM   24  C1  UNL     1      19.002   3.231  51.558  1.00  0.00     0.208 C 
ENDBRANCH  22  23
ENDBRANCH   1  21
TORSDOF 7
ENDMDL
MODEL 6
REMARK VINA RESULT:      -6.4      3.358      7.269
REMARK  7 active torsions:
REMARK  status: ('A' for Active; 'I' for Inactive)
REMARK    1  A    between atoms: O1_2  and  C2_3 
REMARK    2  A    between atoms: C3_4  and  C4_5 
REMARK    3  A    between atoms: C6_9  and  N3_10 
REMARK    4  A    between atoms: N3_10  and  C7_11 
REMARK    5  A    between atoms: C13_18  and  C14_19 
REMARK    6  A    between atoms: C15_20  and  C16_21 
REMARK    7  A    between atoms: C16_21  and  O2_22 
ROOT
HETATM    1  C4  UNL     1      26.788   1.379  53.829  1.00  0.00     0.074 A 
HETATM    2  N1  UNL     1      26.639   0.553  54.896  1.00  0.00    -0.241 NA
HETATM    3  C5  UNL     1      25.534  -0.208  54.949  1.00  0.00     0.236 A 
HETATM    4  N2  UNL     1      24.630  -0.146  53.988  1.00  0.00    -0.224 NA
HETATM    5  C6  UNL     1      24.696   0.634  52.909  1.00  0.00     0.142 A 
HETATM    6  C13 UNL     1      25.825   1.403  52.868  1.00  0.00     0.038 A 
ENDROOT
BRANCH   5   7
HETATM    7  N3  UNL     1      23.694   0.653  51.919  1.00  0.00    -0.340 N 
HETATM    8  H7  UNL     1      23.883   0.246  50.987  1.00  0.00     0.167 HD
BRANCH   7   9
HETATM    9  C7  UNL     1      22.396   1.174  52.012  1.00  0.00     0.035 A 
HETATM   10  C8  UNL     1      22.159   2.532  52.248  1.00  0.00     0.029 A 
HETATM   11  C9  UNL     1      20.915   3.095  52.347  1.00  0.00     0.004 A 
HETATM   12  C10 UNL     1      19.797   2.309  52.211  1.00  0.00     0.019 A 
HETATM   13  C11 UNL     1      19.943   0.960  51.976  1.00  0.00     0.013 A 
HETATM   14 BR1  UNL     1      18.377  -0.091  51.795  1.00  0.00    -0.051 Br
HETATM   15  C12 UNL     1      21.220   0.471  51.890  1.00  0.00     0.048 A 
ENDBRANCH   7   9
ENDBRANCH   5   7
BRANCH   6  16
HETATM   16  C14 UNL     1      26.091   2.309  51.799  1.00  0.00     0.015 C 
HETATM   17  C15 UNL     1      26.469   2.632  50.598  1.00  0.00     0.000 C 
BRANCH  17  18
HETATM   18  C16 UNL     1      26.608   3.873  49.784  1.00  0.00     0.194 C 
BRANCH  18  19
HETATM   19  O2  UNL     1      25.355   4.349  49.415  1.00  0.00    -0.392 OA
HETATM   20  C17 UNL     1      25.078   5.492  50.152  1.00  0.00     0.201 C 
ENDBRANCH  18  19
ENDBRANCH  17  18
ENDBRANCH   6  16
BRANCH   1  21
HETATM   21  C3  UNL     1      28.004   2.158  53.858  1.00  0.00     0.056 C 
HETATM   22  C2  UNL     1      29.121   1.513  53.557  1.00  0.00     0.136 C 
BRANCH  22  23
HETATM   23  O1  UNL     1      29.145   0.164  53.229  1.00  0.00    -0.368 OA
HETATM   24  C1  UNL     1      29.972  -0.807  53.785  1.00  0.00     0.208 C 
ENDBRANCH  22  23
ENDBRANCH   1  21
TORSDOF 7
ENDMDL
MODEL 7
REMARK VINA RESULT:      -6.4      3.202      5.553
REMARK  7 active torsions:
REMARK  status: ('A' for Active; 'I' for Inactive)
REMARK    1  A    between atoms: O1_2  and  C2_3 
REMARK    2  A    between atoms: C3_4  and  C4_5 
REMARK    3  A    between atoms: C6_9  and  N3_10 
REMARK    4  A    between atoms: N3_10  and  C7_11 
REMARK    5  A    between atoms: C13_18  and  C14_19 
REMARK    6  A    between atoms: C15_20  and  C16_21 
REMARK    7  A    between atoms: C16_21  and  O2_22 
ROOT
HETATM    1  C4  UNL     1      24.567   3.049  50.069  1.00  0.00     0.074 A 
HETATM    2  N1  UNL     1      23.582   3.360  49.188  1.00  0.00    -0.241 NA
HETATM    3  C5  UNL     1      22.310   3.213  49.594  1.00  0.00     0.236 A 
HETATM    4  N2  UNL     1      22.041   2.781  50.813  1.00  0.00    -0.224 NA
HETATM    5  C6  UNL     1      22.943   2.455  51.739  1.00  0.00     0.142 A 
HETATM    6  C13 UNL     1      24.233   2.608  51.312  1.00  0.00     0.038 A 
ENDROOT
BRANCH   5   7
HETATM    7  N3  UNL     1      22.587   1.999  53.023  1.00  0.00    -0.340 N 
HETATM    8  H7  UNL     1      22.787   2.585  53.851  1.00  0.00     0.167 HD
BRANCH   7   9
HETATM    9  C7  UNL     1      21.964   0.793  53.371  1.00  0.00     0.035 A 
HETATM   10  C8  UNL     1      22.657  -0.241  54.009  1.00  0.00     0.029 A 
HETATM   11  C9  UNL     1      22.100  -1.438  54.372  1.00  0.00     0.004 A 
HETATM   12  C10 UNL     1      20.774  -1.681  54.111  1.00  0.00     0.019 A 
HETATM   13  C11 UNL     1      20.019  -0.713  53.485  1.00  0.00     0.013 A 
HETATM   14 BR1  UNL     1      18.194  -1.085  53.143  1.00  0.00    -0.051 Br
HETATM   15  C12 UNL     1      20.648   0.458  53.153  1.00  0.00     0.048 A 
ENDBRANCH   7   9
ENDBRANCH   5   7
BRANCH   6  16
HETATM   16  C14 UNL     1      25.350   2.313  52.146  1.00  0.00     0.015 C 
HETATM   17  C15 UNL     1      25.965   2.176  53.283  1.00  0.00     0.000 C 
BRANCH  17  18
HETATM   18  C16 UNL     1      27.326   1.797  53.761  1.00  0.00     0.194 C 
BRANCH  18  19
HETATM   19  O2  UNL     1      27.236   0.809  54.735  1.00  0.00    -0.392 OA
HETATM   20  C17 UNL     1      28.482   0.217  54.886  1.00  0.00     0.201 C 
ENDBRANCH  18  19
ENDBRANCH  17  18
ENDBRANCH   6  16
BRANCH   1  21
HETATM   21  C3  UNL     1      25.900   3.237  49.545  1.00  0.00     0.056 C 
HETATM   22  C2  UNL     1      26.368   4.475  49.561  1.00  0.00     0.136 C 
BRANCH  22  23
HETATM   23  O1  UNL     1      25.635   5.549  50.048  1.00  0.00    -0.368 OA
HETATM   24  C1  UNL     1      25.179   6.640  49.314  1.00  0.00     0.208 C 
ENDBRANCH  22  23
ENDBRANCH   1  21
TORSDOF 7
ENDMDL
MODEL 8
REMARK VINA RESULT:      -6.4      3.558      7.207
REMARK  7 active torsions:
REMARK  status: ('A' for Active; 'I' for Inactive)
REMARK    1  A    between atoms: O1_2  and  C2_3 
REMARK    2  A    between atoms: C3_4  and  C4_5 
REMARK    3  A    between atoms: C6_9  and  N3_10 
REMARK    4  A    between atoms: N3_10  and  C7_11 
REMARK    5  A    between atoms: C13_18  and  C14_19 
REMARK    6  A    between atoms: C15_20  and  C16_21 
REMARK    7  A    between atoms: C16_21  and  O2_22 
ROOT
HETATM    1  C4  UNL     1      25.748   0.978  52.490  1.00  0.00     0.074 A 
HETATM    2  N1  UNL     1      26.137  -0.304  52.708  1.00  0.00    -0.241 NA
HETATM    3  C5  UNL     1      25.227  -1.159  53.203  1.00  0.00     0.236 A 
HETATM    4  N2  UNL     1      23.998  -0.753  53.465  1.00  0.00    -0.224 NA
HETATM    5  C6  UNL     1      23.533   0.483  53.282  1.00  0.00     0.142 A 
HETATM    6  C13 UNL     1      24.468   1.343  52.777  1.00  0.00     0.038 A 
ENDROOT
BRANCH   5   7
HETATM    7  N3  UNL     1      22.207   0.851  53.584  1.00  0.00    -0.340 N 
HETATM    8  H7  UNL     1      22.009   1.425  54.422  1.00  0.00     0.167 HD
BRANCH   7   9
HETATM    9  C7  UNL     1      21.040   0.538  52.874  1.00  0.00     0.035 A 
HETATM   10  C8  UNL     1      20.793   1.045  51.594  1.00  0.00     0.029 A 
HETATM   11  C9  UNL     1      19.673   0.772  50.856  1.00  0.00     0.004 A 
HETATM   12  C10 UNL     1      18.701  -0.051  51.369  1.00  0.00     0.019 A 
HETATM   13  C11 UNL     1      18.866  -0.593  52.624  1.00  0.00     0.013 A 
HETATM   14 BR1  UNL     1      17.503  -1.722  53.297  1.00  0.00    -0.051 Br
HETATM   15  C12 UNL     1      20.014  -0.272  53.301  1.00  0.00     0.048 A 
ENDBRANCH   7   9
ENDBRANCH   5   7
BRANCH   6  16
HETATM   16  C14 UNL     1      24.177   2.712  52.509  1.00  0.00     0.015 C 
HETATM   17  C15 UNL     1      23.740   3.702  51.788  1.00  0.00     0.000 C 
BRANCH  17  18
HETATM   18  C16 UNL     1      23.606   5.181  51.915  1.00  0.00     0.194 C 
BRANCH  18  19
HETATM   19  O2  UNL     1      24.168   5.812  50.811  1.00  0.00    -0.392 OA
HETATM   20  C17 UNL     1      24.248   7.174  51.069  1.00  0.00     0.201 C 
ENDBRANCH  18  19
ENDBRANCH  17  18
ENDBRANCH   6  16
BRANCH   1  21
HETATM   21  C3  UNL     1      26.790   1.823  51.957  1.00  0.00     0.056 C 
HETATM   22  C2  UNL     1      27.759   2.159  52.794  1.00  0.00     0.136 C 
BRANCH  22  23
HETATM   23  O1  UNL     1      27.791   1.734  54.116  1.00  0.00    -0.368 OA
HETATM   24  C1  UNL     1      28.774   0.945  54.706  1.00  0.00     0.208 C 
ENDBRANCH  22  23
ENDBRANCH   1  21
TORSDOF 7
ENDMDL
MODEL 9
REMARK VINA RESULT:      -6.3      3.007      5.281
REMARK  7 active torsions:
REMARK  status: ('A' for Active; 'I' for Inactive)
REMARK    1  A    between atoms: O1_2  and  C2_3 
REMARK    2  A    between atoms: C3_4  and  C4_5 
REMARK    3  A    between atoms: C6_9  and  N3_10 
REMARK    4  A    between atoms: N3_10  and  C7_11 
REMARK    5  A    between atoms: C13_18  and  C14_19 
REMARK    6  A    between atoms: C15_20  and  C16_21 
REMARK    7  A    between atoms: C16_21  and  O2_22 
ROOT
HETATM    1  C4  UNL     1      22.642   4.968  49.801  1.00  0.00     0.074 A 
HETATM    2  N1  UNL     1      21.367   5.053  50.258  1.00  0.00    -0.241 NA
HETATM    3  C5  UNL     1      21.136   4.710  51.537  1.00  0.00     0.236 A 
HETATM    4  N2  UNL     1      22.126   4.306  52.312  1.00  0.00    -0.224 NA
HETATM    5  C6  UNL     1      23.403   4.194  51.946  1.00  0.00     0.142 A 
HETATM    6  C13 UNL     1      23.624   4.546  50.643  1.00  0.00     0.038 A 
ENDROOT
BRANCH   5   7
HETATM    7  N3  UNL     1      24.413   3.755  52.825  1.00  0.00    -0.340 N 
HETATM    8  H7  UNL     1      24.978   4.447  53.346  1.00  0.00     0.167 HD
BRANCH   7   9
HETATM    9  C7  UNL     1      24.790   2.439  53.120  1.00  0.00     0.035 A 
HETATM   10  C8  UNL     1      23.928   1.357  52.911  1.00  0.00     0.029 A 
HETATM   11  C9  UNL     1      24.244   0.052  53.180  1.00  0.00     0.004 A 
HETATM   12  C10 UNL     1      25.481  -0.260  53.689  1.00  0.00     0.019 A 
HETATM   13  C11 UNL     1      26.390   0.748  53.923  1.00  0.00     0.013 A 
HETATM   14 BR1  UNL     1      28.085   0.276  54.625  1.00  0.00    -0.051 Br
HETATM   15  C12 UNL     1      26.000   2.028  53.629  1.00  0.00     0.048 A 
ENDBRANCH   7   9
ENDBRANCH   5   7
BRANCH   6  16
HETATM   16  C14 UNL     1      24.919   4.497  50.051  1.00  0.00     0.015 C 
HETATM   17  C15 UNL     1      25.988   3.904  49.608  1.00  0.00     0.000 C 
BRANCH  17  18
HETATM   18  C16 UNL     1      27.283   4.293  48.980  1.00  0.00     0.194 C 
BRANCH  18  19
HETATM   19  O2  UNL     1      27.327   5.668  48.779  1.00  0.00    -0.392 OA
HETATM   20  C17 UNL     1      28.530   5.991  48.168  1.00  0.00     0.201 C 
ENDBRANCH  18  19
ENDBRANCH  17  18
ENDBRANCH   6  16
BRANCH   1  21
HETATM   21  C3  UNL     1      22.794   5.355  48.418  1.00  0.00     0.056 C 
HETATM   22  C2  UNL     1      22.404   4.470  47.514  1.00  0.00     0.136 C 
BRANCH  22  23
HETATM   23  O1  UNL     1      21.875   3.232  47.854  1.00  0.00    -0.368 OA
HETATM   24  C1  UNL     1      22.497   1.996  47.700  1.00  0.00     0.208 C 
ENDBRANCH  22  23
ENDBRANCH   1  21
TORSDOF 7
ENDMDL
