MODEL 1
REMARK VINA RESULT:      -7.2      0.000      0.000
REMARK  6 active torsions:
REMARK  status: ('A' for Active; 'I' for Inactive)
REMARK    1  A    between atoms: O1_2  and  C2_3 
REMARK    2  A    between atoms: C6_9  and  N3_10 
REMARK    3  A    between atoms: N3_10  and  C7_11 
REMARK    4  A    between atoms: C8_12  and  C9_13 
REMARK    5  A    between atoms: C10_14  and  C11_15 
REMARK    6  A    between atoms: C15_20  and  O2_21 
ROOT
HETATM    1  C2  UNL     1      25.663   0.431  53.961  1.00  0.00     0.103 A 
HETATM    2  C3  UNL     1      24.502   0.477  53.197  1.00  0.00     0.072 A 
HETATM    3  C4  UNL     1      24.424   1.333  52.122  1.00  0.00     0.075 A 
HETATM    4  N1  UNL     1      23.345   1.442  51.333  1.00  0.00    -0.241 NA
HETATM    5  C5  UNL     1      23.276   2.285  50.283  1.00  0.00     0.236 A 
HETATM    6  N2  UNL     1      24.324   3.090  49.961  1.00  0.00    -0.224 NA
HETATM    7  C6  UNL     1      25.458   3.051  50.702  1.00  0.00     0.141 A 
HETATM    8  C13 UNL     1      25.484   2.163  51.779  1.00  0.00     0.042 A 
HETATM    9  C14 UNL     1      26.630   2.088  52.571  1.00  0.00     0.057 A 
HETATM   10  C15 UNL     1      26.742   1.235  53.660  1.00  0.00     0.102 A 
ENDROOT
BRANCH   7  11
HETATM   11  N3  UNL     1      26.616   3.853  50.452  1.00  0.00    -0.350 N 
HETATM   12  H6  UNL     1      27.631   3.838  50.733  1.00  0.00     0.166 HD
BRANCH  11  13
HETATM   13  C7  UNL     1      25.957   4.809  49.611  1.00  0.00     0.090 C 
HETATM   14  C8  UNL     1      26.705   5.423  48.681  1.00  0.00     0.017 C 
BRANCH  14  15
HETATM   15  C9  UNL     1      28.132   5.080  48.588  1.00  0.00     0.002 C 
HETATM   16  C10 UNL     1      28.995   6.022  48.238  1.00  0.00     0.014 C 
BRANCH  16  17
HETATM   17  C11 UNL     1      30.416   5.715  48.138  1.00  0.00    -0.022 A 
HETATM   18  C12 UNL     1      31.181   4.787  47.558  1.00  0.00     0.209 A 
HETATM   19  S1  UNL     1      32.161   5.960  48.439  1.00  0.00    -0.202 SA
ENDBRANCH  16  17
ENDBRANCH  14  15
ENDBRANCH  11  13
ENDBRANCH   7  11
BRANCH  10  20
HETATM   20  O2  UNL     1      27.876   1.160  54.443  1.00  0.00    -0.353 OA
HETATM   21  C16 UNL     1      29.088   0.599  54.044  1.00  0.00     0.210 C 
ENDBRANCH  10  20
BRANCH   1  22
HETATM   22  O1  UNL     1      25.768  -0.423  55.049  1.00  0.00    -0.353 OA
HETATM   23  C1  UNL     1      24.661  -1.203  55.492  1.00  0.00     0.210 C 
ENDBRANCH   1  22
TORSDOF 6
ENDMDL
MODEL 2
REMARK VINA RESULT:      -7.2      4.264      7.023
REMARK  6 active torsions:
REMARK  status: ('A' for Active; 'I' for Inactive)
REMARK    1  A    between atoms: O1_2  and  C2_3 
REMARK    2  A    between atoms: C6_9  and  N3_10 
REMARK    3  A    between atoms: N3_10  and  C7_11 
REMARK    4  A    between atoms: C8_12  and  C9_13 
REMARK    5  A    between atoms: C10_14  and  C11_15 
REMARK    6  A    between atoms: C15_20  and  O2_21 
ROOT
HETATM    1  C2  UNL     1      27.323   0.120  53.682  1.00  0.00     0.103 A 
HETATM    2  C3  UNL     1      27.730   1.113  52.797  1.00  0.00     0.072 A 
HETATM    3  C4  UNL     1      26.793   1.788  52.047  1.00  0.00     0.075 A 
HETATM    4  N1  UNL     1      27.097   2.757  51.173  1.00  0.00    -0.241 NA
HETATM    5  C5  UNL     1      26.172   3.412  50.441  1.00  0.00     0.236 A 
HETATM    6  N2  UNL     1      24.849   3.115  50.555  1.00  0.00    -0.224 NA
HETATM    7  C6  UNL     1      24.447   2.148  51.415  1.00  0.00     0.141 A 
HETATM    8  C13 UNL     1      25.438   1.498  52.151  1.00  0.00     0.042 A 
HETATM    9  C14 UNL     1      25.071   0.494  53.048  1.00  0.00     0.057 A 
HETATM   10  C15 UNL     1      25.990  -0.204  53.819  1.00  0.00     0.102 A 
ENDROOT
BRANCH   7  11
HETATM   11  N3  UNL     1      23.085   1.757  51.611  1.00  0.00    -0.350 N 
HETATM   12  H6  UNL     1      22.478   1.485  52.429  1.00  0.00     0.166 HD
BRANCH  11  13
HETATM   13  C7  UNL     1      22.705   1.840  50.231  1.00  0.00     0.090 C 
HETATM   14  C8  UNL     1      21.642   1.115  49.846  1.00  0.00     0.017 C 
BRANCH  14  15
HETATM   15  C9  UNL     1      20.949   0.295  50.850  1.00  0.00     0.002 C 
HETATM   16  C10 UNL     1      19.693   0.585  51.156  1.00  0.00     0.014 C 
BRANCH  16  17
HETATM   17  C11 UNL     1      18.977  -0.209  52.147  1.00  0.00    -0.022 A 
HETATM   18  C12 UNL     1      19.193  -0.661  53.385  1.00  0.00     0.209 A 
HETATM   19  S1  UNL     1      17.609  -1.162  52.790  1.00  0.00    -0.202 SA
ENDBRANCH  16  17
ENDBRANCH  14  15
ENDBRANCH  11  13
ENDBRANCH   7  11
BRANCH  10  20
HETATM   20  O2  UNL     1      25.627  -1.196  54.707  1.00  0.00    -0.353 OA
HETATM   21  C16 UNL     1      24.489  -1.173  55.512  1.00  0.00     0.210 C 
ENDBRANCH  10  20
BRANCH   1  22
HETATM   22  O1  UNL     1      28.248  -0.575  54.448  1.00  0.00    -0.353 OA
HETATM   23  C1  UNL     1      29.543  -0.891  53.947  1.00  0.00     0.210 C 
ENDBRANCH   1  22
TORSDOF 6
ENDMDL
MODEL 3
REMARK VINA RESULT:      -7.2      4.898      6.649
REMARK  6 active torsions:
REMARK  status: ('A' for Active; 'I' for Inactive)
REMARK    1  A    between atoms: O1_2  and  C2_3 
REMARK    2  A    between atoms: C6_9  and  N3_10 
REMARK    3  A    between atoms: N3_10  and  C7_11 
REMARK    4  A    between atoms: C8_12  and  C9_13 
REMARK    5  A    between atoms: C10_14  and  C11_15 
REMARK    6  A    between atoms: C15_20  and  O2_21 
ROOT
HETATM    1  C2  UNL     1      20.396  -0.452  53.230  1.00  0.00     0.103 A 
HETATM    2  C3  UNL     1      20.918  -1.002  54.396  1.00  0.00     0.072 A 
HETATM    3  C4  UNL     1      22.281  -1.014  54.596  1.00  0.00     0.075 A 
HETATM    4  N1  UNL     1      22.868  -1.524  55.689  1.00  0.00    -0.241 NA
HETATM    5  C5  UNL     1      24.203  -1.533  55.876  1.00  0.00     0.236 A 
HETATM    6  N2  UNL     1      25.046  -1.013  54.943  1.00  0.00    -0.224 NA
HETATM    7  C6  UNL     1      24.543  -0.476  53.805  1.00  0.00     0.141 A 
HETATM    8  C13 UNL     1      23.155  -0.488  53.654  1.00  0.00     0.042 A 
HETATM    9  C14 UNL     1      22.592   0.053  52.498  1.00  0.00     0.057 A 
HETATM   10  C15 UNL     1      21.224   0.082  52.265  1.00  0.00     0.102 A 
ENDROOT
BRANCH   7  11
HETATM   11  N3  UNL     1      25.337   0.095  52.760  1.00  0.00    -0.350 N 
HETATM   12  H6  UNL     1      25.405  -0.001  51.713  1.00  0.00     0.166 HD
BRANCH  11  13
HETATM   13  C7  UNL     1      26.119   0.942  53.613  1.00  0.00     0.090 C 
HETATM   14  C8  UNL     1      25.906   2.264  53.521  1.00  0.00     0.017 C 
BRANCH  14  15
HETATM   15  C9  UNL     1      24.900   2.749  52.565  1.00  0.00     0.002 C 
HETATM   16  C10 UNL     1      23.903   3.498  53.011  1.00  0.00     0.014 C 
BRANCH  16  17
HETATM   17  C11 UNL     1      22.889   3.996  52.089  1.00  0.00    -0.022 A 
HETATM   18  C12 UNL     1      21.556   4.058  52.036  1.00  0.00     0.209 A 
HETATM   19  S1  UNL     1      22.285   4.777  50.600  1.00  0.00    -0.202 SA
ENDBRANCH  16  17
ENDBRANCH  14  15
ENDBRANCH  11  13
ENDBRANCH   7  11
BRANCH  10  20
HETATM   20  O2  UNL     1      20.667   0.618  51.122  1.00  0.00    -0.353 OA
HETATM   21  C16 UNL     1      21.366   0.906  49.951  1.00  0.00     0.210 C 
ENDBRANCH  10  20
BRANCH   1  22
HETATM   22  O1  UNL     1      19.028  -0.427  53.004  1.00  0.00    -0.353 OA
HETATM   23  C1  UNL     1      18.192  -1.519  53.375  1.00  0.00     0.210 C 
ENDBRANCH   1  22
TORSDOF 6
ENDMDL
MODEL 4
REMARK VINA RESULT:      -6.9      2.282      3.467
REMARK  6 active torsions:
REMARK  status: ('A' for Active; 'I' for Inactive)
REMARK    1  A    between atoms: O1_2  and  C2_3 
REMARK    2  A    between atoms: C6_9  and  N3_10 
REMARK    3  A    between atoms: N3_10  and  C7_11 
REMARK    4  A    between atoms: C8_12  and  C9_13 
REMARK    5  A    between atoms: C10_14  and  C11_15 
REMARK    6  A    between atoms: C15_20  and  O2_21 
ROOT
HETATM    1  C2  UNL     1      26.884  -0.126  53.695  1.00  0.00     0.103 A 
HETATM    2  C3  UNL     1      25.676  -0.760  53.968  1.00  0.00     0.072 A 
HETATM    3  C4  UNL     1      24.493  -0.174  53.576  1.00  0.00     0.075 A 
HETATM    4  N1  UNL     1      23.286  -0.714  53.798  1.00  0.00    -0.241 NA
HETATM    5  C5  UNL     1      22.132  -0.133  53.412  1.00  0.00     0.236 A 
HETATM    6  N2  UNL     1      22.132   1.062  52.762  1.00  0.00    -0.224 NA
HETATM    7  C6  UNL     1      23.305   1.684  52.494  1.00  0.00     0.141 A 
HETATM    8  C13 UNL     1      24.474   1.045  52.912  1.00  0.00     0.042 A 
HETATM    9  C14 UNL     1      25.707   1.649  52.659  1.00  0.00     0.057 A 
HETATM   10  C15 UNL     1      26.917   1.085  53.039  1.00  0.00     0.102 A 
ENDROOT
BRANCH   7  11
HETATM   11  N3  UNL     1      23.419   2.941  51.820  1.00  0.00    -0.350 N 
HETATM   12  H6  UNL     1      23.856   3.879  52.020  1.00  0.00     0.166 HD
BRANCH  11  13
HETATM   13  C7  UNL     1      22.693   2.548  50.648  1.00  0.00     0.090 C 
HETATM   14  C8  UNL     1      23.217   2.891  49.461  1.00  0.00     0.017 C 
BRANCH  14  15
HETATM   15  C9  UNL     1      24.483   3.638  49.441  1.00  0.00     0.002 C 
HETATM   16  C10 UNL     1      24.492   4.869  48.951  1.00  0.00     0.014 C 
BRANCH  16  17
HETATM   17  C11 UNL     1      25.731   5.637  48.918  1.00  0.00    -0.022 A 
HETATM   18  C12 UNL     1      27.031   5.394  48.737  1.00  0.00     0.209 A 
HETATM   19  S1  UNL     1      26.736   7.112  49.007  1.00  0.00    -0.202 SA
ENDBRANCH  16  17
ENDBRANCH  14  15
ENDBRANCH  11  13
ENDBRANCH   7  11
BRANCH  10  20
HETATM   20  O2  UNL     1      28.136   1.682  52.788  1.00  0.00    -0.353 OA
HETATM   21  C16 UNL     1      28.788   2.562  53.650  1.00  0.00     0.210 C 
ENDBRANCH  10  20
BRANCH   1  22
HETATM   22  O1  UNL     1      28.089  -0.696  54.079  1.00  0.00    -0.353 OA
HETATM   23  C1  UNL     1      28.770  -1.630  53.247  1.00  0.00     0.210 C 
ENDBRANCH   1  22
TORSDOF 6
ENDMDL
MODEL 5
REMARK VINA RESULT:      -6.9      3.682      5.936
REMARK  6 active torsions:
REMARK  status: ('A' for Active; 'I' for Inactive)
REMARK    1  A    between atoms: O1_2  and  C2_3 
REMARK    2  A    between atoms: C6_9  and  N3_10 
REMARK    3  A    between atoms: N3_10  and  C7_11 
REMARK    4  A    between atoms: C8_12  and  C9_13 
REMARK    5  A    between atoms: C10_14  and  C11_15 
REMARK    6  A    between atoms: C15_20  and  O2_21 
ROOT
HETATM    1  C2  UNL     1      27.156   0.588  53.349  1.00  0.00     0.103 A 
HETATM    2  C3  UNL     1      26.694  -0.104  54.463  1.00  0.00     0.072 A 
HETATM    3  C4  UNL     1      25.369  -0.472  54.539  1.00  0.00     0.075 A 
HETATM    4  N1  UNL     1      24.840  -1.139  55.575  1.00  0.00    -0.241 NA
HETATM    5  C5  UNL     1      23.541  -1.495  55.641  1.00  0.00     0.236 A 
HETATM    6  N2  UNL     1      22.677  -1.187  54.637  1.00  0.00    -0.224 NA
HETATM    7  C6  UNL     1      23.121  -0.512  53.549  1.00  0.00     0.141 A 
HETATM    8  C13 UNL     1      24.473  -0.166  53.523  1.00  0.00     0.042 A 
HETATM    9  C14 UNL     1      24.976   0.531  52.423  1.00  0.00     0.057 A 
HETATM   10  C15 UNL     1      26.305   0.915  52.314  1.00  0.00     0.102 A 
ENDROOT
BRANCH   7  11
HETATM   11  N3  UNL     1      22.300  -0.137  52.439  1.00  0.00    -0.350 N 
HETATM   12  H6  UNL     1      22.382  -0.154  51.388  1.00  0.00     0.166 HD
BRANCH  11  13
HETATM   13  C7  UNL     1      21.193   0.328  53.222  1.00  0.00     0.090 C 
HETATM   14  C8  UNL     1      20.736   1.562  52.961  1.00  0.00     0.017 C 
BRANCH  14  15
HETATM   15  C9  UNL     1      21.392   2.346  51.905  1.00  0.00     0.002 C 
HETATM   16  C10 UNL     1      22.122   3.397  52.247  1.00  0.00     0.014 C 
BRANCH  16  17
HETATM   17  C11 UNL     1      22.786   4.195  51.224  1.00  0.00    -0.022 A 
HETATM   18  C12 UNL     1      23.585   5.264  51.178  1.00  0.00     0.209 A 
HETATM   19  S1  UNL     1      23.245   4.653  49.559  1.00  0.00    -0.202 SA
ENDBRANCH  16  17
ENDBRANCH  14  15
ENDBRANCH  11  13
ENDBRANCH   7  11
BRANCH  10  20
HETATM   20  O2  UNL     1      26.802   1.603  51.226  1.00  0.00    -0.353 OA
HETATM   21  C16 UNL     1      26.461   2.910  50.882  1.00  0.00     0.210 C 
ENDBRANCH  10  20
BRANCH   1  22
HETATM   22  O1  UNL     1      28.485   0.970  53.248  1.00  0.00    -0.353 OA
HETATM   23  C1  UNL     1      28.963   2.170  53.850  1.00  0.00     0.210 C 
ENDBRANCH   1  22
TORSDOF 6
ENDMDL
MODEL 6
REMARK VINA RESULT:      -6.7      3.612      5.094
REMARK  6 active torsions:
REMARK  status: ('A' for Active; 'I' for Inactive)
REMARK    1  A    between atoms: O1_2  and  C2_3 
REMARK    2  A    between atoms: C6_9  and  N3_10 
REMARK    3  A    between atoms: N3_10  and  C7_11 
REMARK    4  A    between atoms: C8_12  and  C9_13 
REMARK    5  A    between atoms: C10_14  and  C11_15 
REMARK    6  A    between atoms: C15_20  and  O2_21 
ROOT
HETATM    1  C2  UNL     1      20.917   0.582  53.143  1.00  0.00     0.103 A 
HETATM    2  C3  UNL     1      20.289   1.710  52.624  1.00  0.00     0.072 A 
HETATM    3  C4  UNL     1      21.042   2.801  52.252  1.00  0.00     0.075 A 
HETATM    4  N1  UNL     1      20.520   3.927  51.744  1.00  0.00    -0.241 NA
HETATM    5  C5  UNL     1      21.265   4.992  51.384  1.00  0.00     0.236 A 
HETATM    6  N2  UNL     1      22.619   4.979  51.520  1.00  0.00    -0.224 NA
HETATM    7  C6  UNL     1      23.236   3.884  52.025  1.00  0.00     0.141 A 
HETATM    8  C13 UNL     1      22.425   2.805  52.384  1.00  0.00     0.042 A 
HETATM    9  C14 UNL     1      23.016   1.656  52.910  1.00  0.00     0.057 A 
HETATM   10  C15 UNL     1      22.287   0.539  53.294  1.00  0.00     0.102 A 
ENDROOT
BRANCH   7  11
HETATM   11  N3  UNL     1      24.649   3.765  52.212  1.00  0.00    -0.350 N 
HETATM   12  H6  UNL     1      25.315   3.773  53.029  1.00  0.00     0.166 HD
BRANCH  11  13
HETATM   13  C7  UNL     1      24.971   3.612  50.823  1.00  0.00     0.090 C 
HETATM   14  C8  UNL     1      26.058   2.882  50.526  1.00  0.00     0.017 C 
BRANCH  14  15
HETATM   15  C9  UNL     1      26.836   2.297  51.627  1.00  0.00     0.002 C 
HETATM   16  C10 UNL     1      26.816   0.983  51.797  1.00  0.00     0.014 C 
BRANCH  16  17
HETATM   17  C11 UNL     1      27.577   0.372  52.879  1.00  0.00    -0.022 A 
HETATM   18  C12 UNL     1      27.668   0.494  54.206  1.00  0.00     0.209 A 
HETATM   19  S1  UNL     1      28.767  -0.748  53.603  1.00  0.00    -0.202 SA
ENDBRANCH  16  17
ENDBRANCH  14  15
ENDBRANCH  11  13
ENDBRANCH   7  11
BRANCH  10  20
HETATM   20  O2  UNL     1      22.870  -0.599  53.813  1.00  0.00    -0.353 OA
HETATM   21  C16 UNL     1      24.208  -0.711  54.190  1.00  0.00     0.210 C 
ENDBRANCH  10  20
BRANCH   1  22
HETATM   22  O1  UNL     1      20.181  -0.530  53.525  1.00  0.00    -0.353 OA
HETATM   23  C1  UNL     1      18.835  -0.715  53.099  1.00  0.00     0.210 C 
ENDBRANCH   1  22
TORSDOF 6
ENDMDL
MODEL 7
REMARK VINA RESULT:      -6.6      3.949      5.499
REMARK  6 active torsions:
REMARK  status: ('A' for Active; 'I' for Inactive)
REMARK    1  A    between atoms: O1_2  and  C2_3 
REMARK    2  A    between atoms: C6_9  and  N3_10 
REMARK    3  A    between atoms: N3_10  and  C7_11 
REMARK    4  A    between atoms: C8_12  and  C9_13 
REMARK    5  A    between atoms: C10_14  and  C11_15 
REMARK    6  A    between atoms: C15_20  and  O2_21 
ROOT
HETATM    1  C2  UNL     1      21.314   0.374  52.578  1.00  0.00     0.103 A 
HETATM    2  C3  UNL     1      22.196  -0.449  53.271  1.00  0.00     0.072 A 
HETATM    3  C4  UNL     1      23.497  -0.044  53.467  1.00  0.00     0.075 A 
HETATM    4  N1  UNL     1      24.412  -0.773  54.122  1.00  0.00    -0.241 NA
HETATM    5  C5  UNL     1      25.685  -0.369  54.309  1.00  0.00     0.236 A 
HETATM    6  N2  UNL     1      26.119   0.828  53.829  1.00  0.00    -0.224 NA
HETATM    7  C6  UNL     1      25.265   1.633  53.153  1.00  0.00     0.141 A 
HETATM    8  C13 UNL     1      23.957   1.175  52.985  1.00  0.00     0.042 A 
HETATM    9  C14 UNL     1      23.041   1.970  52.294  1.00  0.00     0.057 A 
HETATM   10  C15 UNL     1      21.723   1.592  52.080  1.00  0.00     0.102 A 
ENDROOT
BRANCH   7  11
HETATM   11  N3  UNL     1      25.616   2.908  52.607  1.00  0.00    -0.350 N 
HETATM   12  H6  UNL     1      25.313   3.908  52.746  1.00  0.00     0.166 HD
BRANCH  11  13
HETATM   13  C7  UNL     1      26.616   2.414  51.706  1.00  0.00     0.090 C 
HETATM   14  C8  UNL     1      26.584   2.877  50.446  1.00  0.00     0.017 C 
BRANCH  14  15
HETATM   15  C9  UNL     1      25.541   3.846  50.079  1.00  0.00     0.002 C 
HETATM   16  C10 UNL     1      24.563   3.459  49.275  1.00  0.00     0.014 C 
BRANCH  16  17
HETATM   17  C11 UNL     1      23.513   4.394  48.892  1.00  0.00    -0.022 A 
HETATM   18  C12 UNL     1      22.407   4.906  49.438  1.00  0.00     0.209 A 
HETATM   19  S1  UNL     1      22.666   5.538  47.811  1.00  0.00    -0.202 SA
ENDBRANCH  16  17
ENDBRANCH  14  15
ENDBRANCH  11  13
ENDBRANCH   7  11
BRANCH  10  20
HETATM   20  O2  UNL     1      20.817   2.379  51.397  1.00  0.00    -0.353 OA
HETATM   21  C16 UNL     1      20.121   3.455  51.944  1.00  0.00     0.210 C 
ENDBRANCH  10  20
BRANCH   1  22
HETATM   22  O1  UNL     1      19.997  -0.011  52.367  1.00  0.00    -0.353 OA
HETATM   23  C1  UNL     1      19.265  -0.731  53.353  1.00  0.00     0.210 C 
ENDBRANCH   1  22
TORSDOF 6
ENDMDL
MODEL 8
REMARK VINA RESULT:      -6.2      4.925      9.062
REMARK  6 active torsions:
REMARK  status: ('A' for Active; 'I' for Inactive)
REMARK    1  A    between atoms: O1_2  and  C2_3 
REMARK    2  A    between atoms: C6_9  and  N3_10 
REMARK    3  A    between atoms: N3_10  and  C7_11 
REMARK    4  A    between atoms: C8_12  and  C9_13 
REMARK    5  A    between atoms: C10_14  and  C11_15 
REMARK    6  A    between atoms: C15_20  and  O2_21 
ROOT
HETATM    1  C2  UNL     1      34.007   4.980  47.046  1.00  0.00     0.103 A 
HETATM    2  C3  UNL     1      34.059   6.368  46.970  1.00  0.00     0.072 A 
HETATM    3  C4  UNL     1      33.002   7.118  47.435  1.00  0.00     0.075 A 
HETATM    4  N1  UNL     1      32.968   8.457  47.401  1.00  0.00    -0.241 NA
HETATM    5  C5  UNL     1      31.928   9.184  47.858  1.00  0.00     0.236 A 
HETATM    6  N2  UNL     1      30.830   8.580  48.390  1.00  0.00    -0.224 NA
HETATM    7  C6  UNL     1      30.774   7.229  48.466  1.00  0.00     0.141 A 
HETATM    8  C13 UNL     1      31.874   6.518  47.981  1.00  0.00     0.042 A 
HETATM    9  C14 UNL     1      31.861   5.124  48.038  1.00  0.00     0.057 A 
HETATM   10  C15 UNL     1      32.909   4.339  47.579  1.00  0.00     0.102 A 
ENDROOT
BRANCH   7  11
HETATM   11  N3  UNL     1      29.671   6.494  49.004  1.00  0.00    -0.350 N 
HETATM   12  H6  UNL     1      29.518   5.816  49.796  1.00  0.00     0.166 HD
BRANCH  11  13
HETATM   13  C7  UNL     1      28.698   6.978  48.068  1.00  0.00     0.090 C 
HETATM   14  C8  UNL     1      27.510   6.354  48.045  1.00  0.00     0.017 C 
BRANCH  14  15
HETATM   15  C9  UNL     1      27.287   5.231  48.967  1.00  0.00     0.002 C 
HETATM   16  C10 UNL     1      26.048   4.815  49.180  1.00  0.00     0.014 C 
BRANCH  16  17
HETATM   17  C11 UNL     1      25.793   3.703  50.088  1.00  0.00    -0.022 A 
HETATM   18  C12 UNL     1      26.491   2.707  50.640  1.00  0.00     0.209 A 
HETATM   19  S1  UNL     1      24.803   2.663  51.151  1.00  0.00    -0.202 SA
ENDBRANCH  16  17
ENDBRANCH  14  15
ENDBRANCH  11  13
ENDBRANCH   7  11
BRANCH  10  20
HETATM   20  O2  UNL     1      32.897   2.960  47.635  1.00  0.00    -0.353 OA
HETATM   21  C16 UNL     1      32.261   2.127  46.715  1.00  0.00     0.210 C 
ENDBRANCH  10  20
BRANCH   1  22
HETATM   22  O1  UNL     1      35.059   4.201  46.584  1.00  0.00    -0.353 OA
HETATM   23  C1  UNL     1      35.204   3.889  45.202  1.00  0.00     0.210 C 
ENDBRANCH   1  22
TORSDOF 6
ENDMDL
MODEL 9
REMARK VINA RESULT:      -6.1      4.185      6.787
REMARK  6 active torsions:
REMARK  status: ('A' for Active; 'I' for Inactive)
REMARK    1  A    between atoms: O1_2  and  C2_3 
REMARK    2  A    between atoms: C6_9  and  N3_10 
REMARK    3  A    between atoms: N3_10  and  C7_11 
REMARK    4  A    between atoms: C8_12  and  C9_13 
REMARK    5  A    between atoms: C10_14  and  C11_15 
REMARK    6  A    between atoms: C15_20  and  O2_21 
ROOT
HETATM    1  C2  UNL     1      26.909   0.571  53.517  1.00  0.00     0.103 A 
HETATM    2  C3  UNL     1      26.317  -0.202  54.511  1.00  0.00     0.072 A 
HETATM    3  C4  UNL     1      24.971  -0.485  54.449  1.00  0.00     0.075 A 
HETATM    4  N1  UNL     1      24.322  -1.220  55.362  1.00  0.00    -0.241 NA
HETATM    5  C5  UNL     1      23.002  -1.490  55.293  1.00  0.00     0.236 A 
HETATM    6  N2  UNL     1      22.242  -1.019  54.268  1.00  0.00    -0.224 NA
HETATM    7  C6  UNL     1      22.812  -0.266  53.297  1.00  0.00     0.141 A 
HETATM    8  C13 UNL     1      24.181  -0.012  53.409  1.00  0.00     0.042 A 
HETATM    9  C14 UNL     1      24.811   0.761  52.433  1.00  0.00     0.057 A 
HETATM   10  C15 UNL     1      26.165   1.063  52.466  1.00  0.00     0.102 A 
ENDROOT
BRANCH   7  11
HETATM   11  N3  UNL     1      22.107   0.280  52.178  1.00  0.00    -0.350 N 
HETATM   12  H6  UNL     1      22.361   0.682  51.237  1.00  0.00     0.166 HD
BRANCH  11  13
HETATM   13  C7  UNL     1      20.796   0.119  52.734  1.00  0.00     0.090 C 
HETATM   14  C8  UNL     1      19.794   0.786  52.140  1.00  0.00     0.017 C 
BRANCH  14  15
HETATM   15  C9  UNL     1      20.104   1.627  50.975  1.00  0.00     0.002 C 
HETATM   16  C10 UNL     1      19.448   1.419  49.843  1.00  0.00     0.014 C 
BRANCH  16  17
HETATM   17  C11 UNL     1      19.730   2.236  48.669  1.00  0.00    -0.022 A 
HETATM   18  C12 UNL     1      20.793   2.548  47.924  1.00  0.00     0.209 A 
HETATM   19  S1  UNL     1      19.337   3.341  47.321  1.00  0.00    -0.202 SA
ENDBRANCH  16  17
ENDBRANCH  14  15
ENDBRANCH  11  13
ENDBRANCH   7  11
BRANCH  10  20
HETATM   20  O2  UNL     1      26.789   1.826  51.500  1.00  0.00    -0.353 OA
HETATM   21  C16 UNL     1      26.178   2.838  50.761  1.00  0.00     0.210 C 
ENDBRANCH  10  20
BRANCH   1  22
HETATM   22  O1  UNL     1      28.263   0.869  53.557  1.00  0.00    -0.353 OA
HETATM   23  C1  UNL     1      29.184   0.054  54.275  1.00  0.00     0.210 C 
ENDBRANCH   1  22
TORSDOF 6
ENDMDL
