MODEL 1
REMARK VINA RESULT:      -9.2      0.000      0.000
REMARK  6 active torsions:
REMARK  status: ('A' for Active; 'I' for Inactive)
REMARK    1  A    between atoms: C6_6  and  C7_7 
REMARK    2  A    between atoms: C7_7  and  O1_8 
REMARK    3  A    between atoms: O1_8  and  C8_9 
REMARK    4  A    between atoms: C10_11  and  N1_12 
REMARK    5  A    between atoms: N1_12  and  C11_13 
REMARK    6  A    between atoms: C13_15  and  C14_16 
ROOT
HETATM    1  C8  UNL     1      23.605   3.367  50.292  1.00  0.00     0.104 C 
HETATM    2  C9  UNL     1      22.959   2.241  50.497  1.00  0.00     0.041 C 
HETATM    3  C10 UNL     1      22.352   2.162  51.650  1.00  0.00     0.049 C 
HETATM    4  C20 UNL     1      22.393   3.543  52.146  1.00  0.00     0.057 C 
HETATM    5  C21 UNL     1      23.142   4.281  51.341  1.00  0.00     0.070 C 
HETATM    6 CL1  UNL     1      23.501   5.989  51.502  1.00  0.00    -0.081 Cl
ENDROOT
BRANCH   3   7
HETATM    7  N1  UNL     1      21.743   1.128  52.409  1.00  0.00    -0.340 N 
HETATM    8  H9  UNL     1      20.727   0.896  52.363  1.00  0.00     0.167 HD
BRANCH   7   9
HETATM    9  C11 UNL     1      22.534   0.345  53.293  1.00  0.00     0.131 A 
HETATM   10  C12 UNL     1      23.918   0.329  53.258  1.00  0.00     0.083 A 
HETATM   11  C13 UNL     1      24.706  -0.423  54.104  1.00  0.00     0.073 A 
HETATM   12  N3  UNL     1      24.025  -1.166  54.998  1.00  0.00    -0.241 NA
HETATM   13  C19 UNL     1      22.696  -1.188  55.075  1.00  0.00     0.235 A 
HETATM   14  N4  UNL     1      21.948  -0.447  54.239  1.00  0.00    -0.224 NA
BRANCH  11  15
HETATM   15  C14 UNL     1      26.162  -0.422  54.047  1.00  0.00     0.010 A 
HETATM   16  C15 UNL     1      26.916  -1.122  53.131  1.00  0.00     0.017 A 
HETATM   17  C16 UNL     1      28.310  -1.055  53.161  1.00  0.00     0.020 A 
HETATM   18  C17 UNL     1      28.964  -0.277  54.121  1.00  0.00     0.116 A 
HETATM   19  N2  UNL     1      28.193   0.405  55.013  1.00  0.00    -0.272 NA
HETATM   20  C18 UNL     1      26.843   0.334  54.977  1.00  0.00     0.130 A 
ENDBRANCH  11  15
ENDBRANCH   7   9
ENDBRANCH   3   7
BRANCH   1  21
HETATM   21  O1  UNL     1      24.531   3.659  49.302  1.00  0.00    -0.344 OA
BRANCH  21  22
HETATM   22  C7  UNL     1      25.921   3.616  49.483  1.00  0.00     0.214 C 
BRANCH  22  23
HETATM   23  C6  UNL     1      26.604   4.827  48.953  1.00  0.00    -0.034 A 
HETATM   24  C5  UNL     1      25.870   5.993  48.747  1.00  0.00     0.009 A 
HETATM   25  C4  UNL     1      26.455   7.138  48.258  1.00  0.00     0.001 A 
HETATM   26  C3  UNL     1      27.816   7.143  47.957  1.00  0.00     0.007 A 
HETATM   27  C2  UNL     1      28.561   5.984  48.158  1.00  0.00    -0.061 A 
HETATM   28  C1  UNL     1      30.027   6.012  47.827  1.00  0.00     0.048 C 
HETATM   29  C22 UNL     1      27.956   4.853  48.646  1.00  0.00     0.016 A 
ENDBRANCH  22  23
ENDBRANCH  21  22
ENDBRANCH   1  21
TORSDOF 6
ENDMDL
MODEL 2
REMARK VINA RESULT:      -9.2      2.990      6.935
REMARK  6 active torsions:
REMARK  status: ('A' for Active; 'I' for Inactive)
REMARK    1  A    between atoms: C6_6  and  C7_7 
REMARK    2  A    between atoms: C7_7  and  O1_8 
REMARK    3  A    between atoms: O1_8  and  C8_9 
REMARK    4  A    between atoms: C10_11  and  N1_12 
REMARK    5  A    between atoms: N1_12  and  C11_13 
REMARK    6  A    between atoms: C13_15  and  C14_16 
ROOT
HETATM    1  C8  UNL     1      23.906   0.008  53.023  1.00  0.00     0.104 C 
HETATM    2  C9  UNL     1      23.969   1.042  52.214  1.00  0.00     0.041 C 
HETATM    3  C10 UNL     1      22.872   1.279  51.545  1.00  0.00     0.049 C 
HETATM    4  C20 UNL     1      21.878   0.438  52.223  1.00  0.00     0.057 C 
HETATM    5  C21 UNL     1      22.483  -0.332  53.114  1.00  0.00     0.070 C 
HETATM    6 CL1  UNL     1      21.734  -1.509  54.176  1.00  0.00    -0.081 Cl
ENDROOT
BRANCH   3   7
HETATM    7  N1  UNL     1      22.512   2.091  50.437  1.00  0.00    -0.340 N 
HETATM    8  H9  UNL     1      21.914   1.764  49.648  1.00  0.00     0.167 HD
BRANCH   7   9
HETATM    9  C11 UNL     1      22.978   3.432  50.368  1.00  0.00     0.131 A 
HETATM   10  C12 UNL     1      24.218   3.777  49.856  1.00  0.00     0.083 A 
HETATM   11  C13 UNL     1      24.692   5.070  49.779  1.00  0.00     0.073 A 
HETATM   12  N3  UNL     1      23.847   6.010  50.247  1.00  0.00    -0.241 NA
HETATM   13  C19 UNL     1      22.646   5.733  50.749  1.00  0.00     0.235 A 
HETATM   14  N4  UNL     1      22.205   4.464  50.815  1.00  0.00    -0.224 NA
BRANCH  11  15
HETATM   15  C14 UNL     1      26.000   5.407  49.234  1.00  0.00     0.010 A 
HETATM   16  C15 UNL     1      26.389   6.668  48.836  1.00  0.00     0.017 A 
HETATM   17  C16 UNL     1      27.668   6.888  48.325  1.00  0.00     0.020 A 
HETATM   18  C17 UNL     1      28.578   5.833  48.208  1.00  0.00     0.116 A 
HETATM   19  N2  UNL     1      28.168   4.598  48.610  1.00  0.00    -0.272 NA
HETATM   20  C18 UNL     1      26.925   4.393  49.104  1.00  0.00     0.130 A 
ENDBRANCH  11  15
ENDBRANCH   7   9
ENDBRANCH   3   7
BRANCH   1  21
HETATM   21  O1  UNL     1      24.947  -0.641  53.669  1.00  0.00    -0.344 OA
BRANCH  21  22
HETATM   22  C7  UNL     1      25.945  -1.377  53.015  1.00  0.00     0.214 C 
BRANCH  22  23
HETATM   23  C6  UNL     1      27.302  -0.799  53.209  1.00  0.00    -0.034 A 
HETATM   24  C5  UNL     1      28.410  -1.643  53.235  1.00  0.00     0.009 A 
HETATM   25  C4  UNL     1      29.685  -1.158  53.413  1.00  0.00     0.001 A 
HETATM   26  C3  UNL     1      29.886   0.212  53.572  1.00  0.00     0.007 A 
HETATM   27  C2  UNL     1      28.787   1.067  53.548  1.00  0.00    -0.061 A 
HETATM   28  C1  UNL     1      29.027   2.541  53.721  1.00  0.00     0.048 C 
HETATM   29  C22 UNL     1      27.524   0.561  53.370  1.00  0.00     0.016 A 
ENDBRANCH  22  23
ENDBRANCH  21  22
ENDBRANCH   1  21
TORSDOF 6
ENDMDL
MODEL 3
REMARK VINA RESULT:      -9.1      0.509      1.327
REMARK  6 active torsions:
REMARK  status: ('A' for Active; 'I' for Inactive)
REMARK    1  A    between atoms: C6_6  and  C7_7 
REMARK    2  A    between atoms: C7_7  and  O1_8 
REMARK    3  A    between atoms: O1_8  and  C8_9 
REMARK    4  A    between atoms: C10_11  and  N1_12 
REMARK    5  A    between atoms: N1_12  and  C11_13 
REMARK    6  A    between atoms: C13_15  and  C14_16 
ROOT
HETATM    1  C8  UNL     1      23.947   3.655  50.218  1.00  0.00     0.104 C 
HETATM    2  C9  UNL     1      23.199   2.591  50.411  1.00  0.00     0.041 C 
HETATM    3  C10 UNL     1      22.557   2.576  51.548  1.00  0.00     0.049 C 
HETATM    4  C20 UNL     1      22.706   3.952  52.037  1.00  0.00     0.057 C 
HETATM    5  C21 UNL     1      23.538   4.614  51.248  1.00  0.00     0.070 C 
HETATM    6 CL1  UNL     1      24.043   6.285  51.409  1.00  0.00    -0.081 Cl
ENDROOT
BRANCH   3   7
HETATM    7  N1  UNL     1      21.837   1.606  52.296  1.00  0.00    -0.340 N 
HETATM    8  H9  UNL     1      20.798   1.518  52.286  1.00  0.00     0.167 HD
BRANCH   7   9
HETATM    9  C11 UNL     1      22.544   0.686  53.117  1.00  0.00     0.131 A 
HETATM   10  C12 UNL     1      23.927   0.605  53.148  1.00  0.00     0.083 A 
HETATM   11  C13 UNL     1      24.634  -0.279  53.935  1.00  0.00     0.073 A 
HETATM   12  N3  UNL     1      23.874  -1.088  54.698  1.00  0.00    -0.241 NA
HETATM   13  C19 UNL     1      22.543  -1.053  54.706  1.00  0.00     0.235 A 
HETATM   14  N4  UNL     1      21.874  -0.182  53.930  1.00  0.00    -0.224 NA
BRANCH  11  15
HETATM   15  C14 UNL     1      26.089  -0.343  53.950  1.00  0.00     0.010 A 
HETATM   16  C15 UNL     1      26.856  -1.088  53.081  1.00  0.00     0.017 A 
HETATM   17  C16 UNL     1      28.248  -1.083  53.179  1.00  0.00     0.020 A 
HETATM   18  C17 UNL     1      28.888  -0.321  54.162  1.00  0.00     0.116 A 
HETATM   19  N2  UNL     1      28.106   0.406  55.007  1.00  0.00    -0.272 NA
HETATM   20  C18 UNL     1      26.757   0.394  54.905  1.00  0.00     0.130 A 
ENDBRANCH  11  15
ENDBRANCH   7   9
ENDBRANCH   3   7
BRANCH   1  21
HETATM   21  O1  UNL     1      24.922   3.855  49.252  1.00  0.00    -0.344 OA
BRANCH  21  22
HETATM   22  C7  UNL     1      26.294   3.943  49.521  1.00  0.00     0.214 C 
BRANCH  22  23
HETATM   23  C6  UNL     1      26.937   5.103  48.846  1.00  0.00    -0.034 A 
HETATM   24  C5  UNL     1      28.294   5.051  48.538  1.00  0.00     0.009 A 
HETATM   25  C4  UNL     1      28.935   6.097  47.915  1.00  0.00     0.001 A 
HETATM   26  C3  UNL     1      28.217   7.243  47.579  1.00  0.00     0.007 A 
HETATM   27  C2  UNL     1      26.859   7.308  47.881  1.00  0.00    -0.061 A 
HETATM   28  C1  UNL     1      26.104   8.554  47.509  1.00  0.00     0.048 C 
HETATM   29  C22 UNL     1      26.241   6.252  48.504  1.00  0.00     0.016 A 
ENDBRANCH  22  23
ENDBRANCH  21  22
ENDBRANCH   1  21
TORSDOF 6
ENDMDL
MODEL 4
REMARK VINA RESULT:      -9.0      1.459      1.982
REMARK  6 active torsions:
REMARK  status: ('A' for Active; 'I' for Inactive)
REMARK    1  A    between atoms: C6_6  and  C7_7 
REMARK    2  A    between atoms: C7_7  and  O1_8 
REMARK    3  A    between atoms: O1_8  and  C8_9 
REMARK    4  A    between atoms: C10_11  and  N1_12 
REMARK    5  A    between atoms: N1_12  and  C11_13 
REMARK    6  A    between atoms: C13_15  and  C14_16 
ROOT
HETATM    1  C8  UNL     1      22.579   3.582  49.863  1.00  0.00     0.104 C 
HETATM    2  C9  UNL     1      22.398   3.322  51.139  1.00  0.00     0.041 C 
HETATM    3  C10 UNL     1      21.807   2.184  51.385  1.00  0.00     0.049 C 
HETATM    4  C20 UNL     1      21.857   1.493  50.090  1.00  0.00     0.057 C 
HETATM    5  C21 UNL     1      22.319   2.320  49.164  1.00  0.00     0.070 C 
HETATM    6 CL1  UNL     1      22.564   1.973  47.464  1.00  0.00    -0.081 Cl
ENDROOT
BRANCH   3   7
HETATM    7  N1  UNL     1      21.209   1.574  52.518  1.00  0.00    -0.340 N 
HETATM    8  H9  UNL     1      20.227   1.752  52.824  1.00  0.00     0.167 HD
BRANCH   7   9
HETATM    9  C11 UNL     1      21.963   0.661  53.306  1.00  0.00     0.131 A 
HETATM   10  C12 UNL     1      23.340   0.545  53.219  1.00  0.00     0.083 A 
HETATM   11  C13 UNL     1      24.093  -0.333  53.971  1.00  0.00     0.073 A 
HETATM   12  N3  UNL     1      23.383  -1.095  54.826  1.00  0.00    -0.241 NA
HETATM   13  C19 UNL     1      22.060  -1.025  54.949  1.00  0.00     0.235 A 
HETATM   14  N4  UNL     1      21.346  -0.162  54.204  1.00  0.00    -0.224 NA
BRANCH  11  15
HETATM   15  C14 UNL     1      25.542  -0.435  53.862  1.00  0.00     0.010 A 
HETATM   16  C15 UNL     1      26.218  -0.914  52.762  1.00  0.00     0.017 A 
HETATM   17  C16 UNL     1      27.612  -0.973  52.755  1.00  0.00     0.020 A 
HETATM   18  C17 UNL     1      28.346  -0.547  53.867  1.00  0.00     0.116 A 
HETATM   19  N2  UNL     1      27.652  -0.078  54.940  1.00  0.00    -0.272 NA
HETATM   20  C18 UNL     1      26.300  -0.025  54.937  1.00  0.00     0.130 A 
ENDBRANCH  11  15
ENDBRANCH   7   9
ENDBRANCH   3   7
BRANCH   1  21
HETATM   21  O1  UNL     1      22.941   4.785  49.275  1.00  0.00    -0.344 OA
BRANCH  21  22
HETATM   22  C7  UNL     1      23.818   5.714  49.853  1.00  0.00     0.214 C 
BRANCH  22  23
HETATM   23  C6  UNL     1      25.217   5.555  49.371  1.00  0.00    -0.034 A 
HETATM   24  C5  UNL     1      25.873   4.341  49.561  1.00  0.00     0.009 A 
HETATM   25  C4  UNL     1      27.167   4.145  49.135  1.00  0.00     0.001 A 
HETATM   26  C3  UNL     1      27.847   5.180  48.496  1.00  0.00     0.007 A 
HETATM   27  C2  UNL     1      27.202   6.398  48.300  1.00  0.00    -0.061 A 
HETATM   28  C1  UNL     1      27.955   7.501  47.608  1.00  0.00     0.048 C 
HETATM   29  C22 UNL     1      25.912   6.572  48.734  1.00  0.00     0.016 A 
ENDBRANCH  22  23
ENDBRANCH  21  22
ENDBRANCH   1  21
TORSDOF 6
ENDMDL
MODEL 5
REMARK VINA RESULT:      -8.8      2.487      5.042
REMARK  6 active torsions:
REMARK  status: ('A' for Active; 'I' for Inactive)
REMARK    1  A    between atoms: C6_6  and  C7_7 
REMARK    2  A    between atoms: C7_7  and  O1_8 
REMARK    3  A    between atoms: O1_8  and  C8_9 
REMARK    4  A    between atoms: C10_11  and  N1_12 
REMARK    5  A    between atoms: N1_12  and  C11_13 
REMARK    6  A    between atoms: C13_15  and  C14_16 
ROOT
HETATM    1  C8  UNL     1      26.672   2.041  51.865  1.00  0.00     0.104 C 
HETATM    2  C9  UNL     1      25.578   1.313  51.903  1.00  0.00     0.041 C 
HETATM    3  C10 UNL     1      25.551   0.420  52.855  1.00  0.00     0.049 C 
HETATM    4  C20 UNL     1      26.674   0.812  53.716  1.00  0.00     0.057 C 
HETATM    5  C21 UNL     1      27.358   1.786  53.135  1.00  0.00     0.070 C 
HETATM    6 CL1  UNL     1      28.783   2.594  53.758  1.00  0.00    -0.081 Cl
ENDROOT
BRANCH   3   7
HETATM    7  N1  UNL     1      24.744  -0.706  53.170  1.00  0.00    -0.340 N 
HETATM    8  H9  UNL     1      25.104  -1.683  53.218  1.00  0.00     0.167 HD
BRANCH   7   9
HETATM    9  C11 UNL     1      23.360  -0.525  53.442  1.00  0.00     0.131 A 
HETATM   10  C12 UNL     1      22.455  -0.074  52.495  1.00  0.00     0.083 A 
HETATM   11  C13 UNL     1      21.110   0.109  52.735  1.00  0.00     0.073 A 
HETATM   12  N3  UNL     1      20.715  -0.187  53.989  1.00  0.00    -0.241 NA
HETATM   13  C19 UNL     1      21.542  -0.623  54.937  1.00  0.00     0.235 A 
HETATM   14  N4  UNL     1      22.851  -0.794  54.680  1.00  0.00    -0.224 NA
BRANCH  11  15
HETATM   15  C14 UNL     1      20.178   0.584  51.722  1.00  0.00     0.010 A 
HETATM   16  C15 UNL     1      18.951   0.019  51.451  1.00  0.00     0.017 A 
HETATM   17  C16 UNL     1      18.129   0.549  50.456  1.00  0.00     0.020 A 
HETATM   18  C17 UNL     1      18.537   1.664  49.716  1.00  0.00     0.116 A 
HETATM   19  N2  UNL     1      19.754   2.203  50.006  1.00  0.00    -0.272 NA
HETATM   20  C18 UNL     1      20.545   1.681  50.972  1.00  0.00     0.130 A 
ENDBRANCH  11  15
ENDBRANCH   7   9
ENDBRANCH   3   7
BRANCH   1  21
HETATM   21  O1  UNL     1      27.109   2.882  50.852  1.00  0.00    -0.344 OA
BRANCH  21  22
HETATM   22  C7  UNL     1      26.409   3.110  49.659  1.00  0.00     0.214 C 
BRANCH  22  23
HETATM   23  C6  UNL     1      26.643   4.473  49.110  1.00  0.00    -0.034 A 
HETATM   24  C5  UNL     1      25.587   5.379  49.050  1.00  0.00     0.009 A 
HETATM   25  C4  UNL     1      25.751   6.650  48.551  1.00  0.00     0.001 A 
HETATM   26  C3  UNL     1      27.004   7.053  48.090  1.00  0.00     0.007 A 
HETATM   27  C2  UNL     1      28.068   6.157  48.144  1.00  0.00    -0.061 A 
HETATM   28  C1  UNL     1      29.410   6.613  47.642  1.00  0.00     0.048 C 
HETATM   29  C22 UNL     1      27.880   4.894  48.646  1.00  0.00     0.016 A 
ENDBRANCH  22  23
ENDBRANCH  21  22
ENDBRANCH   1  21
TORSDOF 6
ENDMDL
MODEL 6
REMARK VINA RESULT:      -8.7      3.216      7.260
REMARK  6 active torsions:
REMARK  status: ('A' for Active; 'I' for Inactive)
REMARK    1  A    between atoms: C6_6  and  C7_7 
REMARK    2  A    between atoms: C7_7  and  O1_8 
REMARK    3  A    between atoms: O1_8  and  C8_9 
REMARK    4  A    between atoms: C10_11  and  N1_12 
REMARK    5  A    between atoms: N1_12  and  C11_13 
REMARK    6  A    between atoms: C13_15  and  C14_16 
ROOT
HETATM    1  C8  UNL     1      23.764   2.173  52.957  1.00  0.00     0.104 C 
HETATM    2  C9  UNL     1      24.002   3.458  53.093  1.00  0.00     0.041 C 
HETATM    3  C10 UNL     1      23.247   4.233  52.361  1.00  0.00     0.049 C 
HETATM    4  C20 UNL     1      22.194   3.326  51.889  1.00  0.00     0.057 C 
HETATM    5  C21 UNL     1      22.489   2.083  52.239  1.00  0.00     0.070 C 
HETATM    6 CL1  UNL     1      21.549   0.641  51.910  1.00  0.00    -0.081 Cl
ENDROOT
BRANCH   3   7
HETATM    7  N1  UNL     1      23.256   5.603  51.990  1.00  0.00    -0.340 N 
HETATM    8  H9  UNL     1      22.966   6.379  52.624  1.00  0.00     0.167 HD
BRANCH   7   9
HETATM    9  C11 UNL     1      23.679   5.975  50.684  1.00  0.00     0.131 A 
HETATM   10  C12 UNL     1      25.002   5.936  50.277  1.00  0.00     0.083 A 
HETATM   11  C13 UNL     1      25.436   6.293  49.017  1.00  0.00     0.073 A 
HETATM   12  N3  UNL     1      24.462   6.694  48.177  1.00  0.00    -0.241 NA
HETATM   13  C19 UNL     1      23.176   6.750  48.517  1.00  0.00     0.235 A 
HETATM   14  N4  UNL     1      22.776   6.398  49.752  1.00  0.00    -0.224 NA
BRANCH  11  15
HETATM   15  C14 UNL     1      26.835   6.242  48.613  1.00  0.00     0.010 A 
HETATM   16  C15 UNL     1      27.557   7.313  48.135  1.00  0.00     0.017 A 
HETATM   17  C16 UNL     1      28.896   7.161  47.772  1.00  0.00     0.020 A 
HETATM   18  C17 UNL     1      29.527   5.918  47.888  1.00  0.00     0.116 A 
HETATM   19  N2  UNL     1      28.789   4.878  48.365  1.00  0.00    -0.272 NA
HETATM   20  C18 UNL     1      27.491   5.034  48.714  1.00  0.00     0.130 A 
ENDBRANCH  11  15
ENDBRANCH   7   9
ENDBRANCH   3   7
BRANCH   1  21
HETATM   21  O1  UNL     1      24.536   1.106  53.392  1.00  0.00    -0.344 OA
BRANCH  21  22
HETATM   22  C7  UNL     1      25.317   0.301  52.551  1.00  0.00     0.214 C 
BRANCH  22  23
HETATM   23  C6  UNL     1      26.760   0.326  52.913  1.00  0.00    -0.034 A 
HETATM   24  C5  UNL     1      27.383   1.547  53.159  1.00  0.00     0.009 A 
HETATM   25  C4  UNL     1      28.715   1.624  53.496  1.00  0.00     0.001 A 
HETATM   26  C3  UNL     1      29.469   0.456  53.597  1.00  0.00     0.007 A 
HETATM   27  C2  UNL     1      28.858  -0.771  53.353  1.00  0.00    -0.061 A 
HETATM   28  C1  UNL     1      29.690  -2.018  53.468  1.00  0.00     0.048 C 
HETATM   29  C22 UNL     1      27.528  -0.823  53.018  1.00  0.00     0.016 A 
ENDBRANCH  22  23
ENDBRANCH  21  22
ENDBRANCH   1  21
TORSDOF 6
ENDMDL
MODEL 7
REMARK VINA RESULT:      -8.6      1.639      2.430
REMARK  6 active torsions:
REMARK  status: ('A' for Active; 'I' for Inactive)
REMARK    1  A    between atoms: C6_6  and  C7_7 
REMARK    2  A    between atoms: C7_7  and  O1_8 
REMARK    3  A    between atoms: O1_8  and  C8_9 
REMARK    4  A    between atoms: C10_11  and  N1_12 
REMARK    5  A    between atoms: N1_12  and  C11_13 
REMARK    6  A    between atoms: C13_15  and  C14_16 
ROOT
HETATM    1  C8  UNL     1      21.777   2.103  50.833  1.00  0.00     0.104 C 
HETATM    2  C9  UNL     1      22.033   0.854  51.155  1.00  0.00     0.041 C 
HETATM    3  C10 UNL     1      21.476   0.453  52.266  1.00  0.00     0.049 C 
HETATM    4  C20 UNL     1      20.507   1.515  52.559  1.00  0.00     0.057 C 
HETATM    5  C21 UNL     1      20.674   2.515  51.706  1.00  0.00     0.070 C 
HETATM    6 CL1  UNL     1      19.766   4.013  51.642  1.00  0.00    -0.081 Cl
ENDROOT
BRANCH   3   7
HETATM    7  N1  UNL     1      21.614  -0.670  53.124  1.00  0.00    -0.340 N 
HETATM    8  H9  UNL     1      20.911  -1.438  53.195  1.00  0.00     0.167 HD
BRANCH   7   9
HETATM    9  C11 UNL     1      22.767  -0.787  53.948  1.00  0.00     0.131 A 
HETATM   10  C12 UNL     1      23.985  -0.208  53.632  1.00  0.00     0.083 A 
HETATM   11  C13 UNL     1      25.116  -0.308  54.415  1.00  0.00     0.073 A 
HETATM   12  N3  UNL     1      24.960  -1.026  55.544  1.00  0.00    -0.241 NA
HETATM   13  C19 UNL     1      23.813  -1.604  55.895  1.00  0.00     0.235 A 
HETATM   14  N4  UNL     1      22.722  -1.493  55.115  1.00  0.00    -0.224 NA
BRANCH  11  15
HETATM   15  C14 UNL     1      26.386   0.311  54.061  1.00  0.00     0.010 A 
HETATM   16  C15 UNL     1      27.621  -0.283  54.204  1.00  0.00     0.017 A 
HETATM   17  C16 UNL     1      28.783   0.397  53.835  1.00  0.00     0.020 A 
HETATM   18  C17 UNL     1      28.713   1.693  53.315  1.00  0.00     0.116 A 
HETATM   19  N2  UNL     1      27.480   2.255  53.183  1.00  0.00    -0.272 NA
HETATM   20  C18 UNL     1      26.358   1.589  53.544  1.00  0.00     0.130 A 
ENDBRANCH  11  15
ENDBRANCH   7   9
ENDBRANCH   3   7
BRANCH   1  21
HETATM   21  O1  UNL     1      22.400   2.887  49.874  1.00  0.00    -0.344 OA
BRANCH  21  22
HETATM   22  C7  UNL     1      22.937   4.158  50.121  1.00  0.00     0.214 C 
BRANCH  22  23
HETATM   23  C6  UNL     1      24.375   4.254  49.747  1.00  0.00    -0.034 A 
HETATM   24  C5  UNL     1      25.211   3.160  49.956  1.00  0.00     0.009 A 
HETATM   25  C4  UNL     1      26.547   3.199  49.629  1.00  0.00     0.001 A 
HETATM   26  C3  UNL     1      27.088   4.357  49.073  1.00  0.00     0.007 A 
HETATM   27  C2  UNL     1      26.262   5.458  48.860  1.00  0.00    -0.061 A 
HETATM   28  C1  UNL     1      26.866   6.697  48.259  1.00  0.00     0.048 C 
HETATM   29  C22 UNL     1      24.933   5.397  49.194  1.00  0.00     0.016 A 
ENDBRANCH  22  23
ENDBRANCH  21  22
ENDBRANCH   1  21
TORSDOF 6
ENDMDL
MODEL 8
REMARK VINA RESULT:      -8.6      4.509      8.651
REMARK  6 active torsions:
REMARK  status: ('A' for Active; 'I' for Inactive)
REMARK    1  A    between atoms: C6_6  and  C7_7 
REMARK    2  A    between atoms: C7_7  and  O1_8 
REMARK    3  A    between atoms: O1_8  and  C8_9 
REMARK    4  A    between atoms: C10_11  and  N1_12 
REMARK    5  A    between atoms: N1_12  and  C11_13 
REMARK    6  A    between atoms: C13_15  and  C14_16 
ROOT
HETATM    1  C8  UNL     1      26.223   4.123  49.518  1.00  0.00     0.104 C 
HETATM    2  C9  UNL     1      27.341   4.706  49.146  1.00  0.00     0.041 C 
HETATM    3  C10 UNL     1      27.181   5.840  48.517  1.00  0.00     0.049 C 
HETATM    4  C20 UNL     1      25.769   6.161  48.757  1.00  0.00     0.057 C 
HETATM    5  C21 UNL     1      25.178   5.139  49.358  1.00  0.00     0.070 C 
HETATM    6 CL1  UNL     1      23.501   5.031  49.854  1.00  0.00    -0.081 Cl
ENDROOT
BRANCH   3   7
HETATM    7  N1  UNL     1      28.009   6.702  47.751  1.00  0.00    -0.340 N 
HETATM    8  H9  UNL     1      27.706   7.163  46.865  1.00  0.00     0.167 HD
BRANCH   7   9
HETATM    9  C11 UNL     1      29.334   6.974  48.187  1.00  0.00     0.131 A 
HETATM   10  C12 UNL     1      30.381   6.081  48.032  1.00  0.00     0.083 A 
HETATM   11  C13 UNL     1      31.674   6.322  48.447  1.00  0.00     0.073 A 
HETATM   12  N3  UNL     1      31.864   7.521  49.032  1.00  0.00    -0.241 NA
HETATM   13  C19 UNL     1      30.894   8.417  49.205  1.00  0.00     0.235 A 
HETATM   14  N4  UNL     1      29.640   8.159  48.793  1.00  0.00    -0.224 NA
BRANCH  11  15
HETATM   15  C14 UNL     1      32.758   5.365  48.272  1.00  0.00     0.010 A 
HETATM   16  C15 UNL     1      34.084   5.616  48.550  1.00  0.00     0.017 A 
HETATM   17  C16 UNL     1      35.050   4.630  48.347  1.00  0.00     0.020 A 
HETATM   18  C17 UNL     1      34.689   3.371  47.857  1.00  0.00     0.116 A 
HETATM   19  N2  UNL     1      33.371   3.151  47.592  1.00  0.00    -0.272 NA
HETATM   20  C18 UNL     1      32.441   4.113  47.791  1.00  0.00     0.130 A 
ENDBRANCH  11  15
ENDBRANCH   7   9
ENDBRANCH   3   7
BRANCH   1  21
HETATM   21  O1  UNL     1      26.041   2.825  49.972  1.00  0.00    -0.344 OA
BRANCH  21  22
HETATM   22  C7  UNL     1      25.591   2.494  51.258  1.00  0.00     0.214 C 
BRANCH  22  23
HETATM   23  C6  UNL     1      26.522   1.579  51.972  1.00  0.00    -0.034 A 
HETATM   24  C5  UNL     1      27.593   2.111  52.686  1.00  0.00     0.009 A 
HETATM   25  C4  UNL     1      28.481   1.307  53.362  1.00  0.00     0.001 A 
HETATM   26  C3  UNL     1      28.315  -0.077  53.338  1.00  0.00     0.007 A 
HETATM   27  C2  UNL     1      27.249  -0.621  52.628  1.00  0.00    -0.061 A 
HETATM   28  C1  UNL     1      27.089  -2.116  52.616  1.00  0.00     0.048 C 
HETATM   29  C22 UNL     1      26.375   0.200  51.960  1.00  0.00     0.016 A 
ENDBRANCH  22  23
ENDBRANCH  21  22
ENDBRANCH   1  21
TORSDOF 6
ENDMDL
MODEL 9
REMARK VINA RESULT:      -8.4      4.333      8.783
REMARK  6 active torsions:
REMARK  status: ('A' for Active; 'I' for Inactive)
REMARK    1  A    between atoms: C6_6  and  C7_7 
REMARK    2  A    between atoms: C7_7  and  O1_8 
REMARK    3  A    between atoms: O1_8  and  C8_9 
REMARK    4  A    between atoms: C10_11  and  N1_12 
REMARK    5  A    between atoms: N1_12  and  C11_13 
REMARK    6  A    between atoms: C13_15  and  C14_16 
ROOT
HETATM    1  C8  UNL     1      26.179   4.011  49.736  1.00  0.00     0.104 C 
HETATM    2  C9  UNL     1      27.248   4.478  49.131  1.00  0.00     0.041 C 
HETATM    3  C10 UNL     1      27.140   5.709  48.706  1.00  0.00     0.049 C 
HETATM    4  C20 UNL     1      25.922   6.187  49.370  1.00  0.00     0.057 C 
HETATM    5  C21 UNL     1      25.332   5.179  49.994  1.00  0.00     0.070 C 
HETATM    6 CL1  UNL     1      23.850   5.236  50.929  1.00  0.00    -0.081 Cl
ENDROOT
BRANCH   3   7
HETATM    7  N1  UNL     1      27.883   6.553  47.840  1.00  0.00    -0.340 N 
HETATM    8  H9  UNL     1      27.487   7.002  46.985  1.00  0.00     0.167 HD
BRANCH   7   9
HETATM    9  C11 UNL     1      29.250   6.824  48.124  1.00  0.00     0.131 A 
HETATM   10  C12 UNL     1      30.258   5.890  47.956  1.00  0.00     0.083 A 
HETATM   11  C13 UNL     1      31.589   6.129  48.225  1.00  0.00     0.073 A 
HETATM   12  N3  UNL     1      31.860   7.369  48.676  1.00  0.00    -0.241 NA
HETATM   13  C19 UNL     1      30.930   8.305  48.856  1.00  0.00     0.235 A 
HETATM   14  N4  UNL     1      29.637   8.049  48.587  1.00  0.00    -0.224 NA
BRANCH  11  15
HETATM   15  C14 UNL     1      32.631   5.128  48.039  1.00  0.00     0.010 A 
HETATM   16  C15 UNL     1      32.435   3.874  47.505  1.00  0.00     0.017 A 
HETATM   17  C16 UNL     1      33.502   2.985  47.369  1.00  0.00     0.020 A 
HETATM   18  C17 UNL     1      34.789   3.352  47.774  1.00  0.00     0.116 A 
HETATM   19  N2  UNL     1      34.954   4.599  48.298  1.00  0.00    -0.272 NA
HETATM   20  C18 UNL     1      33.913   5.454  48.427  1.00  0.00     0.130 A 
ENDBRANCH  11  15
ENDBRANCH   7   9
ENDBRANCH   3   7
BRANCH   1  21
HETATM   21  O1  UNL     1      25.888   2.697  50.072  1.00  0.00    -0.344 OA
BRANCH  21  22
HETATM   22  C7  UNL     1      26.451   2.018  51.162  1.00  0.00     0.214 C 
BRANCH  22  23
HETATM   23  C6  UNL     1      25.440   1.262  51.949  1.00  0.00    -0.034 A 
HETATM   24  C5  UNL     1      25.834   0.139  52.673  1.00  0.00     0.009 A 
HETATM   25  C4  UNL     1      24.938  -0.595  53.415  1.00  0.00     0.001 A 
HETATM   26  C3  UNL     1      23.598  -0.214  53.451  1.00  0.00     0.007 A 
HETATM   27  C2  UNL     1      23.190   0.907  52.732  1.00  0.00    -0.061 A 
HETATM   28  C1  UNL     1      21.740   1.300  52.785  1.00  0.00     0.048 C 
HETATM   29  C22 UNL     1      24.102   1.623  51.998  1.00  0.00     0.016 A 
ENDBRANCH  22  23
ENDBRANCH  21  22
ENDBRANCH   1  21
TORSDOF 6
ENDMDL
