MODEL 1
REMARK VINA RESULT:      -9.0      0.000      0.000
REMARK  2 active torsions:
REMARK  status: ('A' for Active; 'I' for Inactive)
REMARK    1  A    between atoms: C4_5  and  N1_6 
REMARK    2  A    between atoms: N1_6  and  C5_7 
ROOT
HETATM    1  C5  UNL     1      23.464   0.767  52.537  1.00  0.00     0.144 A 
HETATM    2  N2  UNL     1      23.333  -0.175  53.520  1.00  0.00    -0.223 NA
HETATM    3  C6  UNL     1      22.116  -0.282  54.113  1.00  0.00     0.235 A 
HETATM    4  N3  UNL     1      21.131   0.534  53.704  1.00  0.00    -0.243 NA
HETATM    5  C7  UNL     1      21.276   1.450  52.739  1.00  0.00     0.076 A 
HETATM    6  C8  UNL     1      22.473   1.623  52.084  1.00  0.00     0.073 A 
HETATM    7  C9  UNL     1      23.001   2.426  51.018  1.00  0.00     0.114 C 
HETATM    8  C10 UNL     1      22.832   2.377  49.732  1.00  0.00     0.082 C 
HETATM    9  C11 UNL     1      21.993   1.416  48.945  1.00  0.00     0.094 C 
HETATM   10  C12 UNL     1      20.577   1.927  48.779  1.00  0.00     0.177 C 
HETATM   11  O1  UNL     1      19.933   2.081  50.000  1.00  0.00    -0.367 OA
HETATM   12  C13 UNL     1      19.799   0.899  50.689  1.00  0.00     0.338 C 
HETATM   13  O2  UNL     1      19.145   1.266  51.899  1.00  0.00    -0.361 OA
HETATM   14  C14 UNL     1      19.989   2.193  52.551  1.00  0.00     0.230 C 
HETATM   15  O3  UNL     1      23.486   3.298  48.926  1.00  0.00    -0.350 OA
HETATM   16  C15 UNL     1      24.611   4.029  49.350  1.00  0.00     0.202 C 
HETATM   17  C16 UNL     1      24.529   4.372  50.800  1.00  0.00     0.202 C 
HETATM   18  O4  UNL     1      23.823   3.389  51.551  1.00  0.00    -0.345 OA
ENDROOT
BRANCH   1  19
HETATM   19  N1  UNL     1      24.770   0.836  51.993  1.00  0.00    -0.340 N 
HETATM   20  H3  UNL     1      24.971   0.843  50.969  1.00  0.00     0.167 HD
BRANCH  19  21
HETATM   21  C4  UNL     1      26.052   0.918  52.575  1.00  0.00     0.035 A 
HETATM   22  C3  UNL     1      26.645   2.087  53.067  1.00  0.00     0.032 A 
HETATM   23  C2  UNL     1      27.932   2.051  53.579  1.00  0.00     0.046 A 
HETATM   24  C1  UNL     1      28.684   0.863  53.627  1.00  0.00     0.138 A 
HETATM   25  F1  UNL     1      29.905   1.079  54.163  1.00  0.00    -0.204 F 
HETATM   26  C18 UNL     1      28.059  -0.267  53.133  1.00  0.00     0.074 A 
HETATM   27  C17 UNL     1      26.785  -0.237  52.624  1.00  0.00     0.056 A 
HETATM   28 CL1  UNL     1      29.141  -1.649  53.267  1.00  0.00    -0.081 Cl
ENDBRANCH  19  21
ENDBRANCH   1  19
TORSDOF 2
ENDMDL
MODEL 2
REMARK VINA RESULT:      -9.0      1.381      1.757
REMARK  2 active torsions:
REMARK  status: ('A' for Active; 'I' for Inactive)
REMARK    1  A    between atoms: C4_5  and  N1_6 
REMARK    2  A    between atoms: N1_6  and  C5_7 
ROOT
HETATM    1  C5  UNL     1      23.680   0.154  53.348  1.00  0.00     0.144 A 
HETATM    2  N2  UNL     1      23.802  -0.894  54.218  1.00  0.00    -0.223 NA
HETATM    3  C6  UNL     1      22.684  -1.268  54.893  1.00  0.00     0.235 A 
HETATM    4  N3  UNL     1      21.546  -0.591  54.669  1.00  0.00    -0.243 NA
HETATM    5  C7  UNL     1      21.445   0.432  53.813  1.00  0.00     0.076 A 
HETATM    6  C8  UNL     1      22.526   0.873  53.086  1.00  0.00     0.073 A 
HETATM    7  C9  UNL     1      22.808   1.862  52.085  1.00  0.00     0.114 C 
HETATM    8  C10 UNL     1      22.518   1.920  50.821  1.00  0.00     0.082 C 
HETATM    9  C11 UNL     1      21.766   0.919  49.996  1.00  0.00     0.094 C 
HETATM   10  C12 UNL     1      20.277   1.198  50.012  1.00  0.00     0.177 C 
HETATM   11  O1  UNL     1      19.746   1.111  51.292  1.00  0.00    -0.367 OA
HETATM   12  C13 UNL     1      19.871  -0.142  51.842  1.00  0.00     0.338 C 
HETATM   13  O2  UNL     1      19.295  -0.021  53.138  1.00  0.00    -0.361 OA
HETATM   14  C14 UNL     1      20.043   0.962  53.824  1.00  0.00     0.230 C 
HETATM   15  O3  UNL     1      22.932   3.018  50.080  1.00  0.00    -0.350 OA
HETATM   16  C15 UNL     1      23.964   3.881  50.493  1.00  0.00     0.202 C 
HETATM   17  C16 UNL     1      23.977   4.050  51.976  1.00  0.00     0.202 C 
HETATM   18  O4  UNL     1      23.517   2.888  52.659  1.00  0.00    -0.345 OA
ENDROOT
BRANCH   1  19
HETATM   19  N1  UNL     1      24.897   0.500  52.710  1.00  0.00    -0.340 N 
HETATM   20  H3  UNL     1      24.954   1.112  51.866  1.00  0.00     0.167 HD
BRANCH  19  21
HETATM   21  C4  UNL     1      26.246   0.185  52.971  1.00  0.00     0.035 A 
HETATM   22  C3  UNL     1      26.844  -1.061  52.745  1.00  0.00     0.032 A 
HETATM   23  C2  UNL     1      28.172  -1.265  53.082  1.00  0.00     0.046 A 
HETATM   24  C1  UNL     1      28.962  -0.251  53.655  1.00  0.00     0.138 A 
HETATM   25  F1  UNL     1      30.217  -0.688  53.898  1.00  0.00    -0.204 F 
HETATM   26  C18 UNL     1      28.331   0.962  53.859  1.00  0.00     0.074 A 
HETATM   27  C17 UNL     1      27.016   1.170  53.527  1.00  0.00     0.056 A 
HETATM   28 CL1  UNL     1      29.461   2.103  54.582  1.00  0.00    -0.081 Cl
ENDBRANCH  19  21
ENDBRANCH   1  19
TORSDOF 2
ENDMDL
MODEL 3
REMARK VINA RESULT:      -8.4      2.125      4.307
REMARK  2 active torsions:
REMARK  status: ('A' for Active; 'I' for Inactive)
REMARK    1  A    between atoms: C4_5  and  N1_6 
REMARK    2  A    between atoms: N1_6  and  C5_7 
ROOT
HETATM    1  C5  UNL     1      25.619   2.990  50.944  1.00  0.00     0.144 A 
HETATM    2  N2  UNL     1      26.869   3.332  50.506  1.00  0.00    -0.223 NA
HETATM    3  C6  UNL     1      26.940   4.137  49.414  1.00  0.00     0.235 A 
HETATM    4  N3  UNL     1      25.795   4.540  48.841  1.00  0.00    -0.243 NA
HETATM    5  C7  UNL     1      24.580   4.197  49.285  1.00  0.00     0.076 A 
HETATM    6  C8  UNL     1      24.416   3.388  50.385  1.00  0.00     0.073 A 
HETATM    7  C9  UNL     1      23.338   2.849  51.163  1.00  0.00     0.114 C 
HETATM    8  C10 UNL     1      22.532   3.397  52.021  1.00  0.00     0.082 C 
HETATM    9  C11 UNL     1      22.492   4.827  52.471  1.00  0.00     0.094 C 
HETATM   10  C12 UNL     1      21.586   5.658  51.587  1.00  0.00     0.177 C 
HETATM   11  O1  UNL     1      22.028   5.687  50.271  1.00  0.00    -0.367 OA
HETATM   12  C13 UNL     1      23.271   6.260  50.134  1.00  0.00     0.338 C 
HETATM   13  O2  UNL     1      23.548   6.177  48.740  1.00  0.00    -0.361 OA
HETATM   14  C14 UNL     1      23.531   4.805  48.403  1.00  0.00     0.230 C 
HETATM   15  O3  UNL     1      21.566   2.616  52.639  1.00  0.00    -0.350 OA
HETATM   16  C15 UNL     1      21.637   1.212  52.704  1.00  0.00     0.202 C 
HETATM   17  C16 UNL     1      22.253   0.637  51.473  1.00  0.00     0.202 C 
HETATM   18  O4  UNL     1      23.215   1.509  50.888  1.00  0.00    -0.345 OA
ENDROOT
BRANCH   1  19
HETATM   19  N1  UNL     1      25.633   2.123  52.065  1.00  0.00    -0.340 N 
HETATM   20  H3  UNL     1      24.794   1.923  52.652  1.00  0.00     0.167 HD
BRANCH  19  21
HETATM   21  C4  UNL     1      26.642   1.345  52.668  1.00  0.00     0.035 A 
HETATM   22  C3  UNL     1      27.671   1.841  53.478  1.00  0.00     0.032 A 
HETATM   23  C2  UNL     1      28.633   0.981  53.982  1.00  0.00     0.046 A 
HETATM   24  C1  UNL     1      28.619  -0.399  53.709  1.00  0.00     0.138 A 
HETATM   25  F1  UNL     1      29.657  -1.025  54.306  1.00  0.00    -0.204 F 
HETATM   26  C18 UNL     1      27.586  -0.845  52.907  1.00  0.00     0.074 A 
HETATM   27  C17 UNL     1      26.630   0.002  52.405  1.00  0.00     0.056 A 
HETATM   28 CL1  UNL     1      27.728  -2.583  52.668  1.00  0.00    -0.081 Cl
ENDBRANCH  19  21
ENDBRANCH   1  19
TORSDOF 2
ENDMDL
MODEL 4
REMARK VINA RESULT:      -8.2      1.717      3.683
REMARK  2 active torsions:
REMARK  status: ('A' for Active; 'I' for Inactive)
REMARK    1  A    between atoms: C4_5  and  N1_6 
REMARK    2  A    between atoms: N1_6  and  C5_7 
ROOT
HETATM    1  C5  UNL     1      23.986   2.236  51.237  1.00  0.00     0.144 A 
HETATM    2  N2  UNL     1      24.920   2.902  50.493  1.00  0.00    -0.223 NA
HETATM    3  C6  UNL     1      24.574   3.231  49.221  1.00  0.00     0.235 A 
HETATM    4  N3  UNL     1      23.354   2.884  48.780  1.00  0.00    -0.243 NA
HETATM    5  C7  UNL     1      22.452   2.233  49.523  1.00  0.00     0.076 A 
HETATM    6  C8  UNL     1      22.718   1.865  50.821  1.00  0.00     0.073 A 
HETATM    7  C9  UNL     1      22.039   1.223  51.911  1.00  0.00     0.114 C 
HETATM    8  C10 UNL     1      21.099   1.634  52.707  1.00  0.00     0.082 C 
HETATM    9  C11 UNL     1      20.416   2.969  52.721  1.00  0.00     0.094 C 
HETATM   10  C12 UNL     1      19.200   2.976  51.819  1.00  0.00     0.177 C 
HETATM   11  O1  UNL     1      19.534   2.735  50.493  1.00  0.00    -0.367 OA
HETATM   12  C13 UNL     1      20.365   3.696  49.966  1.00  0.00     0.338 C 
HETATM   13  O2  UNL     1      20.603   3.264  48.630  1.00  0.00    -0.361 OA
HETATM   14  C14 UNL     1      21.213   1.993  48.716  1.00  0.00     0.230 C 
HETATM   15  O3  UNL     1      20.626   0.783  53.695  1.00  0.00    -0.350 OA
HETATM   16  C15 UNL     1      21.341  -0.341  54.150  1.00  0.00     0.202 C 
HETATM   17  C16 UNL     1      22.114  -0.984  53.047  1.00  0.00     0.202 C 
HETATM   18  O4  UNL     1      22.542  -0.045  52.064  1.00  0.00    -0.345 OA
ENDROOT
BRANCH   1  19
HETATM   19  N1  UNL     1      24.437   1.902  52.538  1.00  0.00    -0.340 N 
HETATM   20  H3  UNL     1      23.902   2.114  53.409  1.00  0.00     0.167 HD
BRANCH  19  21
HETATM   21  C4  UNL     1      25.593   1.253  53.020  1.00  0.00     0.035 A 
HETATM   22  C3  UNL     1      26.574   1.842  53.828  1.00  0.00     0.032 A 
HETATM   23  C2  UNL     1      27.691   1.114  54.205  1.00  0.00     0.046 A 
HETATM   24  C1  UNL     1      27.884  -0.220  53.804  1.00  0.00     0.138 A 
HETATM   25  F1  UNL     1      29.043  -0.714  54.292  1.00  0.00    -0.204 F 
HETATM   26  C18 UNL     1      26.891  -0.761  53.009  1.00  0.00     0.074 A 
HETATM   27  C17 UNL     1      25.783  -0.045  52.632  1.00  0.00     0.056 A 
HETATM   28 CL1  UNL     1      27.299  -2.424  52.601  1.00  0.00    -0.081 Cl
ENDBRANCH  19  21
ENDBRANCH   1  19
TORSDOF 2
ENDMDL
MODEL 5
REMARK VINA RESULT:      -8.0      2.848      5.160
REMARK  2 active torsions:
REMARK  status: ('A' for Active; 'I' for Inactive)
REMARK    1  A    between atoms: C4_5  and  N1_6 
REMARK    2  A    between atoms: N1_6  and  C5_7 
ROOT
HETATM    1  C5  UNL     1      25.916   3.840  49.568  1.00  0.00     0.144 A 
HETATM    2  N2  UNL     1      27.205   4.220  49.315  1.00  0.00    -0.223 NA
HETATM    3  C6  UNL     1      27.387   5.431  48.727  1.00  0.00     0.235 A 
HETATM    4  N3  UNL     1      26.303   6.168  48.434  1.00  0.00    -0.243 NA
HETATM    5  C7  UNL     1      25.049   5.782  48.691  1.00  0.00     0.076 A 
HETATM    6  C8  UNL     1      24.775   4.572  49.286  1.00  0.00     0.073 A 
HETATM    7  C9  UNL     1      23.627   3.843  49.744  1.00  0.00     0.114 C 
HETATM    8  C10 UNL     1      22.854   4.003  50.775  1.00  0.00     0.082 C 
HETATM    9  C11 UNL     1      22.943   5.051  51.844  1.00  0.00     0.094 C 
HETATM   10  C12 UNL     1      22.149   6.286  51.473  1.00  0.00     0.177 C 
HETATM   11  O1  UNL     1      22.629   6.884  50.315  1.00  0.00    -0.367 OA
HETATM   12  C13 UNL     1      23.926   7.326  50.436  1.00  0.00     0.338 C 
HETATM   13  O2  UNL     1      24.233   7.878  49.160  1.00  0.00    -0.361 OA
HETATM   14  C14 UNL     1      24.091   6.833  48.220  1.00  0.00     0.230 C 
HETATM   15  O3  UNL     1      21.799   3.125  50.976  1.00  0.00    -0.350 OA
HETATM   16  C15 UNL     1      21.729   1.855  50.372  1.00  0.00     0.202 C 
HETATM   17  C16 UNL     1      22.321   1.865  49.003  1.00  0.00     0.202 C 
HETATM   18  O4  UNL     1      23.380   2.808  48.875  1.00  0.00    -0.345 OA
ENDROOT
BRANCH   1  19
HETATM   19  N1  UNL     1      25.813   2.553  50.151  1.00  0.00    -0.340 N 
HETATM   20  H3  UNL     1      25.529   1.699  49.621  1.00  0.00     0.167 HD
BRANCH  19  21
HETATM   21  C4  UNL     1      26.035   2.065  51.455  1.00  0.00     0.035 A 
HETATM   22  C3  UNL     1      27.152   2.357  52.248  1.00  0.00     0.032 A 
HETATM   23  C2  UNL     1      27.282   1.782  53.502  1.00  0.00     0.046 A 
HETATM   24  C1  UNL     1      26.318   0.899  54.023  1.00  0.00     0.138 A 
HETATM   25  F1  UNL     1      26.666   0.469  55.256  1.00  0.00    -0.204 F 
HETATM   26  C18 UNL     1      25.233   0.641  53.207  1.00  0.00     0.074 A 
HETATM   27  C17 UNL     1      25.099   1.207  51.964  1.00  0.00     0.056 A 
HETATM   28 CL1  UNL     1      24.140  -0.480  54.012  1.00  0.00    -0.081 Cl
ENDBRANCH  19  21
ENDBRANCH   1  19
TORSDOF 2
ENDMDL
MODEL 6
REMARK VINA RESULT:      -7.9      3.790      5.796
REMARK  2 active torsions:
REMARK  status: ('A' for Active; 'I' for Inactive)
REMARK    1  A    between atoms: C4_5  and  N1_6 
REMARK    2  A    between atoms: N1_6  and  C5_7 
ROOT
HETATM    1  C5  UNL     1      26.218   2.460  52.024  1.00  0.00     0.144 A 
HETATM    2  N2  UNL     1      27.577   2.362  51.913  1.00  0.00    -0.223 NA
HETATM    3  C6  UNL     1      28.239   1.770  52.941  1.00  0.00     0.235 A 
HETATM    4  N3  UNL     1      27.526   1.327  53.989  1.00  0.00    -0.243 NA
HETATM    5  C7  UNL     1      26.195   1.430  54.081  1.00  0.00     0.076 A 
HETATM    6  C8  UNL     1      25.447   2.012  53.084  1.00  0.00     0.073 A 
HETATM    7  C9  UNL     1      24.064   2.267  52.797  1.00  0.00     0.114 C 
HETATM    8  C10 UNL     1      23.098   1.482  52.430  1.00  0.00     0.082 C 
HETATM    9  C11 UNL     1      23.148   0.003  52.186  1.00  0.00     0.094 C 
HETATM   10  C12 UNL     1      22.857  -0.775  53.453  1.00  0.00     0.177 C 
HETATM   11  O1  UNL     1      23.795  -0.522  54.445  1.00  0.00    -0.367 OA
HETATM   12  C13 UNL     1      25.068  -0.898  54.090  1.00  0.00     0.338 C 
HETATM   13  O2  UNL     1      25.870  -0.543  55.212  1.00  0.00    -0.361 OA
HETATM   14  C14 UNL     1      25.733   0.852  55.384  1.00  0.00     0.230 C 
HETATM   15  O3  UNL     1      21.835   2.015  52.214  1.00  0.00    -0.350 OA
HETATM   16  C15 UNL     1      21.607   3.385  51.985  1.00  0.00     0.202 C 
HETATM   17  C16 UNL     1      22.552   4.236  52.765  1.00  0.00     0.202 C 
HETATM   18  O4  UNL     1      23.814   3.607  52.963  1.00  0.00    -0.345 OA
ENDROOT
BRANCH   1  19
HETATM   19  N1  UNL     1      25.609   3.117  50.926  1.00  0.00    -0.340 N 
HETATM   20  H3  UNL     1      24.685   2.842  50.526  1.00  0.00     0.167 HD
BRANCH  19  21
HETATM   21  C4  UNL     1      25.992   4.215  50.128  1.00  0.00     0.035 A 
HETATM   22  C3  UNL     1      27.035   4.211  49.194  1.00  0.00     0.032 A 
HETATM   23  C2  UNL     1      27.347   5.366  48.496  1.00  0.00     0.046 A 
HETATM   24  C1  UNL     1      26.643   6.569  48.689  1.00  0.00     0.138 A 
HETATM   25  F1  UNL     1      27.130   7.552  47.901  1.00  0.00    -0.204 F 
HETATM   26  C18 UNL     1      25.621   6.526  49.619  1.00  0.00     0.074 A 
HETATM   27  C17 UNL     1      25.308   5.385  50.314  1.00  0.00     0.056 A 
HETATM   28 CL1  UNL     1      24.858   8.109  49.734  1.00  0.00    -0.081 Cl
ENDBRANCH  19  21
ENDBRANCH   1  19
TORSDOF 2
ENDMDL
MODEL 7
REMARK VINA RESULT:      -7.7      3.678      4.803
REMARK  2 active torsions:
REMARK  status: ('A' for Active; 'I' for Inactive)
REMARK    1  A    between atoms: C4_5  and  N1_6 
REMARK    2  A    between atoms: N1_6  and  C5_7 
ROOT
HETATM    1  C5  UNL     1      24.062   3.422  51.188  1.00  0.00     0.144 A 
HETATM    2  N2  UNL     1      24.822   2.475  51.818  1.00  0.00    -0.223 NA
HETATM    3  C6  UNL     1      24.227   1.283  52.083  1.00  0.00     0.235 A 
HETATM    4  N3  UNL     1      22.947   1.112  51.717  1.00  0.00    -0.243 NA
HETATM    5  C7  UNL     1      22.218   2.049  51.099  1.00  0.00     0.076 A 
HETATM    6  C8  UNL     1      22.743   3.282  50.790  1.00  0.00     0.073 A 
HETATM    7  C9  UNL     1      22.325   4.486  50.129  1.00  0.00     0.114 C 
HETATM    8  C10 UNL     1      22.137   4.764  48.875  1.00  0.00     0.082 C 
HETATM    9  C11 UNL     1      22.313   3.861  47.690  1.00  0.00     0.094 C 
HETATM   10  C12 UNL     1      21.036   3.110  47.375  1.00  0.00     0.177 C 
HETATM   11  O1  UNL     1      20.642   2.289  48.423  1.00  0.00    -0.367 OA
HETATM   12  C13 UNL     1      21.561   1.308  48.710  1.00  0.00     0.338 C 
HETATM   13  O2  UNL     1      20.993   0.598  49.806  1.00  0.00    -0.361 OA
HETATM   14  C14 UNL     1      20.834   1.531  50.855  1.00  0.00     0.230 C 
HETATM   15  O3  UNL     1      21.728   6.040  48.516  1.00  0.00    -0.350 OA
HETATM   16  C15 UNL     1      21.872   7.159  49.357  1.00  0.00     0.202 C 
HETATM   17  C16 UNL     1      21.691   6.793  50.793  1.00  0.00     0.202 C 
HETATM   18  O4  UNL     1      22.113   5.462  51.072  1.00  0.00    -0.345 OA
ENDROOT
BRANCH   1  19
HETATM   19  N1  UNL     1      24.746   4.644  50.978  1.00  0.00    -0.340 N 
HETATM   20  H3  UNL     1      24.592   5.500  51.555  1.00  0.00     0.167 HD
BRANCH  19  21
HETATM   21  C4  UNL     1      25.731   5.051  50.054  1.00  0.00     0.035 A 
HETATM   22  C3  UNL     1      26.707   4.219  49.492  1.00  0.00     0.032 A 
HETATM   23  C2  UNL     1      27.651   4.744  48.625  1.00  0.00     0.046 A 
HETATM   24  C1  UNL     1      27.670   6.107  48.277  1.00  0.00     0.138 A 
HETATM   25  F1  UNL     1      28.682   6.378  47.423  1.00  0.00    -0.204 F 
HETATM   26  C18 UNL     1      26.688   6.890  48.853  1.00  0.00     0.074 A 
HETATM   27  C17 UNL     1      25.750   6.376  49.713  1.00  0.00     0.056 A 
HETATM   28 CL1  UNL     1      26.867   8.556  48.312  1.00  0.00    -0.081 Cl
ENDBRANCH  19  21
ENDBRANCH   1  19
TORSDOF 2
ENDMDL
MODEL 8
REMARK VINA RESULT:      -7.7      4.415      6.998
REMARK  2 active torsions:
REMARK  status: ('A' for Active; 'I' for Inactive)
REMARK    1  A    between atoms: C4_5  and  N1_6 
REMARK    2  A    between atoms: N1_6  and  C5_7 
ROOT
HETATM    1  C5  UNL     1      21.503   0.157  53.222  1.00  0.00     0.144 A 
HETATM    2  N2  UNL     1      21.488  -0.599  54.362  1.00  0.00    -0.223 NA
HETATM    3  C6  UNL     1      22.689  -1.017  54.840  1.00  0.00     0.235 A 
HETATM    4  N3  UNL     1      23.800  -0.668  54.172  1.00  0.00    -0.243 NA
HETATM    5  C7  UNL     1      23.796   0.074  53.059  1.00  0.00     0.076 A 
HETATM    6  C8  UNL     1      22.625   0.542  52.508  1.00  0.00     0.073 A 
HETATM    7  C9  UNL     1      22.217   1.361  51.402  1.00  0.00     0.114 C 
HETATM    8  C10 UNL     1      22.283   2.642  51.204  1.00  0.00     0.082 C 
HETATM    9  C11 UNL     1      22.831   3.694  52.121  1.00  0.00     0.094 C 
HETATM   10  C12 UNL     1      24.310   3.915  51.885  1.00  0.00     0.177 C 
HETATM   11  O1  UNL     1      25.054   2.770  52.133  1.00  0.00    -0.367 OA
HETATM   12  C13 UNL     1      24.970   2.348  53.439  1.00  0.00     0.338 C 
HETATM   13  O2  UNL     1      25.770   1.170  53.484  1.00  0.00    -0.361 OA
HETATM   14  C14 UNL     1      25.201   0.257  52.570  1.00  0.00     0.230 C 
HETATM   15  O3  UNL     1      21.796   3.171  50.017  1.00  0.00    -0.350 OA
HETATM   16  C15 UNL     1      20.894   2.486  49.182  1.00  0.00     0.202 C 
HETATM   17  C16 UNL     1      21.150   1.016  49.187  1.00  0.00     0.202 C 
HETATM   18  O4  UNL     1      21.669   0.558  50.432  1.00  0.00    -0.345 OA
ENDROOT
BRANCH   1  19
HETATM   19  N1  UNL     1      20.210   0.524  52.773  1.00  0.00    -0.340 N 
HETATM   20  H3  UNL     1      19.958   1.487  52.461  1.00  0.00     0.167 HD
BRANCH  19  21
HETATM   21  C4  UNL     1      19.007  -0.193  52.612  1.00  0.00     0.035 A 
HETATM   22  C3  UNL     1      18.562  -1.226  53.447  1.00  0.00     0.032 A 
HETATM   23  C2  UNL     1      17.379  -1.887  53.163  1.00  0.00     0.046 A 
HETATM   24  C1  UNL     1      16.587  -1.558  52.048  1.00  0.00     0.138 A 
HETATM   25  F1  UNL     1      15.489  -2.342  51.980  1.00  0.00    -0.204 F 
HETATM   26  C18 UNL     1      17.064  -0.533  51.252  1.00  0.00     0.074 A 
HETATM   27  C17 UNL     1      18.235   0.126  51.528  1.00  0.00     0.056 A 
HETATM   28 CL1  UNL     1      15.957  -0.262  49.910  1.00  0.00    -0.081 Cl
ENDBRANCH  19  21
ENDBRANCH   1  19
TORSDOF 2
ENDMDL
MODEL 9
REMARK VINA RESULT:      -7.6      6.681      8.502
REMARK  2 active torsions:
REMARK  status: ('A' for Active; 'I' for Inactive)
REMARK    1  A    between atoms: C4_5  and  N1_6 
REMARK    2  A    between atoms: N1_6  and  C5_7 
ROOT
HETATM    1  C5  UNL     1      28.479   6.047  48.261  1.00  0.00     0.144 A 
HETATM    2  N2  UNL     1      28.259   4.718  48.498  1.00  0.00    -0.223 NA
HETATM    3  C6  UNL     1      27.076   4.383  49.076  1.00  0.00     0.235 A 
HETATM    4  N3  UNL     1      26.210   5.365  49.376  1.00  0.00    -0.243 NA
HETATM    5  C7  UNL     1      26.442   6.660  49.135  1.00  0.00     0.076 A 
HETATM    6  C8  UNL     1      27.612   7.087  48.550  1.00  0.00     0.073 A 
HETATM    7  C9  UNL     1      28.198   8.320  48.109  1.00  0.00     0.114 C 
HETATM    8  C10 UNL     1      27.949   9.079  47.086  1.00  0.00     0.082 C 
HETATM    9  C11 UNL     1      26.926   8.875  46.009  1.00  0.00     0.094 C 
HETATM   10  C12 UNL     1      25.601   9.507  46.381  1.00  0.00     0.177 C 
HETATM   11  O1  UNL     1      25.060   8.945  47.530  1.00  0.00    -0.367 OA
HETATM   12  C13 UNL     1      24.781   7.606  47.392  1.00  0.00     0.338 C 
HETATM   13  O2  UNL     1      24.264   7.219  48.662  1.00  0.00    -0.361 OA
HETATM   14  C14 UNL     1      25.279   7.477  49.609  1.00  0.00     0.230 C 
HETATM   15  O3  UNL     1      28.693  10.236  46.902  1.00  0.00    -0.350 OA
HETATM   16  C15 UNL     1      29.941  10.453  47.513  1.00  0.00     0.202 C 
HETATM   17  C16 UNL     1      29.997   9.850  48.877  1.00  0.00     0.202 C 
HETATM   18  O4  UNL     1      29.190   8.681  48.987  1.00  0.00    -0.345 OA
ENDROOT
BRANCH   1  19
HETATM   19  N1  UNL     1      29.747   6.313  47.687  1.00  0.00    -0.340 N 
HETATM   20  H3  UNL     1      29.901   6.999  46.916  1.00  0.00     0.167 HD
BRANCH  19  21
HETATM   21  C4  UNL     1      31.042   5.816  47.939  1.00  0.00     0.035 A 
HETATM   22  C3  UNL     1      32.026   6.467  48.693  1.00  0.00     0.032 A 
HETATM   23  C2  UNL     1      33.281   5.898  48.837  1.00  0.00     0.046 A 
HETATM   24  C1  UNL     1      33.615   4.665  48.246  1.00  0.00     0.138 A 
HETATM   25  F1  UNL     1      34.891   4.320  48.524  1.00  0.00    -0.204 F 
HETATM   26  C18 UNL     1      32.613   4.057  47.513  1.00  0.00     0.074 A 
HETATM   27  C17 UNL     1      31.368   4.617  47.367  1.00  0.00     0.056 A 
HETATM   28 CL1  UNL     1      33.204   2.539  46.847  1.00  0.00    -0.081 Cl
ENDBRANCH  19  21
ENDBRANCH   1  19
TORSDOF 2
ENDMDL
