MODEL 1
REMARK VINA RESULT:      -8.3      0.000      0.000
REMARK  6 active torsions:
REMARK  status: ('A' for Active; 'I' for Inactive)
REMARK    1  A    between atoms: C1_2  and  C2_3 
REMARK    2  A    between atoms: C2_3  and  C3_4 
REMARK    3  A    between atoms: C3_4  and  O2_5 
REMARK    4  A    between atoms: O2_5  and  C4_6 
REMARK    5  A    between atoms: C6_8  and  O3_9 
REMARK    6  A    between atoms: C10_14  and  C11_15 
ROOT
HETATM    1  C4  UNL     1      26.371   0.609  53.610  1.00  0.00     0.074 A 
HETATM    2  C5  UNL     1      26.284  -0.202  54.725  1.00  0.00     0.074 A 
HETATM    3  C6  UNL     1      25.080  -0.808  55.092  1.00  0.00     0.085 A 
HETATM    4  C7  UNL     1      23.964  -0.577  54.307  1.00  0.00     0.081 A 
HETATM    5  C8  UNL     1      22.737  -1.130  54.590  1.00  0.00     0.190 A 
HETATM    6  O4  UNL     1      22.597  -1.874  55.591  1.00  0.00    -0.287 OA
HETATM    7  C9  UNL     1      21.696  -0.826  53.732  1.00  0.00     0.094 A 
HETATM    8  C10 UNL     1      21.843  -0.008  52.632  1.00  0.00     0.090 A 
HETATM    9  O5  UNL     1      23.023   0.506  52.385  1.00  0.00    -0.309 OA
HETATM   10  C17 UNL     1      24.045   0.231  53.193  1.00  0.00     0.095 A 
HETATM   11  C18 UNL     1      25.251   0.833  52.833  1.00  0.00     0.075 A 
ENDROOT
BRANCH   8  12
HETATM   12  C11 UNL     1      20.762   0.326  51.715  1.00  0.00    -0.002 A 
HETATM   13  C12 UNL     1      19.475   0.026  52.098  1.00  0.00     0.014 A 
HETATM   14  C13 UNL     1      18.407   0.328  51.250  1.00  0.00     0.001 A 
HETATM   15  C14 UNL     1      18.593   0.926  50.025  1.00  0.00     0.000 A 
HETATM   16  C15 UNL     1      19.892   1.228  49.642  1.00  0.00     0.001 A 
HETATM   17  C16 UNL     1      20.936   0.925  50.486  1.00  0.00     0.014 A 
ENDBRANCH   8  12
BRANCH   3  18
HETATM   18  O3  UNL     1      24.962  -1.630  56.211  1.00  0.00    -0.360 OA
HETATM   19  H7  UNL     1      24.023  -1.882  56.521  1.00  0.00     0.217 HD
ENDBRANCH   3  18
BRANCH   1  20
HETATM   20  O2  UNL     1      27.642   1.158  53.350  1.00  0.00    -0.351 OA
BRANCH  20  21
HETATM   21  C3  UNL     1      28.720   0.831  54.195  1.00  0.00     0.182 C 
BRANCH  21  22
HETATM   22  C2  UNL     1      29.768   0.046  53.436  1.00  0.00     0.096 C 
BRANCH  22  23
HETATM   23  C1  UNL     1      29.785  -1.388  53.839  1.00  0.00     0.233 C 
HETATM   24  O1  UNL     1      28.878  -2.048  53.321  1.00  0.00    -0.307 OA
ENDBRANCH  22  23
ENDBRANCH  21  22
ENDBRANCH  20  21
ENDBRANCH   1  20
TORSDOF 6
ENDMDL
MODEL 2
REMARK VINA RESULT:      -8.3      1.582      2.187
REMARK  6 active torsions:
REMARK  status: ('A' for Active; 'I' for Inactive)
REMARK    1  A    between atoms: C1_2  and  C2_3 
REMARK    2  A    between atoms: C2_3  and  C3_4 
REMARK    3  A    between atoms: C3_4  and  O2_5 
REMARK    4  A    between atoms: O2_5  and  C4_6 
REMARK    5  A    between atoms: C6_8  and  O3_9 
REMARK    6  A    between atoms: C10_14  and  C11_15 
ROOT
HETATM    1  C4  UNL     1      26.172  -0.240  54.675  1.00  0.00     0.074 A 
HETATM    2  C5  UNL     1      25.284  -0.970  55.441  1.00  0.00     0.074 A 
HETATM    3  C6  UNL     1      23.942  -1.099  55.076  1.00  0.00     0.085 A 
HETATM    4  C7  UNL     1      23.515  -0.474  53.918  1.00  0.00     0.081 A 
HETATM    5  C8  UNL     1      22.214  -0.544  53.479  1.00  0.00     0.190 A 
HETATM    6  O4  UNL     1      21.362  -1.193  54.134  1.00  0.00    -0.287 OA
HETATM    7  C9  UNL     1      21.907   0.122  52.307  1.00  0.00     0.094 A 
HETATM    8  C10 UNL     1      22.838   0.837  51.582  1.00  0.00     0.090 A 
HETATM    9  O5  UNL     1      24.071   0.888  52.023  1.00  0.00    -0.309 OA
HETATM   10  C17 UNL     1      24.396   0.256  53.149  1.00  0.00     0.095 A 
HETATM   11  C18 UNL     1      25.736   0.380  53.521  1.00  0.00     0.075 A 
ENDROOT
BRANCH   8  12
HETATM   12  C11 UNL     1      22.538   1.546  50.346  1.00  0.00    -0.002 A 
HETATM   13  C12 UNL     1      21.510   1.073  49.563  1.00  0.00     0.014 A 
HETATM   14  C13 UNL     1      21.188   1.722  48.369  1.00  0.00     0.001 A 
HETATM   15  C14 UNL     1      21.869   2.836  47.936  1.00  0.00     0.000 A 
HETATM   16  C15 UNL     1      22.905   3.311  48.728  1.00  0.00     0.001 A 
HETATM   17  C16 UNL     1      23.213   2.663  49.902  1.00  0.00     0.014 A 
ENDBRANCH   8  12
BRANCH   3  18
HETATM   18  O3  UNL     1      23.024  -1.828  55.829  1.00  0.00    -0.360 OA
HETATM   19  H7  UNL     1      23.370  -2.326  56.651  1.00  0.00     0.217 HD
ENDBRANCH   3  18
BRANCH   1  20
HETATM   20  O2  UNL     1      27.496  -0.188  55.154  1.00  0.00    -0.351 OA
BRANCH  20  21
HETATM   21  C3  UNL     1      28.501   0.376  54.344  1.00  0.00     0.182 C 
BRANCH  21  22
HETATM   22  C2  UNL     1      29.520  -0.674  53.958  1.00  0.00     0.096 C 
BRANCH  22  23
HETATM   23  C1  UNL     1      28.920  -1.744  53.113  1.00  0.00     0.233 C 
HETATM   24  O1  UNL     1      29.114  -2.880  53.560  1.00  0.00    -0.307 OA
ENDBRANCH  22  23
ENDBRANCH  21  22
ENDBRANCH  20  21
ENDBRANCH   1  20
TORSDOF 6
ENDMDL
MODEL 3
REMARK VINA RESULT:      -8.2      1.634      3.251
REMARK  6 active torsions:
REMARK  status: ('A' for Active; 'I' for Inactive)
REMARK    1  A    between atoms: C1_2  and  C2_3 
REMARK    2  A    between atoms: C2_3  and  C3_4 
REMARK    3  A    between atoms: C3_4  and  O2_5 
REMARK    4  A    between atoms: O2_5  and  C4_6 
REMARK    5  A    between atoms: C6_8  and  O3_9 
REMARK    6  A    between atoms: C10_14  and  C11_15 
ROOT
HETATM    1  C4  UNL     1      26.918   0.380  53.655  1.00  0.00     0.074 A 
HETATM    2  C5  UNL     1      27.411   1.392  52.854  1.00  0.00     0.074 A 
HETATM    3  C6  UNL     1      26.579   2.106  51.989  1.00  0.00     0.085 A 
HETATM    4  C7  UNL     1      25.236   1.775  51.949  1.00  0.00     0.081 A 
HETATM    5  C8  UNL     1      24.341   2.421  51.129  1.00  0.00     0.190 A 
HETATM    6  O4  UNL     1      24.731   3.349  50.379  1.00  0.00    -0.287 OA
HETATM    7  C9  UNL     1      23.025   2.001  51.178  1.00  0.00     0.094 A 
HETATM    8  C10 UNL     1      22.590   0.983  51.999  1.00  0.00     0.090 A 
HETATM    9  O5  UNL     1      23.463   0.383  52.771  1.00  0.00    -0.309 OA
HETATM   10  C17 UNL     1      24.738   0.765  52.746  1.00  0.00     0.095 A 
HETATM   11  C18 UNL     1      25.576   0.057  53.608  1.00  0.00     0.075 A 
ENDROOT
BRANCH   8  12
HETATM   12  C11 UNL     1      21.210   0.524  52.067  1.00  0.00    -0.002 A 
HETATM   13  C12 UNL     1      20.392   0.775  50.989  1.00  0.00     0.014 A 
HETATM   14  C13 UNL     1      19.060   0.353  51.011  1.00  0.00     0.001 A 
HETATM   15  C14 UNL     1      18.524  -0.317  52.086  1.00  0.00     0.000 A 
HETATM   16  C15 UNL     1      19.351  -0.568  53.171  1.00  0.00     0.001 A 
HETATM   17  C16 UNL     1      20.660  -0.147  53.139  1.00  0.00     0.014 A 
ENDBRANCH   8  12
BRANCH   3  18
HETATM   18  O3  UNL     1      27.048   3.131  51.170  1.00  0.00    -0.360 OA
HETATM   19  H7  UNL     1      28.037   3.373  51.229  1.00  0.00     0.217 HD
ENDBRANCH   3  18
BRANCH   1  20
HETATM   20  O2  UNL     1      27.861  -0.261  54.482  1.00  0.00    -0.351 OA
BRANCH  20  21
HETATM   21  C3  UNL     1      29.232   0.013  54.305  1.00  0.00     0.182 C 
BRANCH  21  22
HETATM   22  C2  UNL     1      29.951  -1.210  53.778  1.00  0.00     0.096 C 
BRANCH  22  23
HETATM   23  C1  UNL     1      29.023  -2.139  53.076  1.00  0.00     0.233 C 
HETATM   24  O1  UNL     1      28.974  -3.260  53.595  1.00  0.00    -0.307 OA
ENDBRANCH  22  23
ENDBRANCH  21  22
ENDBRANCH  20  21
ENDBRANCH   1  20
TORSDOF 6
ENDMDL
MODEL 4
REMARK VINA RESULT:      -8.1      4.439      6.377
REMARK  6 active torsions:
REMARK  status: ('A' for Active; 'I' for Inactive)
REMARK    1  A    between atoms: C1_2  and  C2_3 
REMARK    2  A    between atoms: C2_3  and  C3_4 
REMARK    3  A    between atoms: C3_4  and  O2_5 
REMARK    4  A    between atoms: O2_5  and  C4_6 
REMARK    5  A    between atoms: C6_8  and  O3_9 
REMARK    6  A    between atoms: C10_14  and  C11_15 
ROOT
HETATM    1  C4  UNL     1      26.678   0.827  52.879  1.00  0.00     0.074 A 
HETATM    2  C5  UNL     1      25.332   0.526  52.796  1.00  0.00     0.074 A 
HETATM    3  C6  UNL     1      24.483   1.218  51.930  1.00  0.00     0.085 A 
HETATM    4  C7  UNL     1      25.022   2.223  51.147  1.00  0.00     0.081 A 
HETATM    5  C8  UNL     1      24.264   2.958  50.266  1.00  0.00     0.190 A 
HETATM    6  O4  UNL     1      23.035   2.730  50.149  1.00  0.00    -0.287 OA
HETATM    7  C9  UNL     1      24.916   3.936  49.538  1.00  0.00     0.094 A 
HETATM    8  C10 UNL     1      26.265   4.193  49.662  1.00  0.00     0.090 A 
HETATM    9  O5  UNL     1      26.965   3.478  50.509  1.00  0.00    -0.309 OA
HETATM   10  C17 UNL     1      26.365   2.528  51.224  1.00  0.00     0.095 A 
HETATM   11  C18 UNL     1      27.207   1.832  52.092  1.00  0.00     0.075 A 
ENDROOT
BRANCH   8  12
HETATM   12  C11 UNL     1      26.973   5.216  48.906  1.00  0.00    -0.002 A 
HETATM   13  C12 UNL     1      26.279   6.348  48.545  1.00  0.00     0.014 A 
HETATM   14  C13 UNL     1      26.917   7.356  47.819  1.00  0.00     0.001 A 
HETATM   15  C14 UNL     1      28.238   7.262  47.444  1.00  0.00     0.000 A 
HETATM   16  C15 UNL     1      28.936   6.120  47.810  1.00  0.00     0.001 A 
HETATM   17  C16 UNL     1      28.295   5.133  48.525  1.00  0.00     0.014 A 
ENDBRANCH   8  12
BRANCH   3  18
HETATM   18  O3  UNL     1      23.121   0.936  51.827  1.00  0.00    -0.360 OA
HETATM   19  H7  UNL     1      22.465   1.710  51.936  1.00  0.00     0.217 HD
ENDBRANCH   3  18
BRANCH   1  20
HETATM   20  O2  UNL     1      27.424   0.055  53.791  1.00  0.00    -0.351 OA
BRANCH  20  21
HETATM   21  C3  UNL     1      28.801   0.308  53.943  1.00  0.00     0.182 C 
BRANCH  21  22
HETATM   22  C2  UNL     1      29.586  -0.984  53.876  1.00  0.00     0.096 C 
BRANCH  22  23
HETATM   23  C1  UNL     1      28.889  -2.014  53.056  1.00  0.00     0.233 C 
HETATM   24  O1  UNL     1      28.938  -3.144  53.555  1.00  0.00    -0.307 OA
ENDBRANCH  22  23
ENDBRANCH  21  22
ENDBRANCH  20  21
ENDBRANCH   1  20
TORSDOF 6
ENDMDL
MODEL 5
REMARK VINA RESULT:      -7.9      4.622      6.693
REMARK  6 active torsions:
REMARK  status: ('A' for Active; 'I' for Inactive)
REMARK    1  A    between atoms: C1_2  and  C2_3 
REMARK    2  A    between atoms: C2_3  and  C3_4 
REMARK    3  A    between atoms: C3_4  and  O2_5 
REMARK    4  A    between atoms: O2_5  and  C4_6 
REMARK    5  A    between atoms: C6_8  and  O3_9 
REMARK    6  A    between atoms: C10_14  and  C11_15 
ROOT
HETATM    1  C4  UNL     1      25.973   0.855  52.510  1.00  0.00     0.074 A 
HETATM    2  C5  UNL     1      24.600   0.743  52.411  1.00  0.00     0.074 A 
HETATM    3  C6  UNL     1      23.857   1.591  51.587  1.00  0.00     0.085 A 
HETATM    4  C7  UNL     1      24.532   2.557  50.863  1.00  0.00     0.081 A 
HETATM    5  C8  UNL     1      23.886   3.437  50.027  1.00  0.00     0.190 A 
HETATM    6  O4  UNL     1      22.639   3.383  49.897  1.00  0.00    -0.287 OA
HETATM    7  C9  UNL     1      24.669   4.359  49.356  1.00  0.00     0.094 A 
HETATM    8  C10 UNL     1      26.039   4.424  49.494  1.00  0.00     0.090 A 
HETATM    9  O5  UNL     1      26.630   3.574  50.297  1.00  0.00    -0.309 OA
HETATM   10  C17 UNL     1      25.903   2.675  50.957  1.00  0.00     0.095 A 
HETATM   11  C18 UNL     1      26.637   1.823  51.783  1.00  0.00     0.075 A 
ENDROOT
BRANCH   8  12
HETATM   12  C11 UNL     1      26.883   5.385  48.798  1.00  0.00    -0.002 A 
HETATM   13  C12 UNL     1      28.200   5.049  48.580  1.00  0.00     0.014 A 
HETATM   14  C13 UNL     1      29.047   5.941  47.917  1.00  0.00     0.001 A 
HETATM   15  C14 UNL     1      28.609   7.163  47.463  1.00  0.00     0.000 A 
HETATM   16  C15 UNL     1      27.280   7.499  47.683  1.00  0.00     0.001 A 
HETATM   17  C16 UNL     1      26.456   6.613  48.339  1.00  0.00     0.014 A 
ENDBRANCH   8  12
BRANCH   3  18
HETATM   18  O3  UNL     1      22.471   1.501  51.468  1.00  0.00    -0.360 OA
HETATM   19  H7  UNL     1      21.930   2.363  51.536  1.00  0.00     0.217 HD
ENDBRANCH   3  18
BRANCH   1  20
HETATM   20  O2  UNL     1      26.602  -0.061  53.376  1.00  0.00    -0.351 OA
BRANCH  20  21
HETATM   21  C3  UNL     1      26.994   0.362  54.661  1.00  0.00     0.182 C 
BRANCH  21  22
HETATM   22  C2  UNL     1      28.473   0.116  54.869  1.00  0.00     0.096 C 
BRANCH  22  23
HETATM   23  C1  UNL     1      29.307   1.162  54.215  1.00  0.00     0.233 C 
HETATM   24  O1  UNL     1      29.180   2.277  54.733  1.00  0.00    -0.307 OA
ENDBRANCH  22  23
ENDBRANCH  21  22
ENDBRANCH  20  21
ENDBRANCH   1  20
TORSDOF 6
ENDMDL
MODEL 6
REMARK VINA RESULT:      -7.9      1.823      3.192
REMARK  6 active torsions:
REMARK  status: ('A' for Active; 'I' for Inactive)
REMARK    1  A    between atoms: C1_2  and  C2_3 
REMARK    2  A    between atoms: C2_3  and  C3_4 
REMARK    3  A    between atoms: C3_4  and  O2_5 
REMARK    4  A    between atoms: O2_5  and  C4_6 
REMARK    5  A    between atoms: C6_8  and  O3_9 
REMARK    6  A    between atoms: C10_14  and  C11_15 
ROOT
HETATM    1  C4  UNL     1      25.472  -0.086  53.529  1.00  0.00     0.074 A 
HETATM    2  C5  UNL     1      25.753   1.236  53.243  1.00  0.00     0.074 A 
HETATM    3  C6  UNL     1      24.749   2.126  52.855  1.00  0.00     0.085 A 
HETATM    4  C7  UNL     1      23.453   1.653  52.763  1.00  0.00     0.081 A 
HETATM    5  C8  UNL     1      22.400   2.455  52.389  1.00  0.00     0.190 A 
HETATM    6  O4  UNL     1      22.595   3.664  52.116  1.00  0.00    -0.287 OA
HETATM    7  C9  UNL     1      21.150   1.867  52.333  1.00  0.00     0.094 A 
HETATM    8  C10 UNL     1      20.928   0.539  52.630  1.00  0.00     0.090 A 
HETATM    9  O5  UNL     1      21.949  -0.203  52.984  1.00  0.00    -0.309 OA
HETATM   10  C17 UNL     1      23.165   0.335  53.047  1.00  0.00     0.095 A 
HETATM   11  C18 UNL     1      24.174  -0.549  53.434  1.00  0.00     0.075 A 
ENDROOT
BRANCH   8  12
HETATM   12  C11 UNL     1      19.621  -0.100  52.578  1.00  0.00    -0.002 A 
HETATM   13  C12 UNL     1      18.774   0.244  51.550  1.00  0.00     0.014 A 
HETATM   14  C13 UNL     1      17.511  -0.344  51.460  1.00  0.00     0.001 A 
HETATM   15  C14 UNL     1      17.071  -1.273  52.375  1.00  0.00     0.000 A 
HETATM   16  C15 UNL     1      17.927  -1.619  53.411  1.00  0.00     0.001 A 
HETATM   17  C16 UNL     1      19.169  -1.032  53.489  1.00  0.00     0.014 A 
ENDBRANCH   8  12
BRANCH   3  18
HETATM   18  O3  UNL     1      25.004   3.465  52.560  1.00  0.00    -0.360 OA
HETATM   19  H7  UNL     1      25.276   4.079  53.329  1.00  0.00     0.217 HD
ENDBRANCH   3  18
BRANCH   1  20
HETATM   20  O2  UNL     1      26.573  -0.879  53.908  1.00  0.00    -0.351 OA
BRANCH  20  21
HETATM   21  C3  UNL     1      27.711  -0.918  53.080  1.00  0.00     0.182 C 
BRANCH  21  22
HETATM   22  C2  UNL     1      28.966  -0.686  53.895  1.00  0.00     0.096 C 
BRANCH  22  23
HETATM   23  C1  UNL     1      29.316   0.760  53.974  1.00  0.00     0.233 C 
HETATM   24  O1  UNL     1      28.912   1.301  55.009  1.00  0.00    -0.307 OA
ENDBRANCH  22  23
ENDBRANCH  21  22
ENDBRANCH  20  21
ENDBRANCH   1  20
TORSDOF 6
ENDMDL
MODEL 7
REMARK VINA RESULT:      -7.8      2.775      4.043
REMARK  6 active torsions:
REMARK  status: ('A' for Active; 'I' for Inactive)
REMARK    1  A    between atoms: C1_2  and  C2_3 
REMARK    2  A    between atoms: C2_3  and  C3_4 
REMARK    3  A    between atoms: C3_4  and  O2_5 
REMARK    4  A    between atoms: O2_5  and  C4_6 
REMARK    5  A    between atoms: C6_8  and  O3_9 
REMARK    6  A    between atoms: C10_14  and  C11_15 
ROOT
HETATM    1  C4  UNL     1      26.403   2.167  51.585  1.00  0.00     0.074 A 
HETATM    2  C5  UNL     1      27.167   1.534  52.546  1.00  0.00     0.074 A 
HETATM    3  C6  UNL     1      26.602   0.626  53.445  1.00  0.00     0.085 A 
HETATM    4  C7  UNL     1      25.246   0.370  53.351  1.00  0.00     0.081 A 
HETATM    5  C8  UNL     1      24.602  -0.507  54.191  1.00  0.00     0.190 A 
HETATM    6  O4  UNL     1      25.244  -1.111  55.085  1.00  0.00    -0.287 OA
HETATM    7  C9  UNL     1      23.243  -0.681  53.999  1.00  0.00     0.094 A 
HETATM    8  C10 UNL     1      22.531  -0.021  53.021  1.00  0.00     0.090 A 
HETATM    9  O5  UNL     1      23.169   0.810  52.233  1.00  0.00    -0.309 OA
HETATM   10  C17 UNL     1      24.477   0.998  52.393  1.00  0.00     0.095 A 
HETATM   11  C18 UNL     1      25.050   1.904  51.500  1.00  0.00     0.075 A 
ENDROOT
BRANCH   8  12
HETATM   12  C11 UNL     1      21.101  -0.188  52.801  1.00  0.00    -0.002 A 
HETATM   13  C12 UNL     1      20.550   0.384  51.677  1.00  0.00     0.014 A 
HETATM   14  C13 UNL     1      19.183   0.250  51.426  1.00  0.00     0.001 A 
HETATM   15  C14 UNL     1      18.349  -0.445  52.271  1.00  0.00     0.000 A 
HETATM   16  C15 UNL     1      18.908  -1.021  53.403  1.00  0.00     0.001 A 
HETATM   17  C16 UNL     1      20.256  -0.882  53.641  1.00  0.00     0.014 A 
ENDBRANCH   8  12
BRANCH   3  18
HETATM   18  O3  UNL     1      27.348  -0.026  54.425  1.00  0.00    -0.360 OA
HETATM   19  H7  UNL     1      27.624   0.509  55.249  1.00  0.00     0.217 HD
ENDBRANCH   3  18
BRANCH   1  20
HETATM   20  O2  UNL     1      27.095   3.059  50.742  1.00  0.00    -0.351 OA
BRANCH  20  21
HETATM   21  C3  UNL     1      26.528   3.416  49.503  1.00  0.00     0.182 C 
BRANCH  21  22
HETATM   22  C2  UNL     1      27.226   4.633  48.934  1.00  0.00     0.096 C 
BRANCH  22  23
HETATM   23  C1  UNL     1      26.411   5.868  49.101  1.00  0.00     0.233 C 
HETATM   24  O1  UNL     1      25.284   5.777  48.601  1.00  0.00    -0.307 OA
ENDBRANCH  22  23
ENDBRANCH  21  22
ENDBRANCH  20  21
ENDBRANCH   1  20
TORSDOF 6
ENDMDL
MODEL 8
REMARK VINA RESULT:      -7.8      2.149      6.893
REMARK  6 active torsions:
REMARK  status: ('A' for Active; 'I' for Inactive)
REMARK    1  A    between atoms: C1_2  and  C2_3 
REMARK    2  A    between atoms: C2_3  and  C3_4 
REMARK    3  A    between atoms: C3_4  and  O2_5 
REMARK    4  A    between atoms: O2_5  and  C4_6 
REMARK    5  A    between atoms: C6_8  and  O3_9 
REMARK    6  A    between atoms: C10_14  and  C11_15 
ROOT
HETATM    1  C4  UNL     1      21.438   1.457  51.491  1.00  0.00     0.074 A 
HETATM    2  C5  UNL     1      20.544   0.828  52.335  1.00  0.00     0.074 A 
HETATM    3  C6  UNL     1      20.981   0.012  53.381  1.00  0.00     0.085 A 
HETATM    4  C7  UNL     1      22.343  -0.154  53.558  1.00  0.00     0.081 A 
HETATM    5  C8  UNL     1      22.866  -0.938  54.560  1.00  0.00     0.190 A 
HETATM    6  O4  UNL     1      22.102  -1.535  55.357  1.00  0.00    -0.287 OA
HETATM    7  C9  UNL     1      24.244  -1.026  54.636  1.00  0.00     0.094 A 
HETATM    8  C10 UNL     1      25.089  -0.374  53.763  1.00  0.00     0.090 A 
HETATM    9  O5  UNL     1      24.565   0.366  52.817  1.00  0.00    -0.309 OA
HETATM   10  C17 UNL     1      23.241   0.471  52.719  1.00  0.00     0.095 A 
HETATM   11  C18 UNL     1      22.796   1.284  51.676  1.00  0.00     0.075 A 
ENDROOT
BRANCH   8  12
HETATM   12  C11 UNL     1      26.542  -0.453  53.824  1.00  0.00    -0.002 A 
HETATM   13  C12 UNL     1      27.191   0.309  54.767  1.00  0.00     0.014 A 
HETATM   14  C13 UNL     1      28.584   0.266  54.861  1.00  0.00     0.001 A 
HETATM   15  C14 UNL     1      29.347  -0.525  54.034  1.00  0.00     0.000 A 
HETATM   16  C15 UNL     1      28.690  -1.293  53.083  1.00  0.00     0.001 A 
HETATM   17  C16 UNL     1      27.317  -1.241  53.000  1.00  0.00     0.014 A 
ENDBRANCH   8  12
BRANCH   3  18
HETATM   18  O3  UNL     1      20.101  -0.635  54.248  1.00  0.00    -0.360 OA
HETATM   19  H7  UNL     1      20.291  -1.611  54.478  1.00  0.00     0.217 HD
ENDBRANCH   3  18
BRANCH   1  20
HETATM   20  O2  UNL     1      20.868   2.251  50.476  1.00  0.00    -0.351 OA
BRANCH  20  21
HETATM   21  C3  UNL     1      21.481   3.471  50.129  1.00  0.00     0.182 C 
BRANCH  21  22
HETATM   22  C2  UNL     1      20.875   4.610  50.921  1.00  0.00     0.096 C 
BRANCH  22  23
HETATM   23  C1  UNL     1      21.916   5.409  51.626  1.00  0.00     0.233 C 
HETATM   24  O1  UNL     1      22.555   4.751  52.454  1.00  0.00    -0.307 OA
ENDBRANCH  22  23
ENDBRANCH  21  22
ENDBRANCH  20  21
ENDBRANCH   1  20
TORSDOF 6
ENDMDL
MODEL 9
REMARK VINA RESULT:      -7.6      2.418      7.875
REMARK  6 active torsions:
REMARK  status: ('A' for Active; 'I' for Inactive)
REMARK    1  A    between atoms: C1_2  and  C2_3 
REMARK    2  A    between atoms: C2_3  and  C3_4 
REMARK    3  A    between atoms: C3_4  and  O2_5 
REMARK    4  A    between atoms: O2_5  and  C4_6 
REMARK    5  A    between atoms: C6_8  and  O3_9 
REMARK    6  A    between atoms: C10_14  and  C11_15 
ROOT
HETATM    1  C4  UNL     1      21.280   0.186  53.387  1.00  0.00     0.074 A 
HETATM    2  C5  UNL     1      21.158   1.386  52.715  1.00  0.00     0.074 A 
HETATM    3  C6  UNL     1      22.270   2.031  52.169  1.00  0.00     0.085 A 
HETATM    4  C7  UNL     1      23.510   1.436  52.315  1.00  0.00     0.081 A 
HETATM    5  C8  UNL     1      24.660   1.997  51.811  1.00  0.00     0.190 A 
HETATM    6  O4  UNL     1      24.611   3.087  51.192  1.00  0.00    -0.287 OA
HETATM    7  C9  UNL     1      25.841   1.308  52.020  1.00  0.00     0.094 A 
HETATM    8  C10 UNL     1      25.902   0.110  52.700  1.00  0.00     0.090 A 
HETATM    9  O5  UNL     1      24.792  -0.403  53.171  1.00  0.00    -0.309 OA
HETATM   10  C17 UNL     1      23.639   0.238  52.984  1.00  0.00     0.095 A 
HETATM   11  C18 UNL     1      22.523  -0.400  53.528  1.00  0.00     0.075 A 
ENDROOT
BRANCH   8  12
HETATM   12  C11 UNL     1      27.133  -0.633  52.933  1.00  0.00    -0.002 A 
HETATM   13  C12 UNL     1      27.151  -1.970  52.611  1.00  0.00     0.014 A 
HETATM   14  C13 UNL     1      28.309  -2.722  52.817  1.00  0.00     0.001 A 
HETATM   15  C14 UNL     1      29.456  -2.169  53.339  1.00  0.00     0.000 A 
HETATM   16  C15 UNL     1      29.436  -0.820  53.663  1.00  0.00     0.001 A 
HETATM   17  C16 UNL     1      28.288  -0.090  53.455  1.00  0.00     0.014 A 
ENDBRANCH   8  12
BRANCH   3  18
HETATM   18  O3  UNL     1      22.176   3.243  51.486  1.00  0.00    -0.360 OA
HETATM   19  H7  UNL     1      22.924   3.482  50.834  1.00  0.00     0.217 HD
ENDBRANCH   3  18
BRANCH   1  20
HETATM   20  O2  UNL     1      20.083  -0.359  53.890  1.00  0.00    -0.351 OA
BRANCH  20  21
HETATM   21  C3  UNL     1      18.965  -0.471  53.040  1.00  0.00     0.182 C 
BRANCH  21  22
HETATM   22  C2  UNL     1      18.183  -1.727  53.357  1.00  0.00     0.096 C 
BRANCH  22  23
HETATM   23  C1  UNL     1      16.762  -1.620  52.922  1.00  0.00     0.233 C 
HETATM   24  O1  UNL     1      16.302  -0.480  53.047  1.00  0.00    -0.307 OA
ENDBRANCH  22  23
ENDBRANCH  21  22
ENDBRANCH  20  21
ENDBRANCH   1  20
TORSDOF 6
ENDMDL
