MODEL 1
REMARK VINA RESULT:      -8.0      0.000      0.000
REMARK  2 active torsions:
REMARK  status: ('A' for Active; 'I' for Inactive)
REMARK       I    between atoms: C6_8  and  N3_9 
REMARK    1  A    between atoms: N3_9  and  C7_10 
REMARK    2  A    between atoms: C11_14  and  N4_15 
ROOT
HETATM    1  C1  UNL     1      27.942  -2.477  52.686  1.00  0.00     0.014 C 
HETATM    2  C2  UNL     1      29.105  -2.577  53.441  1.00  0.00     0.113 C 
HETATM    3  N1  UNL     1      28.858  -1.239  53.882  1.00  0.00    -0.277 NA
HETATM    4  C3  UNL     1      29.449  -0.194  53.383  1.00  0.00     0.094 C 
HETATM    5  C4  UNL     1      29.037   1.094  53.982  1.00  0.00     0.094 C 
HETATM    6  C5  UNL     1      27.587   1.200  54.278  1.00  0.00     0.114 C 
HETATM    7  N2  UNL     1      27.011   0.535  53.369  1.00  0.00    -0.079 NA
HETATM    8  C6  UNL     1      25.648   0.262  53.121  1.00  0.00     0.722 C 
HETATM    9  N3  UNL     1      24.382   0.857  53.247  1.00  0.00    -0.188 N 
HETATM   10  N6  UNL     1      25.747  -0.991  52.615  1.00  0.00    -0.102 NA
HETATM   11  C16 UNL     1      27.043  -1.411  52.566  1.00  0.00     0.197 C 
HETATM   12  H7  UNL     1      24.522   1.843  52.986  1.00  0.00     0.184 HD
ENDROOT
BRANCH   9  13
HETATM   13  C7  UNL     1      23.314   0.065  53.667  1.00  0.00     0.051 A 
HETATM   14  C8  UNL     1      23.254  -0.859  54.661  1.00  0.00     0.030 A 
HETATM   15  C9  UNL     1      22.079  -1.535  54.890  1.00  0.00     0.004 A 
HETATM   16  C10 UNL     1      20.911  -1.337  54.159  1.00  0.00     0.030 A 
HETATM   17  C11 UNL     1      20.988  -0.387  53.146  1.00  0.00     0.042 A 
HETATM   18  C15 UNL     1      22.182   0.285  52.930  1.00  0.00     0.060 A 
BRANCH  17  19
HETATM   19  N4  UNL     1      19.787  -0.196  52.409  1.00  0.00    -0.315 N 
HETATM   20  C12 UNL     1      19.827   0.504  51.256  1.00  0.00     0.117 A 
HETATM   21  C13 UNL     1      18.518   0.514  50.782  1.00  0.00     0.135 A 
HETATM   22  N5  UNL     1      17.719  -0.160  51.626  1.00  0.00    -0.254 NA
HETATM   23  C14 UNL     1      18.517  -0.590  52.621  1.00  0.00     0.214 A 
ENDBRANCH  17  19
ENDBRANCH   9  13
TORSDOF 2
ENDMDL
MODEL 2
REMARK VINA RESULT:      -7.8      2.665      4.680
REMARK  2 active torsions:
REMARK  status: ('A' for Active; 'I' for Inactive)
REMARK       I    between atoms: C6_8  and  N3_9 
REMARK    1  A    between atoms: N3_9  and  C7_10 
REMARK    2  A    between atoms: C11_14  and  N4_15 
ROOT
HETATM    1  C1  UNL     1      28.716   0.966  54.442  1.00  0.00     0.014 C 
HETATM    2  C2  UNL     1      29.906   0.646  53.799  1.00  0.00     0.113 C 
HETATM    3  N1  UNL     1      29.217  -0.465  53.216  1.00  0.00    -0.277 NA
HETATM    4  C3  UNL     1      29.303  -1.682  53.663  1.00  0.00     0.094 C 
HETATM    5  C4  UNL     1      28.501  -2.674  52.915  1.00  0.00     0.094 C 
HETATM    6  C5  UNL     1      27.163  -2.190  52.493  1.00  0.00     0.114 C 
HETATM    7  N2  UNL     1      26.787  -1.403  53.408  1.00  0.00    -0.079 NA
HETATM    8  C6  UNL     1      25.614  -0.635  53.567  1.00  0.00     0.722 C 
HETATM    9  N3  UNL     1      24.239  -0.681  53.282  1.00  0.00    -0.188 N 
HETATM   10  N6  UNL     1      26.126   0.452  54.193  1.00  0.00    -0.102 NA
HETATM   11  C16 UNL     1      27.470   0.330  54.388  1.00  0.00     0.197 C 
HETATM   12  H7  UNL     1      23.961  -1.657  53.462  1.00  0.00     0.184 HD
ENDROOT
BRANCH   9  13
HETATM   13  C7  UNL     1      23.609   0.485  52.851  1.00  0.00     0.051 A 
HETATM   14  C8  UNL     1      22.369   0.959  53.135  1.00  0.00     0.030 A 
HETATM   15  C9  UNL     1      21.950   2.145  52.576  1.00  0.00     0.004 A 
HETATM   16  C10 UNL     1      22.726   2.919  51.718  1.00  0.00     0.030 A 
HETATM   17  C11 UNL     1      23.994   2.420  51.438  1.00  0.00     0.042 A 
HETATM   18  C15 UNL     1      24.398   1.223  52.010  1.00  0.00     0.060 A 
BRANCH  17  19
HETATM   19  N4  UNL     1      24.775   3.222  50.561  1.00  0.00    -0.315 N 
HETATM   20  C12 UNL     1      26.110   3.031  50.508  1.00  0.00     0.117 A 
HETATM   21  C13 UNL     1      26.580   3.950  49.574  1.00  0.00     0.135 A 
HETATM   22  N5  UNL     1      25.556   4.669  49.083  1.00  0.00    -0.254 NA
HETATM   23  C14 UNL     1      24.454   4.207  49.701  1.00  0.00     0.214 A 
ENDBRANCH  17  19
ENDBRANCH   9  13
TORSDOF 2
ENDMDL
MODEL 3
REMARK VINA RESULT:      -7.6      1.856      2.962
REMARK  2 active torsions:
REMARK  status: ('A' for Active; 'I' for Inactive)
REMARK       I    between atoms: C6_8  and  N3_9 
REMARK    1  A    between atoms: N3_9  and  C7_10 
REMARK    2  A    between atoms: C11_14  and  N4_15 
ROOT
HETATM    1  C1  UNL     1      27.007  -1.809  52.077  1.00  0.00     0.014 C 
HETATM    2  C2  UNL     1      27.693  -2.521  53.055  1.00  0.00     0.113 C 
HETATM    3  N1  UNL     1      28.010  -1.263  53.658  1.00  0.00    -0.277 NA
HETATM    4  C3  UNL     1      29.152  -0.659  53.508  1.00  0.00     0.094 C 
HETATM    5  C4  UNL     1      29.264   0.636  54.213  1.00  0.00     0.094 C 
HETATM    6  C5  UNL     1      28.035   1.467  54.171  1.00  0.00     0.114 C 
HETATM    7  N2  UNL     1      27.506   1.226  53.049  1.00  0.00    -0.079 NA
HETATM    8  C6  UNL     1      26.325   1.706  52.441  1.00  0.00     0.722 C 
HETATM    9  N3  UNL     1      25.536   2.865  52.368  1.00  0.00    -0.188 N 
HETATM   10  N6  UNL     1      25.945   0.599  51.757  1.00  0.00    -0.102 NA
HETATM   11  C16 UNL     1      26.822  -0.428  51.941  1.00  0.00     0.197 C 
HETATM   12  H7  UNL     1      26.208   3.645  52.328  1.00  0.00     0.184 HD
ENDROOT
BRANCH   9  13
HETATM   13  C7  UNL     1      24.149   2.728  52.376  1.00  0.00     0.051 A 
HETATM   14  C8  UNL     1      23.191   3.556  51.886  1.00  0.00     0.030 A 
HETATM   15  C9  UNL     1      21.865   3.215  52.019  1.00  0.00     0.004 A 
HETATM   16  C10 UNL     1      21.418   2.049  52.636  1.00  0.00     0.030 A 
HETATM   17  C11 UNL     1      22.412   1.211  53.130  1.00  0.00     0.042 A 
HETATM   18  C15 UNL     1      23.743   1.572  52.987  1.00  0.00     0.060 A 
BRANCH  17  19
HETATM   19  N4  UNL     1      21.940   0.025  53.756  1.00  0.00    -0.315 N 
HETATM   20  C12 UNL     1      20.688  -0.404  53.493  1.00  0.00     0.117 A 
HETATM   21  C13 UNL     1      20.528  -1.567  54.242  1.00  0.00     0.135 A 
HETATM   22  N5  UNL     1      21.652  -1.826  54.932  1.00  0.00    -0.254 NA
HETATM   23  C14 UNL     1      22.510  -0.837  54.621  1.00  0.00     0.214 A 
ENDBRANCH  17  19
ENDBRANCH   9  13
TORSDOF 2
ENDMDL
MODEL 4
REMARK VINA RESULT:      -7.6      4.072      7.108
REMARK  2 active torsions:
REMARK  status: ('A' for Active; 'I' for Inactive)
REMARK       I    between atoms: C6_8  and  N3_9 
REMARK    1  A    between atoms: N3_9  and  C7_10 
REMARK    2  A    between atoms: C11_14  and  N4_15 
ROOT
HETATM    1  C1  UNL     1      25.931   4.365  48.973  1.00  0.00     0.014 C 
HETATM    2  C2  UNL     1      26.632   5.564  49.016  1.00  0.00     0.113 C 
HETATM    3  N1  UNL     1      25.691   6.004  50.000  1.00  0.00    -0.277 NA
HETATM    4  C3  UNL     1      24.679   6.776  49.736  1.00  0.00     0.094 C 
HETATM    5  C4  UNL     1      23.828   7.100  50.901  1.00  0.00     0.094 C 
HETATM    6  C5  UNL     1      23.604   5.968  51.834  1.00  0.00     0.114 C 
HETATM    7  N2  UNL     1      23.581   4.934  51.106  1.00  0.00    -0.079 NA
HETATM    8  C6  UNL     1      23.412   3.567  51.415  1.00  0.00     0.722 C 
HETATM    9  N3  UNL     1      22.729   2.735  52.317  1.00  0.00    -0.188 N 
HETATM   10  N6  UNL     1      24.220   3.012  50.479  1.00  0.00    -0.102 NA
HETATM   11  C16 UNL     1      24.801   3.962  49.693  1.00  0.00     0.197 C 
HETATM   12  H7  UNL     1      21.798   3.163  52.425  1.00  0.00     0.184 HD
ENDROOT
BRANCH   9  13
HETATM   13  C7  UNL     1      23.394   1.623  52.831  1.00  0.00     0.051 A 
HETATM   14  C8  UNL     1      22.929   0.373  53.089  1.00  0.00     0.030 A 
HETATM   15  C9  UNL     1      23.777  -0.573  53.614  1.00  0.00     0.004 A 
HETATM   16  C10 UNL     1      25.118  -0.340  53.908  1.00  0.00     0.030 A 
HETATM   17  C11 UNL     1      25.579   0.944  53.637  1.00  0.00     0.042 A 
HETATM   18  C15 UNL     1      24.709   1.884  53.109  1.00  0.00     0.060 A 
BRANCH  17  19
HETATM   19  N4  UNL     1      26.950   1.165  53.943  1.00  0.00    -0.315 N 
HETATM   20  C12 UNL     1      27.676   0.160  54.476  1.00  0.00     0.117 A 
HETATM   21  C13 UNL     1      28.955   0.680  54.656  1.00  0.00     0.135 A 
HETATM   22  N5  UNL     1      28.992   1.959  54.243  1.00  0.00    -0.254 NA
HETATM   23  C14 UNL     1      27.751   2.240  53.808  1.00  0.00     0.214 A 
ENDBRANCH  17  19
ENDBRANCH   9  13
TORSDOF 2
ENDMDL
MODEL 5
REMARK VINA RESULT:      -7.4      4.047      8.100
REMARK  2 active torsions:
REMARK  status: ('A' for Active; 'I' for Inactive)
REMARK       I    between atoms: C6_8  and  N3_9 
REMARK    1  A    between atoms: N3_9  and  C7_10 
REMARK    2  A    between atoms: C11_14  and  N4_15 
ROOT
HETATM    1  C1  UNL     1      20.572   4.717  50.395  1.00  0.00     0.014 C 
HETATM    2  C2  UNL     1      20.580   5.448  49.213  1.00  0.00     0.113 C 
HETATM    3  N1  UNL     1      21.826   6.005  49.641  1.00  0.00    -0.277 NA
HETATM    4  C3  UNL     1      21.941   7.177  50.193  1.00  0.00     0.094 C 
HETATM    5  C4  UNL     1      23.322   7.552  50.568  1.00  0.00     0.094 C 
HETATM    6  C5  UNL     1      24.128   6.443  51.135  1.00  0.00     0.114 C 
HETATM    7  N2  UNL     1      23.307   5.725  51.775  1.00  0.00    -0.079 NA
HETATM    8  C6  UNL     1      23.473   4.535  52.516  1.00  0.00     0.722 C 
HETATM    9  N3  UNL     1      24.410   3.893  53.342  1.00  0.00    -0.188 N 
HETATM   10  N6  UNL     1      22.294   3.924  52.248  1.00  0.00    -0.102 NA
HETATM   11  C16 UNL     1      21.509   4.685  51.434  1.00  0.00     0.197 C 
HETATM   12  H7  UNL     1      24.815   4.642  53.921  1.00  0.00     0.184 HD
ENDROOT
BRANCH   9  13
HETATM   13  C7  UNL     1      24.583   2.516  53.207  1.00  0.00     0.051 A 
HETATM   14  C8  UNL     1      23.664   1.543  52.977  1.00  0.00     0.030 A 
HETATM   15  C9  UNL     1      24.070   0.231  52.892  1.00  0.00     0.004 A 
HETATM   16  C10 UNL     1      25.392  -0.185  53.027  1.00  0.00     0.030 A 
HETATM   17  C11 UNL     1      26.320   0.824  53.261  1.00  0.00     0.042 A 
HETATM   18  C15 UNL     1      25.892   2.139  53.343  1.00  0.00     0.060 A 
BRANCH  17  19
HETATM   19  N4  UNL     1      27.665   0.382  53.396  1.00  0.00    -0.315 N 
HETATM   20  C12 UNL     1      27.955  -0.918  53.173  1.00  0.00     0.117 A 
HETATM   21  C13 UNL     1      29.328  -1.032  53.380  1.00  0.00     0.135 A 
HETATM   22  N5  UNL     1      29.842   0.164  53.716  1.00  0.00    -0.254 NA
HETATM   23  C14 UNL     1      28.805   1.021  53.720  1.00  0.00     0.214 A 
ENDBRANCH  17  19
ENDBRANCH   9  13
TORSDOF 2
ENDMDL
MODEL 6
REMARK VINA RESULT:      -7.4      1.637      2.880
REMARK  2 active torsions:
REMARK  status: ('A' for Active; 'I' for Inactive)
REMARK       I    between atoms: C6_8  and  N3_9 
REMARK    1  A    between atoms: N3_9  and  C7_10 
REMARK    2  A    between atoms: C11_14  and  N4_15 
ROOT
HETATM    1  C1  UNL     1      29.002   0.675  54.423  1.00  0.00     0.014 C 
HETATM    2  C2  UNL     1      30.114   0.241  53.711  1.00  0.00     0.113 C 
HETATM    3  N1  UNL     1      29.272  -0.757  53.128  1.00  0.00    -0.277 NA
HETATM    4  C3  UNL     1      29.232  -1.993  53.531  1.00  0.00     0.094 C 
HETATM    5  C4  UNL     1      28.284  -2.854  52.794  1.00  0.00     0.094 C 
HETATM    6  C5  UNL     1      26.995  -2.200  52.454  1.00  0.00     0.114 C 
HETATM    7  N2  UNL     1      26.759  -1.409  53.412  1.00  0.00    -0.079 NA
HETATM    8  C6  UNL     1      25.694  -0.515  53.654  1.00  0.00     0.722 C 
HETATM    9  N3  UNL     1      24.312  -0.389  53.438  1.00  0.00    -0.188 N 
HETATM   10  N6  UNL     1      26.361   0.480  54.289  1.00  0.00    -0.102 NA
HETATM   11  C16 UNL     1      27.688   0.193  54.412  1.00  0.00     0.197 C 
HETATM   12  H7  UNL     1      23.928  -1.331  53.600  1.00  0.00     0.184 HD
ENDROOT
BRANCH   9  13
HETATM   13  C7  UNL     1      23.806   0.859  53.077  1.00  0.00     0.051 A 
HETATM   14  C8  UNL     1      24.432   2.062  53.000  1.00  0.00     0.030 A 
HETATM   15  C9  UNL     1      23.719   3.177  52.626  1.00  0.00     0.004 A 
HETATM   16  C10 UNL     1      22.363   3.164  52.309  1.00  0.00     0.030 A 
HETATM   17  C11 UNL     1      21.737   1.925  52.392  1.00  0.00     0.042 A 
HETATM   18  C15 UNL     1      22.473   0.812  52.771  1.00  0.00     0.060 A 
BRANCH  17  19
HETATM   19  N4  UNL     1      20.353   1.928  52.065  1.00  0.00    -0.315 N 
HETATM   20  C12 UNL     1      19.689   0.755  52.005  1.00  0.00     0.117 A 
HETATM   21  C13 UNL     1      18.379   1.087  51.669  1.00  0.00     0.135 A 
HETATM   22  N5  UNL     1      18.264   2.419  51.532  1.00  0.00    -0.254 NA
HETATM   23  C14 UNL     1      19.488   2.920  51.779  1.00  0.00     0.214 A 
ENDBRANCH  17  19
ENDBRANCH   9  13
TORSDOF 2
ENDMDL
MODEL 7
REMARK VINA RESULT:      -7.4      1.565      8.098
REMARK  2 active torsions:
REMARK  status: ('A' for Active; 'I' for Inactive)
REMARK       I    between atoms: C6_8  and  N3_9 
REMARK    1  A    between atoms: N3_9  and  C7_10 
REMARK    2  A    between atoms: C11_14  and  N4_15 
ROOT
HETATM    1  C1  UNL     1      20.181   1.670  49.222  1.00  0.00     0.014 C 
HETATM    2  C2  UNL     1      18.892   2.183  49.300  1.00  0.00     0.113 C 
HETATM    3  N1  UNL     1      18.753   1.477  50.536  1.00  0.00    -0.277 NA
HETATM    4  C3  UNL     1      18.145   0.333  50.649  1.00  0.00     0.094 C 
HETATM    5  C4  UNL     1      18.126  -0.225  52.019  1.00  0.00     0.094 C 
HETATM    6  C5  UNL     1      19.389  -0.039  52.775  1.00  0.00     0.114 C 
HETATM    7  N2  UNL     1      20.310  -0.106  51.912  1.00  0.00    -0.079 NA
HETATM    8  C6  UNL     1      21.714   0.004  52.020  1.00  0.00     0.722 C 
HETATM    9  N3  UNL     1      22.761  -0.300  52.905  1.00  0.00    -0.188 N 
HETATM   10  N6  UNL     1      21.995   0.612  50.842  1.00  0.00    -0.102 NA
HETATM   11  C16 UNL     1      20.865   0.832  50.110  1.00  0.00     0.197 C 
HETATM   12  H7  UNL     1      22.521  -1.221  53.298  1.00  0.00     0.184 HD
ENDROOT
BRANCH   9  13
HETATM   13  C7  UNL     1      23.794   0.625  53.056  1.00  0.00     0.051 A 
HETATM   14  C8  UNL     1      23.744   1.980  53.130  1.00  0.00     0.030 A 
HETATM   15  C9  UNL     1      24.911   2.696  53.269  1.00  0.00     0.004 A 
HETATM   16  C10 UNL     1      26.175   2.118  53.342  1.00  0.00     0.030 A 
HETATM   17  C11 UNL     1      26.208   0.730  53.267  1.00  0.00     0.042 A 
HETATM   18  C15 UNL     1      25.023   0.025  53.127  1.00  0.00     0.060 A 
BRANCH  17  19
HETATM   19  N4  UNL     1      27.507   0.155  53.344  1.00  0.00    -0.315 N 
HETATM   20  C12 UNL     1      28.562   0.951  53.621  1.00  0.00     0.117 A 
HETATM   21  C13 UNL     1      29.670   0.108  53.629  1.00  0.00     0.135 A 
HETATM   22  N5  UNL     1      29.289  -1.153  53.364  1.00  0.00    -0.254 NA
HETATM   23  C14 UNL     1      27.955  -1.105  53.192  1.00  0.00     0.214 A 
ENDBRANCH  17  19
ENDBRANCH   9  13
TORSDOF 2
ENDMDL
MODEL 8
REMARK VINA RESULT:      -7.3      2.267      3.430
REMARK  2 active torsions:
REMARK  status: ('A' for Active; 'I' for Inactive)
REMARK       I    between atoms: C6_8  and  N3_9 
REMARK    1  A    between atoms: N3_9  and  C7_10 
REMARK    2  A    between atoms: C11_14  and  N4_15 
ROOT
HETATM    1  C1  UNL     1      27.442   2.139  54.001  1.00  0.00     0.014 C 
HETATM    2  C2  UNL     1      28.584   2.079  53.210  1.00  0.00     0.113 C 
HETATM    3  N1  UNL     1      28.233   0.723  52.919  1.00  0.00    -0.277 NA
HETATM    4  C3  UNL     1      28.768  -0.304  53.510  1.00  0.00     0.094 C 
HETATM    5  C4  UNL     1      28.252  -1.615  53.061  1.00  0.00     0.094 C 
HETATM    6  C5  UNL     1      26.789  -1.648  52.815  1.00  0.00     0.114 C 
HETATM    7  N2  UNL     1      26.289  -0.853  53.663  1.00  0.00    -0.079 NA
HETATM    8  C6  UNL     1      24.956  -0.461  53.915  1.00  0.00     0.722 C 
HETATM    9  N3  UNL     1      23.650  -0.975  53.885  1.00  0.00    -0.188 N 
HETATM   10  N6  UNL     1      25.155   0.828  54.284  1.00  0.00    -0.102 NA
HETATM   11  C16 UNL     1      26.478   1.157  54.256  1.00  0.00     0.197 C 
HETATM   12  H7  UNL     1      23.731  -1.937  54.246  1.00  0.00     0.184 HD
ENDROOT
BRANCH   9  13
HETATM   13  C7  UNL     1      22.624  -0.158  53.411  1.00  0.00     0.051 A 
HETATM   14  C8  UNL     1      21.467   0.222  54.013  1.00  0.00     0.030 A 
HETATM   15  C9  UNL     1      20.586   1.035  53.338  1.00  0.00     0.004 A 
HETATM   16  C10 UNL     1      20.799   1.514  52.048  1.00  0.00     0.030 A 
HETATM   17  C11 UNL     1      21.989   1.116  51.448  1.00  0.00     0.042 A 
HETATM   18  C15 UNL     1      22.864   0.296  52.143  1.00  0.00     0.060 A 
BRANCH  17  19
HETATM   19  N4  UNL     1      22.191   1.614  50.131  1.00  0.00    -0.315 N 
HETATM   20  C12 UNL     1      21.524   1.046  49.104  1.00  0.00     0.117 A 
HETATM   21  C13 UNL     1      21.929   1.743  47.968  1.00  0.00     0.135 A 
HETATM   22  N5  UNL     1      22.811   2.698  48.307  1.00  0.00    -0.254 NA
HETATM   23  C14 UNL     1      22.961   2.605  49.640  1.00  0.00     0.214 A 
ENDBRANCH  17  19
ENDBRANCH   9  13
TORSDOF 2
ENDMDL
MODEL 9
REMARK VINA RESULT:      -7.3      2.614      8.065
REMARK  2 active torsions:
REMARK  status: ('A' for Active; 'I' for Inactive)
REMARK       I    between atoms: C6_8  and  N3_9 
REMARK    1  A    between atoms: N3_9  and  C7_10 
REMARK    2  A    between atoms: C11_14  and  N4_15 
ROOT
HETATM    1  C1  UNL     1      19.918   0.241  51.794  1.00  0.00     0.014 C 
HETATM    2  C2  UNL     1      18.832   0.222  50.926  1.00  0.00     0.113 C 
HETATM    3  N1  UNL     1      18.950   1.646  50.851  1.00  0.00    -0.277 NA
HETATM    4  C3  UNL     1      18.205   2.468  51.529  1.00  0.00     0.094 C 
HETATM    5  C4  UNL     1      18.503   3.900  51.306  1.00  0.00     0.094 C 
HETATM    6  C5  UNL     1      19.948   4.217  51.191  1.00  0.00     0.114 C 
HETATM    7  N2  UNL     1      20.532   3.402  51.962  1.00  0.00    -0.079 NA
HETATM    8  C6  UNL     1      21.896   3.209  52.269  1.00  0.00     0.722 C 
HETATM    9  N3  UNL     1      23.089   3.936  52.419  1.00  0.00    -0.188 N 
HETATM   10  N6  UNL     1      21.911   1.865  52.442  1.00  0.00    -0.102 NA
HETATM   11  C16 UNL     1      20.674   1.323  52.259  1.00  0.00     0.197 C 
HETATM   12  H7  UNL     1      22.814   4.806  52.898  1.00  0.00     0.184 HD
ENDROOT
BRANCH   9  13
HETATM   13  C7  UNL     1      24.271   3.384  51.926  1.00  0.00     0.051 A 
HETATM   14  C8  UNL     1      24.828   3.483  50.692  1.00  0.00     0.030 A 
HETATM   15  C9  UNL     1      26.011   2.833  50.426  1.00  0.00     0.004 A 
HETATM   16  C10 UNL     1      26.701   2.060  51.356  1.00  0.00     0.030 A 
HETATM   17  C11 UNL     1      26.117   1.970  52.616  1.00  0.00     0.042 A 
HETATM   18  C15 UNL     1      24.925   2.632  52.864  1.00  0.00     0.060 A 
BRANCH  17  19
HETATM   19  N4  UNL     1      26.835   1.178  53.554  1.00  0.00    -0.315 N 
HETATM   20  C12 UNL     1      28.174   1.318  53.644  1.00  0.00     0.117 A 
HETATM   21  C13 UNL     1      28.575   0.423  54.634  1.00  0.00     0.135 A 
HETATM   22  N5  UNL     1      27.506  -0.231  55.120  1.00  0.00    -0.254 NA
HETATM   23  C14 UNL     1      26.445   0.246  54.445  1.00  0.00     0.214 A 
ENDBRANCH  17  19
ENDBRANCH   9  13
TORSDOF 2
ENDMDL
