MODEL 1
REMARK VINA RESULT:      -8.3      0.000      0.000
REMARK  4 active torsions:
REMARK  status: ('A' for Active; 'I' for Inactive)
REMARK    1  A    between atoms: C1_2  and  S1_3 
REMARK    2  A    between atoms: S1_3  and  C2_4 
REMARK    3  A    between atoms: C2_4  and  C3_5 
REMARK    4  A    between atoms: C4_6  and  C5_7 
ROOT
HETATM    1  C5  UNL     1      25.809   1.282  52.179  1.00  0.00     0.037 C 
HETATM    2  N1  UNL     1      25.513   1.811  51.064  1.00  0.00    -0.265 NA
HETATM    3  C6  UNL     1      26.440   2.384  50.195  1.00  0.00     0.117 C 
HETATM    4  C7  UNL     1      26.696   3.564  49.694  1.00  0.00     0.021 C 
HETATM    5  C8  UNL     1      27.348   4.600  48.921  1.00  0.00     0.021 C 
HETATM    6  C9  UNL     1      27.235   5.897  48.676  1.00  0.00     0.116 C 
HETATM    7  N2  UNL     1      26.148   6.291  49.419  1.00  0.00    -0.275 NA
HETATM    8  C10 UNL     1      25.533   7.356  49.641  1.00  0.00     0.115 C 
HETATM    9  C11 UNL     1      24.584   6.686  50.528  1.00  0.00     0.222 C 
HETATM   10  O2  UNL     1      23.752   5.767  49.831  1.00  0.00    -0.346 OA
HETATM   11  C12 UNL     1      22.930   4.989  50.635  1.00  0.00     0.069 A 
HETATM   12  C13 UNL     1      22.219   5.162  51.785  1.00  0.00     0.039 A 
HETATM   13  C14 UNL     1      21.549   4.049  52.225  1.00  0.00     0.032 A 
HETATM   14  C15 UNL     1      21.611   2.858  51.529  1.00  0.00     0.032 A 
HETATM   15  C16 UNL     1      22.349   2.702  50.337  1.00  0.00     0.032 A 
HETATM   16  C17 UNL     1      23.020   3.826  49.902  1.00  0.00     0.039 A 
HETATM   17  N3  UNL     1      20.952   1.705  52.131  1.00  0.00    -0.366 N 
HETATM   18  C18 UNL     1      22.248   1.482  52.742  1.00  0.00     0.084 C 
HETATM   19  C19 UNL     1      23.372   0.899  52.329  1.00  0.00    -0.004 C 
HETATM   20  C20 UNL     1      24.674   0.687  52.958  1.00  0.00     0.087 C 
HETATM   21  H17 UNL     1      20.095   1.130  52.248  1.00  0.00     0.165 HD
ENDROOT
BRANCH   1  22
HETATM   22  C4  UNL     1      27.087   1.114  52.856  1.00  0.00     0.024 C 
HETATM   23  C3  UNL     1      27.355   0.560  54.014  1.00  0.00    -0.014 C 
BRANCH  23  24
HETATM   24  C2  UNL     1      28.637   0.385  54.707  1.00  0.00     0.108 C 
BRANCH  24  25
HETATM   25  S1  UNL     1      29.857  -0.397  53.578  1.00  0.00    -0.098 SA
BRANCH  25  26
HETATM   26  C1  UNL     1      29.298  -2.036  53.178  1.00  0.00     0.304 C 
HETATM   27  O1  UNL     1      28.763  -3.078  53.559  1.00  0.00    -0.295 OA
ENDBRANCH  25  26
ENDBRANCH  24  25
ENDBRANCH  23  24
ENDBRANCH   1  22
TORSDOF 4
ENDMDL
MODEL 2
REMARK VINA RESULT:      -8.3      1.201      1.338
REMARK  4 active torsions:
REMARK  status: ('A' for Active; 'I' for Inactive)
REMARK    1  A    between atoms: C1_2  and  S1_3 
REMARK    2  A    between atoms: S1_3  and  C2_4 
REMARK    3  A    between atoms: C2_4  and  C3_5 
REMARK    4  A    between atoms: C4_6  and  C5_7 
ROOT
HETATM    1  C5  UNL     1      25.712   1.983  51.495  1.00  0.00     0.037 C 
HETATM    2  N1  UNL     1      25.549   2.614  50.406  1.00  0.00    -0.265 NA
HETATM    3  C6  UNL     1      26.590   3.080  49.605  1.00  0.00     0.117 C 
HETATM    4  C7  UNL     1      27.048   4.231  49.186  1.00  0.00     0.021 C 
HETATM    5  C8  UNL     1      27.886   5.192  48.500  1.00  0.00     0.021 C 
HETATM    6  C9  UNL     1      27.986   6.502  48.332  1.00  0.00     0.116 C 
HETATM    7  N2  UNL     1      26.944   7.021  49.063  1.00  0.00    -0.275 NA
HETATM    8  C10 UNL     1      26.494   8.157  49.329  1.00  0.00     0.115 C 
HETATM    9  C11 UNL     1      25.416   7.597  50.143  1.00  0.00     0.222 C 
HETATM   10  O2  UNL     1      24.480   6.861  49.363  1.00  0.00    -0.346 OA
HETATM   11  C12 UNL     1      23.515   6.179  50.090  1.00  0.00     0.069 A 
HETATM   12  C13 UNL     1      22.792   6.398  51.225  1.00  0.00     0.039 A 
HETATM   13  C14 UNL     1      21.939   5.383  51.573  1.00  0.00     0.032 A 
HETATM   14  C15 UNL     1      21.843   4.238  50.808  1.00  0.00     0.032 A 
HETATM   15  C16 UNL     1      22.596   4.034  49.633  1.00  0.00     0.032 A 
HETATM   16  C17 UNL     1      23.452   5.060  49.291  1.00  0.00     0.039 A 
HETATM   17  N3  UNL     1      20.987   3.172  51.316  1.00  0.00    -0.366 N 
HETATM   18  C18 UNL     1      22.206   2.713  51.954  1.00  0.00     0.084 C 
HETATM   19  C19 UNL     1      23.241   1.983  51.542  1.00  0.00    -0.004 C 
HETATM   20  C20 UNL     1      24.466   1.533  52.199  1.00  0.00     0.087 C 
HETATM   21  H17 UNL     1      20.047   2.735  51.369  1.00  0.00     0.165 HD
ENDROOT
BRANCH   1  22
HETATM   22  C4  UNL     1      26.919   1.577  52.202  1.00  0.00     0.024 C 
HETATM   23  C3  UNL     1      27.657   2.248  53.053  1.00  0.00    -0.014 C 
BRANCH  23  24
HETATM   24  C2  UNL     1      28.874   1.851  53.771  1.00  0.00     0.108 C 
BRANCH  24  25
HETATM   25  S1  UNL     1      28.590   0.267  54.656  1.00  0.00    -0.098 SA
BRANCH  25  26
HETATM   26  C1  UNL     1      29.079  -1.075  53.599  1.00  0.00     0.304 C 
HETATM   27  O1  UNL     1      29.215  -2.291  53.452  1.00  0.00    -0.295 OA
ENDBRANCH  25  26
ENDBRANCH  24  25
ENDBRANCH  23  24
ENDBRANCH   1  22
TORSDOF 4
ENDMDL
MODEL 3
REMARK VINA RESULT:      -7.8      3.544      6.515
REMARK  4 active torsions:
REMARK  status: ('A' for Active; 'I' for Inactive)
REMARK    1  A    between atoms: C1_2  and  S1_3 
REMARK    2  A    between atoms: S1_3  and  C2_4 
REMARK    3  A    between atoms: C2_4  and  C3_5 
REMARK    4  A    between atoms: C4_6  and  C5_7 
ROOT
HETATM    1  C5  UNL     1      21.875   0.525  52.522  1.00  0.00     0.037 C 
HETATM    2  N1  UNL     1      22.541   1.581  52.745  1.00  0.00    -0.265 NA
HETATM    3  C6  UNL     1      22.249   2.827  52.192  1.00  0.00     0.117 C 
HETATM    4  C7  UNL     1      22.818   3.686  51.388  1.00  0.00     0.021 C 
HETATM    5  C8  UNL     1      23.015   4.882  50.595  1.00  0.00     0.021 C 
HETATM    6  C9  UNL     1      23.920   5.420  49.792  1.00  0.00     0.116 C 
HETATM    7  N2  UNL     1      24.942   4.501  49.763  1.00  0.00    -0.275 NA
HETATM    8  C10 UNL     1      26.053   4.391  49.203  1.00  0.00     0.115 C 
HETATM    9  C11 UNL     1      26.302   3.095  49.832  1.00  0.00     0.222 C 
HETATM   10  O2  UNL     1      26.463   3.203  51.242  1.00  0.00    -0.346 OA
HETATM   11  C12 UNL     1      26.554   1.995  51.919  1.00  0.00     0.069 A 
HETATM   12  C13 UNL     1      27.104   0.769  51.688  1.00  0.00     0.039 A 
HETATM   13  C14 UNL     1      26.907  -0.151  52.685  1.00  0.00     0.032 A 
HETATM   14  C15 UNL     1      26.200   0.173  53.826  1.00  0.00     0.032 A 
HETATM   15  C16 UNL     1      25.644   1.450  54.047  1.00  0.00     0.032 A 
HETATM   16  C17 UNL     1      25.846   2.369  53.039  1.00  0.00     0.039 A 
HETATM   17  N3  UNL     1      25.954  -0.902  54.779  1.00  0.00    -0.366 N 
HETATM   18  C18 UNL     1      24.740  -1.093  54.011  1.00  0.00     0.084 C 
HETATM   19  C19 UNL     1      23.542  -0.511  54.025  1.00  0.00    -0.004 C 
HETATM   20  C20 UNL     1      22.327  -0.714  53.238  1.00  0.00     0.087 C 
HETATM   21  H17 UNL     1      26.265  -1.444  55.609  1.00  0.00     0.165 HD
ENDROOT
BRANCH   1  22
HETATM   22  C4  UNL     1      20.702   0.283  51.695  1.00  0.00     0.024 C 
HETATM   23  C3  UNL     1      19.440   0.183  52.038  1.00  0.00    -0.014 C 
BRANCH  23  24
HETATM   24  C2  UNL     1      18.250  -0.060  51.215  1.00  0.00     0.108 C 
BRANCH  24  25
HETATM   25  S1  UNL     1      17.184   1.435  51.199  1.00  0.00    -0.098 SA
BRANCH  25  26
HETATM   26  C1  UNL     1      18.211   2.873  51.389  1.00  0.00     0.304 C 
HETATM   27  O1  UNL     1      18.776   3.658  52.152  1.00  0.00    -0.295 OA
ENDBRANCH  25  26
ENDBRANCH  24  25
ENDBRANCH  23  24
ENDBRANCH   1  22
TORSDOF 4
ENDMDL
MODEL 4
REMARK VINA RESULT:      -7.7      2.147      5.135
REMARK  4 active torsions:
REMARK  status: ('A' for Active; 'I' for Inactive)
REMARK    1  A    between atoms: C1_2  and  S1_3 
REMARK    2  A    between atoms: S1_3  and  C2_4 
REMARK    3  A    between atoms: C2_4  and  C3_5 
REMARK    4  A    between atoms: C4_6  and  C5_7 
ROOT
HETATM    1  C5  UNL     1      25.609   1.906  51.576  1.00  0.00     0.037 C 
HETATM    2  N1  UNL     1      24.515   2.316  52.073  1.00  0.00    -0.265 NA
HETATM    3  C6  UNL     1      23.771   1.615  53.021  1.00  0.00     0.117 C 
HETATM    4  C7  UNL     1      22.590   1.061  53.108  1.00  0.00     0.021 C 
HETATM    5  C8  UNL     1      21.463   0.344  53.667  1.00  0.00     0.021 C 
HETATM    6  C9  UNL     1      20.248  -0.052  53.318  1.00  0.00     0.116 C 
HETATM    7  N2  UNL     1      20.101   0.396  52.026  1.00  0.00    -0.275 NA
HETATM    8  C10 UNL     1      19.221   0.345  51.139  1.00  0.00     0.115 C 
HETATM    9  C11 UNL     1      20.050   1.100  50.201  1.00  0.00     0.222 C 
HETATM   10  O2  UNL     1      20.254   2.444  50.624  1.00  0.00    -0.346 OA
HETATM   11  C12 UNL     1      21.152   3.173  49.857  1.00  0.00     0.069 A 
HETATM   12  C13 UNL     1      21.482   3.263  48.538  1.00  0.00     0.039 A 
HETATM   13  C14 UNL     1      22.490   4.149  48.252  1.00  0.00     0.032 A 
HETATM   14  C15 UNL     1      23.102   4.879  49.251  1.00  0.00     0.032 A 
HETATM   15  C16 UNL     1      22.740   4.775  50.610  1.00  0.00     0.032 A 
HETATM   16  C17 UNL     1      21.727   3.882  50.889  1.00  0.00     0.039 A 
HETATM   17  N3  UNL     1      24.231   5.715  48.862  1.00  0.00    -0.366 N 
HETATM   18  C18 UNL     1      25.010   4.532  49.171  1.00  0.00     0.084 C 
HETATM   19  C19 UNL     1      25.497   4.020  50.299  1.00  0.00    -0.004 C 
HETATM   20  C20 UNL     1      26.279   2.820  50.593  1.00  0.00     0.087 C 
HETATM   21  H17 UNL     1      24.586   6.631  48.525  1.00  0.00     0.165 HD
ENDROOT
BRANCH   1  22
HETATM   22  C4  UNL     1      26.374   0.689  51.804  1.00  0.00     0.024 C 
HETATM   23  C3  UNL     1      27.009   0.288  52.879  1.00  0.00    -0.014 C 
BRANCH  23  24
HETATM   24  C2  UNL     1      27.784  -0.935  53.121  1.00  0.00     0.108 C 
BRANCH  24  25
HETATM   25  S1  UNL     1      29.385  -0.515  53.914  1.00  0.00    -0.098 SA
BRANCH  25  26
HETATM   26  C1  UNL     1      29.454   1.243  54.171  1.00  0.00     0.304 C 
HETATM   27  O1  UNL     1      29.390   2.184  54.963  1.00  0.00    -0.295 OA
ENDBRANCH  25  26
ENDBRANCH  24  25
ENDBRANCH  23  24
ENDBRANCH   1  22
TORSDOF 4
ENDMDL
MODEL 5
REMARK VINA RESULT:      -7.5      3.375      5.254
REMARK  4 active torsions:
REMARK  status: ('A' for Active; 'I' for Inactive)
REMARK    1  A    between atoms: C1_2  and  S1_3 
REMARK    2  A    between atoms: S1_3  and  C2_4 
REMARK    3  A    between atoms: C2_4  and  C3_5 
REMARK    4  A    between atoms: C4_6  and  C5_7 
ROOT
HETATM    1  C5  UNL     1      26.171   4.325  49.511  1.00  0.00     0.037 C 
HETATM    2  N1  UNL     1      26.773   5.001  48.623  1.00  0.00    -0.265 NA
HETATM    3  C6  UNL     1      28.143   4.931  48.375  1.00  0.00     0.117 C 
HETATM    4  C7  UNL     1      29.180   5.724  48.436  1.00  0.00     0.021 C 
HETATM    5  C8  UNL     1      30.552   6.177  48.343  1.00  0.00     0.021 C 
HETATM    6  C9  UNL     1      31.267   7.274  48.546  1.00  0.00     0.116 C 
HETATM    7  N2  UNL     1      30.349   8.206  48.968  1.00  0.00    -0.275 NA
HETATM    8  C10 UNL     1      30.366   9.403  49.330  1.00  0.00     0.115 C 
HETATM    9  C11 UNL     1      28.921   9.411  49.552  1.00  0.00     0.222 C 
HETATM   10  O2  UNL     1      28.189   9.266  48.340  1.00  0.00    -0.346 OA
HETATM   11  C12 UNL     1      26.818   9.117  48.495  1.00  0.00     0.069 A 
HETATM   12  C13 UNL     1      25.855   9.613  49.322  1.00  0.00     0.039 A 
HETATM   13  C14 UNL     1      24.591   9.135  49.091  1.00  0.00     0.032 A 
HETATM   14  C15 UNL     1      24.346   8.220  48.087  1.00  0.00     0.032 A 
HETATM   15  C16 UNL     1      25.357   7.724  47.237  1.00  0.00     0.032 A 
HETATM   16  C17 UNL     1      26.625   8.210  47.476  1.00  0.00     0.039 A 
HETATM   17  N3  UNL     1      22.991   7.692  47.987  1.00  0.00    -0.366 N 
HETATM   18  C18 UNL     1      23.494   6.665  48.878  1.00  0.00     0.084 C 
HETATM   19  C19 UNL     1      24.181   5.540  48.690  1.00  0.00    -0.004 C 
HETATM   20  C20 UNL     1      24.686   4.516  49.602  1.00  0.00     0.087 C 
HETATM   21  H17 UNL     1      22.030   7.773  47.600  1.00  0.00     0.165 HD
ENDROOT
BRANCH   1  22
HETATM   22  C4  UNL     1      26.658   3.347  50.473  1.00  0.00     0.024 C 
HETATM   23  C3  UNL     1      26.117   2.223  50.873  1.00  0.00    -0.014 C 
BRANCH  23  24
HETATM   24  C2  UNL     1      26.598   1.230  51.841  1.00  0.00     0.108 C 
BRANCH  24  25
HETATM   25  S1  UNL     1      26.812   2.014  53.488  1.00  0.00    -0.098 SA
BRANCH  25  26
HETATM   26  C1  UNL     1      28.550   2.174  53.824  1.00  0.00     0.304 C 
HETATM   27  O1  UNL     1      29.435   2.440  54.639  1.00  0.00    -0.295 OA
ENDBRANCH  25  26
ENDBRANCH  24  25
ENDBRANCH  23  24
ENDBRANCH   1  22
TORSDOF 4
ENDMDL
MODEL 6
REMARK VINA RESULT:      -7.3      2.662      4.086
REMARK  4 active torsions:
REMARK  status: ('A' for Active; 'I' for Inactive)
REMARK    1  A    between atoms: C1_2  and  S1_3 
REMARK    2  A    between atoms: S1_3  and  C2_4 
REMARK    3  A    between atoms: C2_4  and  C3_5 
REMARK    4  A    between atoms: C4_6  and  C5_7 
ROOT
HETATM    1  C5  UNL     1      25.984   3.719  49.960  1.00  0.00     0.037 C 
HETATM    2  N1  UNL     1      26.336   4.480  49.008  1.00  0.00    -0.265 NA
HETATM    3  C6  UNL     1      27.654   4.656  48.588  1.00  0.00     0.117 C 
HETATM    4  C7  UNL     1      28.528   5.626  48.524  1.00  0.00     0.021 C 
HETATM    5  C8  UNL     1      29.771   6.320  48.261  1.00  0.00     0.021 C 
HETATM    6  C9  UNL     1      30.293   7.531  48.381  1.00  0.00     0.116 C 
HETATM    7  N2  UNL     1      29.282   8.288  48.924  1.00  0.00    -0.275 NA
HETATM    8  C10 UNL     1      29.125   9.473  49.290  1.00  0.00     0.115 C 
HETATM    9  C11 UNL     1      27.743   9.221  49.694  1.00  0.00     0.222 C 
HETATM   10  O2  UNL     1      26.903   8.927  48.584  1.00  0.00    -0.346 OA
HETATM   11  C12 UNL     1      25.613   8.533  48.909  1.00  0.00     0.069 A 
HETATM   12  C13 UNL     1      24.687   8.858  49.856  1.00  0.00     0.039 A 
HETATM   13  C14 UNL     1      23.513   8.154  49.784  1.00  0.00     0.032 A 
HETATM   14  C15 UNL     1      23.315   7.195  48.811  1.00  0.00     0.032 A 
HETATM   15  C16 UNL     1      24.284   6.878  47.836  1.00  0.00     0.032 A 
HETATM   16  C17 UNL     1      25.462   7.590  47.917  1.00  0.00     0.039 A 
HETATM   17  N3  UNL     1      22.077   6.428  48.880  1.00  0.00    -0.366 N 
HETATM   18  C18 UNL     1      22.868   5.523  49.691  1.00  0.00     0.084 C 
HETATM   19  C19 UNL     1      23.719   4.538  49.408  1.00  0.00    -0.004 C 
HETATM   20  C20 UNL     1      24.513   3.638  50.241  1.00  0.00     0.087 C 
HETATM   21  H17 UNL     1      21.077   6.326  48.618  1.00  0.00     0.165 HD
ENDROOT
BRANCH   1  22
HETATM   22  C4  UNL     1      26.760   2.861  50.845  1.00  0.00     0.024 C 
HETATM   23  C3  UNL     1      26.354   1.970  51.717  1.00  0.00    -0.014 C 
BRANCH  23  24
HETATM   24  C2  UNL     1      27.124   1.101  52.613  1.00  0.00     0.108 C 
BRANCH  24  25
HETATM   25  S1  UNL     1      26.080  -0.301  53.175  1.00  0.00    -0.098 SA
BRANCH  25  26
HETATM   26  C1  UNL     1      26.852  -1.824  52.682  1.00  0.00     0.304 C 
HETATM   27  O1  UNL     1      26.859  -2.790  51.917  1.00  0.00    -0.295 OA
ENDBRANCH  25  26
ENDBRANCH  24  25
ENDBRANCH  23  24
ENDBRANCH   1  22
TORSDOF 4
ENDMDL
MODEL 7
REMARK VINA RESULT:      -7.0      3.493      7.576
REMARK  4 active torsions:
REMARK  status: ('A' for Active; 'I' for Inactive)
REMARK    1  A    between atoms: C1_2  and  S1_3 
REMARK    2  A    between atoms: S1_3  and  C2_4 
REMARK    3  A    between atoms: C2_4  and  C3_5 
REMARK    4  A    between atoms: C4_6  and  C5_7 
ROOT
HETATM    1  C5  UNL     1      24.672   3.147  51.025  1.00  0.00     0.037 C 
HETATM    2  N1  UNL     1      24.297   1.935  50.996  1.00  0.00    -0.265 NA
HETATM    3  C6  UNL     1      22.998   1.521  50.709  1.00  0.00     0.117 C 
HETATM    4  C7  UNL     1      22.026   0.892  51.318  1.00  0.00     0.021 C 
HETATM    5  C8  UNL     1      20.732   0.283  51.541  1.00  0.00     0.021 C 
HETATM    6  C9  UNL     1      20.070  -0.355  52.495  1.00  0.00     0.116 C 
HETATM    7  N2  UNL     1      20.954  -0.408  53.547  1.00  0.00    -0.275 NA
HETATM    8  C10 UNL     1      20.953  -0.848  54.717  1.00  0.00     0.115 C 
HETATM    9  C11 UNL     1      22.326  -0.400  54.943  1.00  0.00     0.222 C 
HETATM   10  O2  UNL     1      23.263  -1.114  54.143  1.00  0.00    -0.346 OA
HETATM   11  C12 UNL     1      24.566  -0.639  54.198  1.00  0.00     0.069 A 
HETATM   12  C13 UNL     1      25.387  -0.107  55.148  1.00  0.00     0.039 A 
HETATM   13  C14 UNL     1      26.635   0.245  54.703  1.00  0.00     0.032 A 
HETATM   14  C15 UNL     1      27.001   0.060  53.385  1.00  0.00     0.032 A 
HETATM   15  C16 UNL     1      26.137  -0.499  52.419  1.00  0.00     0.032 A 
HETATM   16  C17 UNL     1      24.884  -0.849  52.875  1.00  0.00     0.039 A 
HETATM   17  N3  UNL     1      28.310   0.560  52.985  1.00  0.00    -0.366 N 
HETATM   18  C18 UNL     1      27.576   1.771  52.670  1.00  0.00     0.084 C 
HETATM   19  C19 UNL     1      26.861   2.166  51.619  1.00  0.00    -0.004 C 
HETATM   20  C20 UNL     1      26.122   3.391  51.321  1.00  0.00     0.087 C 
HETATM   21  H17 UNL     1      29.330   0.397  52.873  1.00  0.00     0.165 HD
ENDROOT
BRANCH   1  22
HETATM   22  C4  UNL     1      23.943   4.386  50.795  1.00  0.00     0.024 C 
HETATM   23  C3  UNL     1      22.776   4.770  51.253  1.00  0.00    -0.014 C 
BRANCH  23  24
HETATM   24  C2  UNL     1      22.032   6.015  51.028  1.00  0.00     0.108 C 
BRANCH  24  25
HETATM   25  S1  UNL     1      20.381   5.638  50.319  1.00  0.00    -0.098 SA
BRANCH  25  26
HETATM   26  C1  UNL     1      19.753   4.161  51.083  1.00  0.00     0.304 C 
HETATM   27  O1  UNL     1      19.406   3.589  52.117  1.00  0.00    -0.295 OA
ENDBRANCH  25  26
ENDBRANCH  24  25
ENDBRANCH  23  24
ENDBRANCH   1  22
TORSDOF 4
ENDMDL
MODEL 8
REMARK VINA RESULT:      -6.8     10.567     12.191
REMARK  4 active torsions:
REMARK  status: ('A' for Active; 'I' for Inactive)
REMARK    1  A    between atoms: C1_2  and  S1_3 
REMARK    2  A    between atoms: S1_3  and  C2_4 
REMARK    3  A    between atoms: C2_4  and  C3_5 
REMARK    4  A    between atoms: C4_6  and  C5_7 
ROOT
HETATM    1  C5  UNL     1      33.742   5.042  44.167  1.00  0.00     0.037 C 
HETATM    2  N1  UNL     1      32.919   5.683  44.889  1.00  0.00    -0.265 NA
HETATM    3  C6  UNL     1      32.048   6.660  44.411  1.00  0.00     0.117 C 
HETATM    4  C7  UNL     1      31.845   7.941  44.576  1.00  0.00     0.021 C 
HETATM    5  C8  UNL     1      31.255   9.254  44.424  1.00  0.00     0.021 C 
HETATM    6  C9  UNL     1      31.411  10.487  44.881  1.00  0.00     0.116 C 
HETATM    7  N2  UNL     1      32.469  10.397  45.755  1.00  0.00    -0.275 NA
HETATM    8  C10 UNL     1      33.113  11.176  46.490  1.00  0.00     0.115 C 
HETATM    9  C11 UNL     1      33.980  10.098  46.962  1.00  0.00     0.222 C 
HETATM   10  O2  UNL     1      33.273   9.144  47.747  1.00  0.00    -0.346 OA
HETATM   11  C12 UNL     1      34.002   8.018  48.103  1.00  0.00     0.069 A 
HETATM   12  C13 UNL     1      35.289   7.743  48.458  1.00  0.00     0.039 A 
HETATM   13  C14 UNL     1      35.551   6.421  48.709  1.00  0.00     0.032 A 
HETATM   14  C15 UNL     1      34.561   5.464  48.603  1.00  0.00     0.032 A 
HETATM   15  C16 UNL     1      33.232   5.772  48.240  1.00  0.00     0.032 A 
HETATM   16  C17 UNL     1      32.979   7.104  47.988  1.00  0.00     0.039 A 
HETATM   17  N3  UNL     1      34.960   4.075  48.788  1.00  0.00    -0.366 N 
HETATM   18  C18 UNL     1      35.162   4.107  47.352  1.00  0.00     0.084 C 
HETATM   19  C19 UNL     1      34.352   3.963  46.306  1.00  0.00    -0.004 C 
HETATM   20  C20 UNL     1      34.573   4.004  44.861  1.00  0.00     0.087 C 
HETATM   21  H17 UNL     1      35.113   3.270  49.426  1.00  0.00     0.165 HD
ENDROOT
BRANCH   1  22
HETATM   22  C4  UNL     1      34.026   5.107  42.740  1.00  0.00     0.024 C 
HETATM   23  C3  UNL     1      33.803   4.222  41.800  1.00  0.00    -0.014 C 
BRANCH  23  24
HETATM   24  C2  UNL     1      34.084   4.276  40.360  1.00  0.00     0.108 C 
BRANCH  24  25
HETATM   25  S1  UNL     1      34.120   2.576  39.666  1.00  0.00    -0.098 SA
BRANCH  25  26
HETATM   26  C1  UNL     1      32.616   1.742  40.113  1.00  0.00     0.304 C 
HETATM   27  O1  UNL     1      31.401   1.623  39.949  1.00  0.00    -0.295 OA
ENDBRANCH  25  26
ENDBRANCH  24  25
ENDBRANCH  23  24
ENDBRANCH   1  22
TORSDOF 4
ENDMDL
MODEL 9
REMARK VINA RESULT:      -6.7      2.299      5.162
REMARK  4 active torsions:
REMARK  status: ('A' for Active; 'I' for Inactive)
REMARK    1  A    between atoms: C1_2  and  S1_3 
REMARK    2  A    between atoms: S1_3  and  C2_4 
REMARK    3  A    between atoms: C2_4  and  C3_5 
REMARK    4  A    between atoms: C4_6  and  C5_7 
ROOT
HETATM    1  C5  UNL     1      25.400   3.224  50.886  1.00  0.00     0.037 C 
HETATM    2  N1  UNL     1      24.405   3.887  51.311  1.00  0.00    -0.265 NA
HETATM    3  C6  UNL     1      23.417   3.372  52.149  1.00  0.00     0.117 C 
HETATM    4  C7  UNL     1      22.131   3.141  52.102  1.00  0.00     0.021 C 
HETATM    5  C8  UNL     1      20.809   2.724  52.519  1.00  0.00     0.021 C 
HETATM    6  C9  UNL     1      19.573   2.670  52.045  1.00  0.00     0.116 C 
HETATM    7  N2  UNL     1      19.672   3.184  50.774  1.00  0.00    -0.275 NA
HETATM    8  C10 UNL     1      18.901   3.394  49.813  1.00  0.00     0.115 C 
HETATM    9  C11 UNL     1      19.983   3.939  48.995  1.00  0.00     0.222 C 
HETATM   10  O2  UNL     1      20.481   5.168  49.511  1.00  0.00    -0.346 OA
HETATM   11  C12 UNL     1      21.607   5.664  48.868  1.00  0.00     0.069 A 
HETATM   12  C13 UNL     1      22.077   5.711  47.589  1.00  0.00     0.039 A 
HETATM   13  C14 UNL     1      23.300   6.312  47.443  1.00  0.00     0.032 A 
HETATM   14  C15 UNL     1      23.978   6.824  48.531  1.00  0.00     0.032 A 
HETATM   15  C16 UNL     1      23.470   6.771  49.847  1.00  0.00     0.032 A 
HETATM   16  C17 UNL     1      22.240   6.163  49.984  1.00  0.00     0.039 A 
HETATM   17  N3  UNL     1      25.316   7.350  48.290  1.00  0.00    -0.366 N 
HETATM   18  C18 UNL     1      25.732   5.995  48.595  1.00  0.00     0.084 C 
HETATM   19  C19 UNL     1      25.959   5.336  49.730  1.00  0.00    -0.004 C 
HETATM   20  C20 UNL     1      26.374   3.965  50.020  1.00  0.00     0.087 C 
HETATM   21  H17 UNL     1      25.925   8.153  48.039  1.00  0.00     0.165 HD
ENDROOT
BRANCH   1  22
HETATM   22  C4  UNL     1      25.803   1.843  51.108  1.00  0.00     0.024 C 
HETATM   23  C3  UNL     1      26.572   1.333  52.040  1.00  0.00    -0.014 C 
BRANCH  23  24
HETATM   24  C2  UNL     1      26.985  -0.056  52.274  1.00  0.00     0.108 C 
BRANCH  24  25
HETATM   25  S1  UNL     1      28.166  -0.129  53.678  1.00  0.00    -0.098 SA
BRANCH  25  26
HETATM   26  C1  UNL     1      28.913   1.471  53.882  1.00  0.00     0.304 C 
HETATM   27  O1  UNL     1      29.243   2.378  54.648  1.00  0.00    -0.295 OA
ENDBRANCH  25  26
ENDBRANCH  24  25
ENDBRANCH  23  24
ENDBRANCH   1  22
TORSDOF 4
ENDMDL
