MODEL 1
REMARK VINA RESULT:      -8.3      0.000      0.000
REMARK  5 active torsions:
REMARK  status: ('A' for Active; 'I' for Inactive)
REMARK    1  A    between atoms: O1_2  and  C2_3 
REMARK    2  A    between atoms: C2_3  and  C3_4 
REMARK    3  A    between atoms: C7_8  and  C8_9 
REMARK    4  A    between atoms: C12_13  and  C13_14 
REMARK    5  A    between atoms: C19_22  and  N2_23 
ROOT
HETATM    1  C8  UNL     1      25.537   0.680  53.347  1.00  0.00     0.095 A 
HETATM    2  C9  UNL     1      25.509   1.614  52.190  1.00  0.00    -0.010 A 
HETATM    3  C10 UNL     1      24.335   1.665  51.583  1.00  0.00     0.013 A 
HETATM    4  C11 UNL     1      23.467   0.743  52.309  1.00  0.00     0.020 A 
HETATM    5  C12 UNL     1      22.152   0.525  51.968  1.00  0.00     0.098 A 
HETATM    6  N1  UNL     1      21.461  -0.365  52.741  1.00  0.00    -0.062 NA
HETATM    7  C19 UNL     1      22.131  -0.954  53.775  1.00  0.00     0.721 A 
HETATM    8  N3  UNL     1      23.416  -0.691  54.047  1.00  0.00    -0.066 NA
HETATM    9  C20 UNL     1      24.156   0.154  53.351  1.00  0.00     0.078 A 
ENDROOT
BRANCH   1  10
HETATM   10  C7  UNL     1      26.593  -0.322  53.249  1.00  0.00    -0.040 A 
HETATM   11  C3  UNL     1      27.918  -0.471  53.817  1.00  0.00    -0.031 A 
HETATM   12  C4  UNL     1      28.506  -1.612  53.404  1.00  0.00    -0.013 A 
HETATM   13  C5  UNL     1      27.595  -2.347  52.497  1.00  0.00     0.055 A 
HETATM   14  C6  UNL     1      26.421  -1.418  52.484  1.00  0.00    -0.014 A 
BRANCH  11  15
HETATM   15  C2  UNL     1      28.515   0.510  54.719  1.00  0.00     0.205 C 
BRANCH  15  16
HETATM   16  O1  UNL     1      29.446   1.341  54.108  1.00  0.00    -0.391 OA
HETATM   17  C1  UNL     1      28.816   2.518  53.661  1.00  0.00     0.201 C 
ENDBRANCH  15  16
ENDBRANCH  11  15
ENDBRANCH   1  10
BRANCH   5  18
HETATM   18  C13 UNL     1      21.447   1.161  50.861  1.00  0.00    -0.004 A 
HETATM   19  C14 UNL     1      21.632   0.993  49.504  1.00  0.00     0.014 A 
HETATM   20  C15 UNL     1      20.849   1.699  48.615  1.00  0.00     0.002 A 
HETATM   21  C16 UNL     1      19.870   2.585  49.027  1.00  0.00     0.019 A 
HETATM   22  C17 UNL     1      19.690   2.749  50.384  1.00  0.00     0.011 A 
HETATM   23 BR1  UNL     1      18.327   3.981  50.889  1.00  0.00    -0.051 Br
HETATM   24  C18 UNL     1      20.456   2.057  51.278  1.00  0.00     0.032 A 
ENDBRANCH   5  18
BRANCH   7  25
HETATM   25  N2  UNL     1      21.469  -1.903  54.634  1.00  0.00    -0.231 N 
HETATM   26  H17 UNL     1      20.550  -2.377  54.785  1.00  0.00     0.174 HD
HETATM   27  H18 UNL     1      22.214  -2.168  55.315  1.00  0.00     0.174 HD
ENDBRANCH   7  25
TORSDOF 5
ENDMDL
MODEL 2
REMARK VINA RESULT:      -8.1      3.635      7.419
REMARK  5 active torsions:
REMARK  status: ('A' for Active; 'I' for Inactive)
REMARK    1  A    between atoms: O1_2  and  C2_3 
REMARK    2  A    between atoms: C2_3  and  C3_4 
REMARK    3  A    between atoms: C7_8  and  C8_9 
REMARK    4  A    between atoms: C12_13  and  C13_14 
REMARK    5  A    between atoms: C19_22  and  N2_23 
ROOT
HETATM    1  C8  UNL     1      21.986   1.078  51.018  1.00  0.00     0.095 A 
HETATM    2  C9  UNL     1      23.139   1.872  50.518  1.00  0.00    -0.010 A 
HETATM    3  C10 UNL     1      24.230   1.736  51.254  1.00  0.00     0.013 A 
HETATM    4  C11 UNL     1      23.878   0.816  52.330  1.00  0.00     0.020 A 
HETATM    5  C12 UNL     1      24.766   0.427  53.306  1.00  0.00     0.098 A 
HETATM    6  N1  UNL     1      24.295  -0.443  54.248  1.00  0.00    -0.062 NA
HETATM    7  C19 UNL     1      22.994  -0.846  54.139  1.00  0.00     0.721 A 
HETATM    8  N3  UNL     1      22.187  -0.423  53.157  1.00  0.00    -0.066 NA
HETATM    9  C20 UNL     1      22.562   0.416  52.208  1.00  0.00     0.078 A 
ENDROOT
BRANCH   1  10
HETATM   10  C7  UNL     1      20.795   1.885  51.259  1.00  0.00    -0.040 A 
HETATM   11  C3  UNL     1      19.397   1.598  51.505  1.00  0.00    -0.031 A 
HETATM   12  C4  UNL     1      18.683   2.729  51.673  1.00  0.00    -0.013 A 
HETATM   13  C5  UNL     1      19.572   3.907  51.551  1.00  0.00     0.055 A 
HETATM   14  C6  UNL     1      20.881   3.230  51.288  1.00  0.00    -0.014 A 
BRANCH  11  15
HETATM   15  C2  UNL     1      18.857   0.242  51.556  1.00  0.00     0.205 C 
BRANCH  15  16
HETATM   16  O1  UNL     1      18.848  -0.312  52.830  1.00  0.00    -0.391 OA
HETATM   17  C1  UNL     1      17.766  -1.204  52.957  1.00  0.00     0.201 C 
ENDBRANCH  15  16
ENDBRANCH  11  15
ENDBRANCH   1  10
BRANCH   5  18
HETATM   18  C13 UNL     1      26.153   0.864  53.412  1.00  0.00    -0.004 A 
HETATM   19  C14 UNL     1      26.654   2.146  53.514  1.00  0.00     0.014 A 
HETATM   20  C15 UNL     1      28.016   2.343  53.605  1.00  0.00     0.002 A 
HETATM   21  C16 UNL     1      28.921   1.297  53.598  1.00  0.00     0.019 A 
HETATM   22  C17 UNL     1      28.415   0.019  53.496  1.00  0.00     0.011 A 
HETATM   23 BR1  UNL     1      29.711  -1.378  53.492  1.00  0.00    -0.051 Br
HETATM   24  C18 UNL     1      27.069  -0.194  53.405  1.00  0.00     0.032 A 
ENDBRANCH   5  18
BRANCH   7  25
HETATM   25  N2  UNL     1      22.426  -1.762  55.095  1.00  0.00    -0.231 N 
HETATM   26  H17 UNL     1      22.586  -2.695  55.538  1.00  0.00     0.174 HD
HETATM   27  H18 UNL     1      21.564  -1.268  55.414  1.00  0.00     0.174 HD
ENDBRANCH   7  25
TORSDOF 5
ENDMDL
MODEL 3
REMARK VINA RESULT:      -8.0      3.681      5.397
REMARK  5 active torsions:
REMARK  status: ('A' for Active; 'I' for Inactive)
REMARK    1  A    between atoms: O1_2  and  C2_3 
REMARK    2  A    between atoms: C2_3  and  C3_4 
REMARK    3  A    between atoms: C7_8  and  C8_9 
REMARK    4  A    between atoms: C12_13  and  C13_14 
REMARK    5  A    between atoms: C19_22  and  N2_23 
ROOT
HETATM    1  C8  UNL     1      22.617   2.189  52.791  1.00  0.00     0.095 A 
HETATM    2  C9  UNL     1      23.827   2.969  53.165  1.00  0.00    -0.010 A 
HETATM    3  C10 UNL     1      24.486   3.449  52.124  1.00  0.00     0.013 A 
HETATM    4  C11 UNL     1      23.747   3.013  50.944  1.00  0.00     0.020 A 
HETATM    5  C12 UNL     1      24.131   3.324  49.660  1.00  0.00     0.098 A 
HETATM    6  N1  UNL     1      23.338   2.850  48.653  1.00  0.00    -0.062 NA
HETATM    7  C19 UNL     1      22.243   2.114  49.008  1.00  0.00     0.721 A 
HETATM    8  N3  UNL     1      21.931   1.851  50.285  1.00  0.00    -0.066 NA
HETATM    9  C20 UNL     1      22.643   2.271  51.315  1.00  0.00     0.078 A 
ENDROOT
BRANCH   1  10
HETATM   10  C7  UNL     1      22.610   0.841  53.348  1.00  0.00    -0.040 A 
HETATM   11  C3  UNL     1      23.598  -0.207  53.503  1.00  0.00    -0.031 A 
HETATM   12  C4  UNL     1      23.073  -1.296  54.101  1.00  0.00    -0.013 A 
HETATM   13  C5  UNL     1      21.644  -1.060  54.408  1.00  0.00     0.055 A 
HETATM   14  C6  UNL     1      21.481   0.330  53.877  1.00  0.00    -0.014 A 
BRANCH  11  15
HETATM   15  C2  UNL     1      24.982  -0.073  53.055  1.00  0.00     0.205 C 
BRANCH  15  16
HETATM   16  O1  UNL     1      25.900  -0.734  53.862  1.00  0.00    -0.391 OA
HETATM   17  C1  UNL     1      26.507   0.180  54.744  1.00  0.00     0.201 C 
ENDBRANCH  15  16
ENDBRANCH  11  15
ENDBRANCH   1  10
BRANCH   5  18
HETATM   18  C13 UNL     1      25.303   4.111  49.294  1.00  0.00    -0.004 A 
HETATM   19  C14 UNL     1      26.630   3.733  49.271  1.00  0.00     0.014 A 
HETATM   20  C15 UNL     1      27.593   4.642  48.889  1.00  0.00     0.002 A 
HETATM   21  C16 UNL     1      27.287   5.940  48.521  1.00  0.00     0.019 A 
HETATM   22  C17 UNL     1      25.960   6.312  48.545  1.00  0.00     0.011 A 
HETATM   23 BR1  UNL     1      25.603   8.111  48.027  1.00  0.00    -0.051 Br
HETATM   24  C18 UNL     1      24.993   5.424  48.920  1.00  0.00     0.032 A 
ENDBRANCH   5  18
BRANCH   7  25
HETATM   25  N2  UNL     1      21.359   1.580  48.003  1.00  0.00    -0.231 N 
HETATM   26  H17 UNL     1      20.867   0.702  47.722  1.00  0.00     0.174 HD
HETATM   27  H18 UNL     1      21.195   2.395  47.373  1.00  0.00     0.174 HD
ENDBRANCH   7  25
TORSDOF 5
ENDMDL
MODEL 4
REMARK VINA RESULT:      -7.8      4.230      6.157
REMARK  5 active torsions:
REMARK  status: ('A' for Active; 'I' for Inactive)
REMARK    1  A    between atoms: O1_2  and  C2_3 
REMARK    2  A    between atoms: C2_3  and  C3_4 
REMARK    3  A    between atoms: C7_8  and  C8_9 
REMARK    4  A    between atoms: C12_13  and  C13_14 
REMARK    5  A    between atoms: C19_22  and  N2_23 
ROOT
HETATM    1  C8  UNL     1      22.833   2.315  52.751  1.00  0.00     0.095 A 
HETATM    2  C9  UNL     1      24.014   3.146  53.105  1.00  0.00    -0.010 A 
HETATM    3  C10 UNL     1      24.644   3.641  52.053  1.00  0.00     0.013 A 
HETATM    4  C11 UNL     1      23.911   3.165  50.884  1.00  0.00     0.020 A 
HETATM    5  C12 UNL     1      24.270   3.478  49.593  1.00  0.00     0.098 A 
HETATM    6  N1  UNL     1      23.487   2.962  48.599  1.00  0.00    -0.062 NA
HETATM    7  C19 UNL     1      22.425   2.188  48.972  1.00  0.00     0.721 A 
HETATM    8  N3  UNL     1      22.137   1.926  50.255  1.00  0.00    -0.066 NA
HETATM    9  C20 UNL     1      22.841   2.384  51.274  1.00  0.00     0.078 A 
ENDROOT
BRANCH   1  10
HETATM   10  C7  UNL     1      22.884   0.973  53.320  1.00  0.00    -0.040 A 
HETATM   11  C3  UNL     1      21.905   0.054  53.863  1.00  0.00    -0.031 A 
HETATM   12  C4  UNL     1      22.479  -1.097  54.268  1.00  0.00    -0.013 A 
HETATM   13  C5  UNL     1      23.938  -1.044  54.019  1.00  0.00     0.055 A 
HETATM   14  C6  UNL     1      24.060   0.322  53.418  1.00  0.00    -0.014 A 
BRANCH  11  15
HETATM   15  C2  UNL     1      20.481   0.365  53.953  1.00  0.00     0.205 C 
BRANCH  15  16
HETATM   16  O1  UNL     1      19.677  -0.456  53.171  1.00  0.00    -0.391 OA
HETATM   17  C1  UNL     1      19.327   0.209  51.980  1.00  0.00     0.201 C 
ENDBRANCH  15  16
ENDBRANCH  11  15
ENDBRANCH   1  10
BRANCH   5  18
HETATM   18  C13 UNL     1      25.407   4.307  49.208  1.00  0.00    -0.004 A 
HETATM   19  C14 UNL     1      26.745   3.976  49.161  1.00  0.00     0.014 A 
HETATM   20  C15 UNL     1      27.669   4.920  48.763  1.00  0.00     0.002 A 
HETATM   21  C16 UNL     1      27.310   6.207  48.404  1.00  0.00     0.019 A 
HETATM   22  C17 UNL     1      25.972   6.531  48.453  1.00  0.00     0.011 A 
HETATM   23 BR1  UNL     1      25.541   8.317  47.947  1.00  0.00    -0.051 Br
HETATM   24  C18 UNL     1      25.044   5.609  48.844  1.00  0.00     0.032 A 
ENDBRANCH   5  18
BRANCH   7  25
HETATM   25  N2  UNL     1      21.554   1.609  47.981  1.00  0.00    -0.231 N 
HETATM   26  H17 UNL     1      21.251   0.690  47.587  1.00  0.00     0.174 HD
HETATM   27  H18 UNL     1      21.104   2.443  47.544  1.00  0.00     0.174 HD
ENDBRANCH   7  25
TORSDOF 5
ENDMDL
MODEL 5
REMARK VINA RESULT:      -7.8      5.349      7.328
REMARK  5 active torsions:
REMARK  status: ('A' for Active; 'I' for Inactive)
REMARK    1  A    between atoms: O1_2  and  C2_3 
REMARK    2  A    between atoms: C2_3  and  C3_4 
REMARK    3  A    between atoms: C7_8  and  C8_9 
REMARK    4  A    between atoms: C12_13  and  C13_14 
REMARK    5  A    between atoms: C19_22  and  N2_23 
ROOT
HETATM    1  C8  UNL     1      26.121   5.740  48.854  1.00  0.00     0.095 A 
HETATM    2  C9  UNL     1      27.042   4.573  48.868  1.00  0.00    -0.010 A 
HETATM    3  C10 UNL     1      26.684   3.629  49.722  1.00  0.00     0.013 A 
HETATM    4  C11 UNL     1      25.463   4.108  50.361  1.00  0.00     0.020 A 
HETATM    5  C12 UNL     1      24.784   3.388  51.318  1.00  0.00     0.098 A 
HETATM    6  N1  UNL     1      23.653   3.963  51.826  1.00  0.00    -0.062 NA
HETATM    7  C19 UNL     1      23.298   5.189  51.341  1.00  0.00     0.721 A 
HETATM    8  N3  UNL     1      24.010   5.831  50.405  1.00  0.00    -0.066 NA
HETATM    9  C20 UNL     1      25.114   5.348  49.863  1.00  0.00     0.078 A 
ENDROOT
BRANCH   1  10
HETATM   10  C7  UNL     1      26.798   7.009  49.099  1.00  0.00    -0.040 A 
HETATM   11  C3  UNL     1      27.931   7.694  48.511  1.00  0.00    -0.031 A 
HETATM   12  C4  UNL     1      28.159   8.878  49.115  1.00  0.00    -0.013 A 
HETATM   13  C5  UNL     1      27.165   9.093  50.191  1.00  0.00     0.055 A 
HETATM   14  C6  UNL     1      26.365   7.832  50.074  1.00  0.00    -0.014 A 
BRANCH  11  15
HETATM   15  C2  UNL     1      28.711   7.144  47.406  1.00  0.00     0.205 C 
BRANCH  15  16
HETATM   16  O1  UNL     1      30.082   7.137  47.635  1.00  0.00    -0.391 OA
HETATM   17  C1  UNL     1      30.465   5.909  48.207  1.00  0.00     0.201 C 
ENDBRANCH  15  16
ENDBRANCH  11  15
ENDBRANCH   1  10
BRANCH   5  18
HETATM   18  C13 UNL     1      25.174   2.079  51.827  1.00  0.00    -0.004 A 
HETATM   19  C14 UNL     1      26.386   1.429  51.713  1.00  0.00     0.014 A 
HETATM   20  C15 UNL     1      26.547   0.179  52.275  1.00  0.00     0.002 A 
HETATM   21  C16 UNL     1      25.531  -0.465  52.959  1.00  0.00     0.019 A 
HETATM   22  C17 UNL     1      24.324   0.189  53.070  1.00  0.00     0.011 A 
HETATM   23 BR1  UNL     1      22.967  -0.749  54.024  1.00  0.00    -0.051 Br
HETATM   24  C18 UNL     1      24.147   1.427  52.520  1.00  0.00     0.032 A 
ENDBRANCH   5  18
BRANCH   7  25
HETATM   25  N2  UNL     1      22.117   5.858  51.827  1.00  0.00    -0.231 N 
HETATM   26  H17 UNL     1      21.596   6.074  52.707  1.00  0.00     0.174 HD
HETATM   27  H18 UNL     1      21.679   6.229  50.956  1.00  0.00     0.174 HD
ENDBRANCH   7  25
TORSDOF 5
ENDMDL
MODEL 6
REMARK VINA RESULT:      -7.6      6.134      7.963
REMARK  5 active torsions:
REMARK  status: ('A' for Active; 'I' for Inactive)
REMARK    1  A    between atoms: O1_2  and  C2_3 
REMARK    2  A    between atoms: C2_3  and  C3_4 
REMARK    3  A    between atoms: C7_8  and  C8_9 
REMARK    4  A    between atoms: C12_13  and  C13_14 
REMARK    5  A    between atoms: C19_22  and  N2_23 
ROOT
HETATM    1  C8  UNL     1      25.310   3.405  50.509  1.00  0.00     0.095 A 
HETATM    2  C9  UNL     1      26.423   3.071  49.581  1.00  0.00    -0.010 A 
HETATM    3  C10 UNL     1      26.961   4.131  49.002  1.00  0.00     0.013 A 
HETATM    4  C11 UNL     1      26.228   5.284  49.512  1.00  0.00     0.020 A 
HETATM    5  C12 UNL     1      26.506   6.578  49.135  1.00  0.00     0.098 A 
HETATM    6  N1  UNL     1      25.737   7.557  49.699  1.00  0.00    -0.062 NA
HETATM    7  C19 UNL     1      24.768   7.168  50.580  1.00  0.00     0.721 A 
HETATM    8  N3  UNL     1      24.556   5.884  50.899  1.00  0.00    -0.066 NA
HETATM    9  C20 UNL     1      25.252   4.878  50.401  1.00  0.00     0.078 A 
ENDROOT
BRANCH   1  10
HETATM   10  C7  UNL     1      24.071   2.700  50.195  1.00  0.00    -0.040 A 
HETATM   11  C3  UNL     1      23.212   1.774  50.904  1.00  0.00    -0.031 A 
HETATM   12  C4  UNL     1      22.155   1.406  50.153  1.00  0.00    -0.013 A 
HETATM   13  C5  UNL     1      22.218   2.079  48.835  1.00  0.00     0.055 A 
HETATM   14  C6  UNL     1      23.481   2.867  48.994  1.00  0.00    -0.014 A 
BRANCH  11  15
HETATM   15  C2  UNL     1      23.486   1.312  52.263  1.00  0.00     0.205 C 
BRANCH  15  16
HETATM   16  O1  UNL     1      24.635   0.540  52.372  1.00  0.00    -0.391 OA
HETATM   17  C1  UNL     1      24.535  -0.313  53.488  1.00  0.00     0.201 C 
ENDBRANCH  15  16
ENDBRANCH  11  15
ENDBRANCH   1  10
BRANCH   5  18
HETATM   18  C13 UNL     1      27.543   6.981  48.193  1.00  0.00    -0.004 A 
HETATM   19  C14 UNL     1      28.896   6.712  48.225  1.00  0.00     0.014 A 
HETATM   20  C15 UNL     1      29.712   7.193  47.223  1.00  0.00     0.002 A 
HETATM   21  C16 UNL     1      29.230   7.947  46.168  1.00  0.00     0.019 A 
HETATM   22  C17 UNL     1      27.878   8.213  46.142  1.00  0.00     0.011 A 
HETATM   23 BR1  UNL     1      27.275   9.255  44.665  1.00  0.00    -0.051 Br
HETATM   24  C18 UNL     1      27.055   7.744  47.125  1.00  0.00     0.032 A 
ENDBRANCH   5  18
BRANCH   7  25
HETATM   25  N2  UNL     1      23.917   8.142  51.215  1.00  0.00    -0.231 N 
HETATM   26  H17 UNL     1      22.970   8.577  51.147  1.00  0.00     0.174 HD
HETATM   27  H18 UNL     1      24.507   8.497  52.000  1.00  0.00     0.174 HD
ENDBRANCH   7  25
TORSDOF 5
ENDMDL
MODEL 7
REMARK VINA RESULT:      -7.6      3.820      4.564
REMARK  5 active torsions:
REMARK  status: ('A' for Active; 'I' for Inactive)
REMARK    1  A    between atoms: O1_2  and  C2_3 
REMARK    2  A    between atoms: C2_3  and  C3_4 
REMARK    3  A    between atoms: C7_8  and  C8_9 
REMARK    4  A    between atoms: C12_13  and  C13_14 
REMARK    5  A    between atoms: C19_22  and  N2_23 
ROOT
HETATM    1  C8  UNL     1      23.876   1.763  52.822  1.00  0.00     0.095 A 
HETATM    2  C9  UNL     1      24.219   3.135  53.281  1.00  0.00    -0.010 A 
HETATM    3  C10 UNL     1      23.820   4.083  52.450  1.00  0.00     0.013 A 
HETATM    4  C11 UNL     1      23.163   3.397  51.343  1.00  0.00     0.020 A 
HETATM    5  C12 UNL     1      22.611   4.060  50.271  1.00  0.00     0.098 A 
HETATM    6  N1  UNL     1      22.025   3.285  49.310  1.00  0.00    -0.062 NA
HETATM    7  C19 UNL     1      22.039   1.932  49.497  1.00  0.00     0.721 A 
HETATM    8  N3  UNL     1      22.598   1.357  50.570  1.00  0.00    -0.066 NA
HETATM    9  C20 UNL     1      23.184   2.031  51.543  1.00  0.00     0.078 A 
ENDROOT
BRANCH   1  10
HETATM   10  C7  UNL     1      25.034   0.880  52.740  1.00  0.00    -0.040 A 
HETATM   11  C3  UNL     1      26.380   1.003  52.219  1.00  0.00    -0.031 A 
HETATM   12  C4  UNL     1      27.083  -0.134  52.394  1.00  0.00    -0.013 A 
HETATM   13  C5  UNL     1      26.240  -1.146  53.071  1.00  0.00     0.055 A 
HETATM   14  C6  UNL     1      24.968  -0.374  53.230  1.00  0.00    -0.014 A 
BRANCH  11  15
HETATM   15  C2  UNL     1      26.883   2.219  51.586  1.00  0.00     0.205 C 
BRANCH  15  16
HETATM   16  O1  UNL     1      26.468   2.379  50.270  1.00  0.00    -0.391 OA
HETATM   17  C1  UNL     1      26.575   3.733  49.895  1.00  0.00     0.201 C 
ENDBRANCH  15  16
ENDBRANCH  11  15
ENDBRANCH   1  10
BRANCH   5  18
HETATM   18  C13 UNL     1      22.601   5.506  50.083  1.00  0.00    -0.004 A 
HETATM   19  C14 UNL     1      21.792   6.453  50.676  1.00  0.00     0.014 A 
HETATM   20  C15 UNL     1      21.950   7.785  50.354  1.00  0.00     0.002 A 
HETATM   21  C16 UNL     1      22.899   8.225  49.448  1.00  0.00     0.019 A 
HETATM   22  C17 UNL     1      23.705   7.274  48.860  1.00  0.00     0.011 A 
HETATM   23 BR1  UNL     1      24.991   7.941  47.623  1.00  0.00    -0.051 Br
HETATM   24  C18 UNL     1      23.562   5.951  49.166  1.00  0.00     0.032 A 
ENDBRANCH   5  18
BRANCH   7  25
HETATM   25  N2  UNL     1      21.442   1.049  48.527  1.00  0.00    -0.231 N 
HETATM   26  H17 UNL     1      21.486   0.069  48.168  1.00  0.00     0.174 HD
HETATM   27  H18 UNL     1      20.735   1.656  48.057  1.00  0.00     0.174 HD
ENDBRANCH   7  25
TORSDOF 5
ENDMDL
MODEL 8
REMARK VINA RESULT:      -7.6      2.580      3.972
REMARK  5 active torsions:
REMARK  status: ('A' for Active; 'I' for Inactive)
REMARK    1  A    between atoms: O1_2  and  C2_3 
REMARK    2  A    between atoms: C2_3  and  C3_4 
REMARK    3  A    between atoms: C7_8  and  C8_9 
REMARK    4  A    between atoms: C12_13  and  C13_14 
REMARK    5  A    between atoms: C19_22  and  N2_23 
ROOT
HETATM    1  C8  UNL     1      23.272   0.599  52.238  1.00  0.00     0.095 A 
HETATM    2  C9  UNL     1      22.037   0.184  51.522  1.00  0.00    -0.010 A 
HETATM    3  C10 UNL     1      21.215   1.188  51.265  1.00  0.00     0.013 A 
HETATM    4  C11 UNL     1      21.857   2.381  51.805  1.00  0.00     0.020 A 
HETATM    5  C12 UNL     1      21.297   3.636  51.726  1.00  0.00     0.098 A 
HETATM    6  N1  UNL     1      22.016   4.661  52.274  1.00  0.00    -0.062 NA
HETATM    7  C19 UNL     1      23.217   4.352  52.847  1.00  0.00     0.721 A 
HETATM    8  N3  UNL     1      23.699   3.102  52.886  1.00  0.00    -0.066 NA
HETATM    9  C20 UNL     1      23.069   2.056  52.382  1.00  0.00     0.078 A 
ENDROOT
BRANCH   1  10
HETATM   10  C7  UNL     1      23.487  -0.133  53.482  1.00  0.00    -0.040 A 
HETATM   11  C3  UNL     1      24.644  -0.457  54.292  1.00  0.00    -0.031 A 
HETATM   12  C4  UNL     1      24.300  -1.174  55.380  1.00  0.00    -0.013 A 
HETATM   13  C5  UNL     1      22.835  -1.395  55.393  1.00  0.00     0.055 A 
HETATM   14  C6  UNL     1      22.445  -0.686  54.133  1.00  0.00    -0.014 A 
BRANCH  11  15
HETATM   15  C2  UNL     1      26.002  -0.047  53.944  1.00  0.00     0.205 C 
BRANCH  15  16
HETATM   16  O1  UNL     1      26.938  -0.306  54.938  1.00  0.00    -0.391 OA
HETATM   17  C1  UNL     1      28.223   0.061  54.493  1.00  0.00     0.201 C 
ENDBRANCH  15  16
ENDBRANCH  11  15
ENDBRANCH   1  10
BRANCH   5  18
HETATM   18  C13 UNL     1      20.014   3.953  51.111  1.00  0.00    -0.004 A 
HETATM   19  C14 UNL     1      18.742   3.636  51.544  1.00  0.00     0.014 A 
HETATM   20  C15 UNL     1      17.649   4.037  50.805  1.00  0.00     0.002 A 
HETATM   21  C16 UNL     1      17.769   4.755  49.628  1.00  0.00     0.019 A 
HETATM   22  C17 UNL     1      19.042   5.069  49.201  1.00  0.00     0.011 A 
HETATM   23 BR1  UNL     1      19.141   6.058  47.576  1.00  0.00    -0.051 Br
HETATM   24  C18 UNL     1      20.135   4.680  49.921  1.00  0.00     0.032 A 
ENDBRANCH   5  18
BRANCH   7  25
HETATM   25  N2  UNL     1      24.032   5.379  53.446  1.00  0.00    -0.231 N 
HETATM   26  H17 UNL     1      24.495   5.643  54.344  1.00  0.00     0.174 HD
HETATM   27  H18 UNL     1      24.169   6.058  52.666  1.00  0.00     0.174 HD
ENDBRANCH   7  25
TORSDOF 5
ENDMDL
MODEL 9
REMARK VINA RESULT:      -7.5      4.216      7.696
REMARK  5 active torsions:
REMARK  status: ('A' for Active; 'I' for Inactive)
REMARK    1  A    between atoms: O1_2  and  C2_3 
REMARK    2  A    between atoms: C2_3  and  C3_4 
REMARK    3  A    between atoms: C7_8  and  C8_9 
REMARK    4  A    between atoms: C12_13  and  C13_14 
REMARK    5  A    between atoms: C19_22  and  N2_23 
ROOT
HETATM    1  C8  UNL     1      24.406   3.612  49.702  1.00  0.00     0.095 A 
HETATM    2  C9  UNL     1      25.890   3.683  49.644  1.00  0.00    -0.010 A 
HETATM    3  C10 UNL     1      26.488   2.980  50.591  1.00  0.00     0.013 A 
HETATM    4  C11 UNL     1      25.419   2.369  51.374  1.00  0.00     0.020 A 
HETATM    5  C12 UNL     1      25.654   1.553  52.458  1.00  0.00     0.098 A 
HETATM    6  N1  UNL     1      24.554   1.050  53.093  1.00  0.00    -0.062 NA
HETATM    7  C19 UNL     1      23.328   1.398  52.600  1.00  0.00     0.721 A 
HETATM    8  N3  UNL     1      23.178   2.200  51.537  1.00  0.00    -0.066 NA
HETATM    9  C20 UNL     1      24.186   2.728  50.867  1.00  0.00     0.078 A 
ENDROOT
BRANCH   1  10
HETATM   10  C7  UNL     1      23.772   4.924  49.777  1.00  0.00    -0.040 A 
HETATM   11  C3  UNL     1      22.543   5.496  49.267  1.00  0.00    -0.031 A 
HETATM   12  C4  UNL     1      22.413   6.789  49.628  1.00  0.00    -0.013 A 
HETATM   13  C5  UNL     1      23.582   7.203  50.439  1.00  0.00     0.055 A 
HETATM   14  C6  UNL     1      24.364   5.927  50.454  1.00  0.00    -0.014 A 
BRANCH  11  15
HETATM   15  C2  UNL     1      21.585   4.744  48.462  1.00  0.00     0.205 C 
BRANCH  15  16
HETATM   16  O1  UNL     1      20.372   4.514  49.101  1.00  0.00    -0.391 OA
HETATM   17  C1  UNL     1      20.292   3.168  49.506  1.00  0.00     0.201 C 
ENDBRANCH  15  16
ENDBRANCH  11  15
ENDBRANCH   1  10
BRANCH   5  18
HETATM   18  C13 UNL     1      26.968   1.189  52.974  1.00  0.00    -0.004 A 
HETATM   19  C14 UNL     1      27.924   1.993  53.560  1.00  0.00     0.014 A 
HETATM   20  C15 UNL     1      29.115   1.442  53.985  1.00  0.00     0.002 A 
HETATM   21  C16 UNL     1      29.401   0.095  53.848  1.00  0.00     0.019 A 
HETATM   22  C17 UNL     1      28.443  -0.703  53.262  1.00  0.00     0.011 A 
HETATM   23 BR1  UNL     1      28.896  -2.547  53.103  1.00  0.00    -0.051 Br
HETATM   24  C18 UNL     1      27.259  -0.174  52.836  1.00  0.00     0.032 A 
ENDBRANCH   5  18
BRANCH   7  25
HETATM   25  N2  UNL     1      22.122   0.907  53.216  1.00  0.00    -0.231 N 
HETATM   26  H17 UNL     1      21.350   1.194  53.860  1.00  0.00     0.174 HD
HETATM   27  H18 UNL     1      22.053  -0.070  52.858  1.00  0.00     0.174 HD
ENDBRANCH   7  25
TORSDOF 5
ENDMDL
