MODEL 1
REMARK VINA RESULT:      -7.4      0.000      0.000
REMARK  6 active torsions:
REMARK  status: ('A' for Active; 'I' for Inactive)
REMARK    1  A    between atoms: C3_3  and  C4_4 
REMARK    2  A    between atoms: C9_9  and  N1_10 
REMARK    3  A    between atoms: N1_10  and  O1_11 
REMARK    4  A    between atoms: O1_11  and  C10_12 
REMARK    5  A    between atoms: C10_12  and  C11_13 
REMARK    6  A    between atoms: C14_16  and  O2_17 
ROOT
HETATM    1  N1  UNL     1      22.610   3.456  52.201  1.00  0.00    -0.269 N 
HETATM    2  H11 UNL     1      21.667   3.084  52.507  1.00  0.00     0.194 HD
ENDROOT
BRANCH   1   3
HETATM    3  C9  UNL     1      23.538   2.389  52.471  1.00  0.00     0.054 C 
HETATM    4  C8  UNL     1      23.264   1.060  51.833  1.00  0.00     0.065 C 
HETATM    5  C7  UNL     1      22.679   0.158  52.860  1.00  0.00     0.034 C 
HETATM    6  C6  UNL     1      23.642  -0.536  53.731  1.00  0.00    -0.011 C 
HETATM    7  C5  UNL     1      24.938  -0.477  53.723  1.00  0.00     0.007 C 
HETATM    8  C4  UNL     1      25.668   0.533  54.067  1.00  0.00     0.085 C 
HETATM    9  O3  UNL     1      25.611   1.872  53.709  1.00  0.00    -0.320 OA
HETATM   10  C18 UNL     1      24.571   2.680  53.274  1.00  0.00     0.169 C 
BRANCH   8  11
HETATM   11  C3  UNL     1      26.741   0.193  54.996  1.00  0.00     0.034 C 
HETATM   12  C2  UNL     1      28.013   0.129  54.641  1.00  0.00    -0.028 C 
HETATM   13  C1  UNL     1      28.474   0.398  53.259  1.00  0.00     0.036 C 
ENDBRANCH   8  11
ENDBRANCH   1   3
BRANCH   1  14
HETATM   14  O1  UNL     1      23.292   4.496  51.672  1.00  0.00    -0.276 OA
BRANCH  14  15
HETATM   15  C10 UNL     1      23.293   4.468  50.268  1.00  0.00     0.239 C 
BRANCH  15  16
HETATM   16  C11 UNL     1      24.668   4.642  49.760  1.00  0.00    -0.032 A 
HETATM   17  C12 UNL     1      25.158   5.848  49.291  1.00  0.00     0.012 A 
HETATM   18  C13 UNL     1      26.472   5.875  48.841  1.00  0.00     0.037 A 
HETATM   19  C14 UNL     1      27.307   4.771  48.839  1.00  0.00     0.068 A 
HETATM   20  C16 UNL     1      26.800   3.580  49.310  1.00  0.00     0.037 A 
HETATM   21  C17 UNL     1      25.504   3.551  49.755  1.00  0.00     0.012 A 
BRANCH  19  22
HETATM   22  O2  UNL     1      28.586   4.916  48.371  1.00  0.00    -0.356 OA
HETATM   23  C15 UNL     1      29.050   6.210  47.991  1.00  0.00     0.210 C 
ENDBRANCH  19  22
ENDBRANCH  15  16
ENDBRANCH  14  15
ENDBRANCH   1  14
TORSDOF 6
ENDMDL
MODEL 2
REMARK VINA RESULT:      -7.4      3.829      6.889
REMARK  6 active torsions:
REMARK  status: ('A' for Active; 'I' for Inactive)
REMARK    1  A    between atoms: C3_3  and  C4_4 
REMARK    2  A    between atoms: C9_9  and  N1_10 
REMARK    3  A    between atoms: N1_10  and  O1_11 
REMARK    4  A    between atoms: O1_11  and  C10_12 
REMARK    5  A    between atoms: C10_12  and  C11_13 
REMARK    6  A    between atoms: C14_16  and  O2_17 
ROOT
HETATM    1  N1  UNL     1      23.275  -0.802  53.597  1.00  0.00    -0.269 N 
HETATM    2  H11 UNL     1      23.537  -1.828  53.562  1.00  0.00     0.194 HD
ENDROOT
BRANCH   1   3
HETATM    3  C9  UNL     1      24.527  -0.100  53.708  1.00  0.00     0.054 C 
HETATM    4  C8  UNL     1      24.598   1.278  53.123  1.00  0.00     0.065 C 
HETATM    5  C7  UNL     1      25.315   1.199  51.823  1.00  0.00     0.034 C 
HETATM    6  C6  UNL     1      26.786   1.229  51.897  1.00  0.00    -0.011 C 
HETATM    7  C5  UNL     1      27.548   1.322  52.941  1.00  0.00     0.007 C 
HETATM    8  C4  UNL     1      27.726   0.422  53.853  1.00  0.00     0.085 C 
HETATM    9  O3  UNL     1      26.823  -0.333  54.586  1.00  0.00    -0.320 OA
HETATM   10  C18 UNL     1      25.524  -0.746  54.330  1.00  0.00     0.169 C 
BRANCH   8  11
HETATM   11  C3  UNL     1      29.129   0.163  54.155  1.00  0.00     0.034 C 
HETATM   12  C2  UNL     1      29.749  -0.954  53.814  1.00  0.00    -0.028 C 
HETATM   13  C1  UNL     1      29.074  -2.055  53.088  1.00  0.00     0.036 C 
ENDBRANCH   8  11
ENDBRANCH   1   3
BRANCH   1  14
HETATM   14  O1  UNL     1      22.272   0.104  53.581  1.00  0.00    -0.276 OA
BRANCH  14  15
HETATM   15  C10 UNL     1      21.095  -0.402  54.156  1.00  0.00     0.239 C 
BRANCH  15  16
HETATM   16  C11 UNL     1      19.993  -0.353  53.174  1.00  0.00    -0.032 A 
HETATM   17  C12 UNL     1      18.792  -1.020  53.345  1.00  0.00     0.012 A 
HETATM   18  C13 UNL     1      17.839  -0.891  52.344  1.00  0.00     0.037 A 
HETATM   19  C14 UNL     1      18.025  -0.138  51.197  1.00  0.00     0.068 A 
HETATM   20  C16 UNL     1      19.226   0.517  51.046  1.00  0.00     0.037 A 
HETATM   21  C17 UNL     1      20.169   0.392  52.033  1.00  0.00     0.012 A 
BRANCH  19  22
HETATM   22  O2  UNL     1      17.012  -0.083  50.277  1.00  0.00    -0.356 OA
HETATM   23  C15 UNL     1      16.830   1.103  49.506  1.00  0.00     0.210 C 
ENDBRANCH  19  22
ENDBRANCH  15  16
ENDBRANCH  14  15
ENDBRANCH   1  14
TORSDOF 6
ENDMDL
MODEL 3
REMARK VINA RESULT:      -7.3      1.597      2.222
REMARK  6 active torsions:
REMARK  status: ('A' for Active; 'I' for Inactive)
REMARK    1  A    between atoms: C3_3  and  C4_4 
REMARK    2  A    between atoms: C9_9  and  N1_10 
REMARK    3  A    between atoms: N1_10  and  O1_11 
REMARK    4  A    between atoms: O1_11  and  C10_12 
REMARK    5  A    between atoms: C10_12  and  C11_13 
REMARK    6  A    between atoms: C14_16  and  O2_17 
ROOT
HETATM    1  N1  UNL     1      24.860   3.762  51.478  1.00  0.00    -0.269 N 
HETATM    2  H11 UNL     1      24.775   4.160  52.456  1.00  0.00     0.194 HD
ENDROOT
BRANCH   1   3
HETATM    3  C9  UNL     1      25.245   2.388  51.666  1.00  0.00     0.054 C 
HETATM    4  C8  UNL     1      24.147   1.369  51.738  1.00  0.00     0.065 C 
HETATM    5  C7  UNL     1      23.944   1.000  53.164  1.00  0.00     0.034 C 
HETATM    6  C6  UNL     1      24.846  -0.036  53.694  1.00  0.00    -0.011 C 
HETATM    7  C5  UNL     1      25.794  -0.680  53.088  1.00  0.00     0.007 C 
HETATM    8  C4  UNL     1      26.923  -0.196  52.684  1.00  0.00     0.085 C 
HETATM    9  O3  UNL     1      27.223   0.935  51.938  1.00  0.00    -0.320 OA
HETATM   10  C18 UNL     1      26.559   2.140  51.759  1.00  0.00     0.169 C 
BRANCH   8  11
HETATM   11  C3  UNL     1      28.080  -0.987  53.088  1.00  0.00     0.034 C 
HETATM   12  C2  UNL     1      28.984  -0.558  53.953  1.00  0.00    -0.028 C 
HETATM   13  C1  UNL     1      28.907   0.773  54.598  1.00  0.00     0.036 C 
ENDBRANCH   8  11
ENDBRANCH   1   3
BRANCH   1  14
HETATM   14  O1  UNL     1      24.759   4.005  50.152  1.00  0.00    -0.276 OA
BRANCH  14  15
HETATM   15  C10 UNL     1      24.873   5.373  49.855  1.00  0.00     0.239 C 
BRANCH  15  16
HETATM   16  C11 UNL     1      26.192   5.650  49.252  1.00  0.00    -0.032 A 
HETATM   17  C12 UNL     1      27.110   4.660  48.946  1.00  0.00     0.012 A 
HETATM   18  C13 UNL     1      28.315   5.057  48.381  1.00  0.00     0.037 A 
HETATM   19  C14 UNL     1      28.641   6.375  48.111  1.00  0.00     0.068 A 
HETATM   20  C16 UNL     1      27.714   7.343  48.423  1.00  0.00     0.037 A 
HETATM   21  C17 UNL     1      26.523   6.955  48.981  1.00  0.00     0.012 A 
BRANCH  19  22
HETATM   22  O2  UNL     1      29.861   6.647  47.551  1.00  0.00    -0.356 OA
HETATM   23  C15 UNL     1      30.804   7.435  48.276  1.00  0.00     0.210 C 
ENDBRANCH  19  22
ENDBRANCH  15  16
ENDBRANCH  14  15
ENDBRANCH   1  14
TORSDOF 6
ENDMDL
MODEL 4
REMARK VINA RESULT:      -7.3      3.408      4.788
REMARK  6 active torsions:
REMARK  status: ('A' for Active; 'I' for Inactive)
REMARK    1  A    between atoms: C3_3  and  C4_4 
REMARK    2  A    between atoms: C9_9  and  N1_10 
REMARK    3  A    between atoms: N1_10  and  O1_11 
REMARK    4  A    between atoms: O1_11  and  C10_12 
REMARK    5  A    between atoms: C10_12  and  C11_13 
REMARK    6  A    between atoms: C14_16  and  O2_17 
ROOT
HETATM    1  N1  UNL     1      23.082  -0.900  53.703  1.00  0.00    -0.269 N 
HETATM    2  H11 UNL     1      23.348  -1.840  53.293  1.00  0.00     0.194 HD
ENDROOT
BRANCH   1   3
HETATM    3  C9  UNL     1      24.321  -0.176  53.810  1.00  0.00     0.054 C 
HETATM    4  C8  UNL     1      24.398   1.162  53.138  1.00  0.00     0.065 C 
HETATM    5  C7  UNL     1      25.161   1.007  51.871  1.00  0.00     0.034 C 
HETATM    6  C6  UNL     1      26.627   1.062  51.993  1.00  0.00    -0.011 C 
HETATM    7  C5  UNL     1      27.351   1.234  53.055  1.00  0.00     0.007 C 
HETATM    8  C4  UNL     1      27.507   0.398  54.029  1.00  0.00     0.085 C 
HETATM    9  O3  UNL     1      26.588  -0.319  54.780  1.00  0.00    -0.320 OA
HETATM   10  C18 UNL     1      25.303  -0.766  54.507  1.00  0.00     0.169 C 
BRANCH   8  11
HETATM   11  C3  UNL     1      28.902   0.178  54.396  1.00  0.00     0.034 C 
HETATM   12  C2  UNL     1      29.605  -0.860  53.977  1.00  0.00    -0.028 C 
HETATM   13  C1  UNL     1      29.042  -1.905  53.091  1.00  0.00     0.036 C 
ENDBRANCH   8  11
ENDBRANCH   1   3
BRANCH   1  14
HETATM   14  O1  UNL     1      22.081  -0.114  54.158  1.00  0.00    -0.276 OA
BRANCH  14  15
HETATM   15  C10 UNL     1      20.936  -0.195  53.349  1.00  0.00     0.239 C 
BRANCH  15  16
HETATM   16  C11 UNL     1      21.023   0.790  52.253  1.00  0.00    -0.032 A 
HETATM   17  C12 UNL     1      20.870   2.153  52.441  1.00  0.00     0.012 A 
HETATM   18  C13 UNL     1      20.975   2.970  51.323  1.00  0.00     0.037 A 
HETATM   19  C14 UNL     1      21.223   2.499  50.046  1.00  0.00     0.068 A 
HETATM   20  C16 UNL     1      21.372   1.140  49.880  1.00  0.00     0.037 A 
HETATM   21  C17 UNL     1      21.269   0.330  50.981  1.00  0.00     0.012 A 
BRANCH  19  22
HETATM   22  O2  UNL     1      21.306   3.400  49.018  1.00  0.00    -0.356 OA
HETATM   23  C15 UNL     1      22.569   3.647  48.404  1.00  0.00     0.210 C 
ENDBRANCH  19  22
ENDBRANCH  15  16
ENDBRANCH  14  15
ENDBRANCH   1  14
TORSDOF 6
ENDMDL
MODEL 5
REMARK VINA RESULT:      -7.2      1.921      3.548
REMARK  6 active torsions:
REMARK  status: ('A' for Active; 'I' for Inactive)
REMARK    1  A    between atoms: C3_3  and  C4_4 
REMARK    2  A    between atoms: C9_9  and  N1_10 
REMARK    3  A    between atoms: N1_10  and  O1_11 
REMARK    4  A    between atoms: O1_11  and  C10_12 
REMARK    5  A    between atoms: C10_12  and  C11_13 
REMARK    6  A    between atoms: C14_16  and  O2_17 
ROOT
HETATM    1  N1  UNL     1      26.396   3.000  51.651  1.00  0.00    -0.269 N 
HETATM    2  H11 UNL     1      27.336   3.044  52.137  1.00  0.00     0.194 HD
ENDROOT
BRANCH   1   3
HETATM    3  C9  UNL     1      25.589   2.140  52.478  1.00  0.00     0.054 C 
HETATM    4  C8  UNL     1      26.084   1.855  53.864  1.00  0.00     0.065 C 
HETATM    5  C7  UNL     1      26.682   0.494  53.877  1.00  0.00     0.034 C 
HETATM    6  C6  UNL     1      25.738  -0.622  54.059  1.00  0.00    -0.011 C 
HETATM    7  C5  UNL     1      24.452  -0.584  54.217  1.00  0.00     0.007 C 
HETATM    8  C4  UNL     1      23.572  -0.255  53.328  1.00  0.00     0.085 C 
HETATM    9  O3  UNL     1      23.493   0.835  52.474  1.00  0.00    -0.320 OA
HETATM   10  C18 UNL     1      24.459   1.670  51.931  1.00  0.00     0.169 C 
BRANCH   8  11
HETATM   11  C3  UNL     1      22.471  -1.205  53.212  1.00  0.00     0.034 C 
HETATM   12  C2  UNL     1      21.314  -1.051  53.833  1.00  0.00    -0.028 C 
HETATM   13  C1  UNL     1      21.022   0.106  54.710  1.00  0.00     0.036 C 
ENDBRANCH   8  11
ENDBRANCH   1   3
BRANCH   1  14
HETATM   14  O1  UNL     1      25.653   3.407  50.598  1.00  0.00    -0.276 OA
BRANCH  14  15
HETATM   15  C10 UNL     1      26.386   3.395  49.400  1.00  0.00     0.239 C 
BRANCH  15  16
HETATM   16  C11 UNL     1      26.829   4.763  49.065  1.00  0.00    -0.032 A 
HETATM   17  C12 UNL     1      26.045   5.886  49.266  1.00  0.00     0.012 A 
HETATM   18  C13 UNL     1      26.583   7.115  48.908  1.00  0.00     0.037 A 
HETATM   19  C14 UNL     1      27.847   7.274  48.368  1.00  0.00     0.068 A 
HETATM   20  C16 UNL     1      28.610   6.144  48.175  1.00  0.00     0.037 A 
HETATM   21  C17 UNL     1      28.083   4.929  48.528  1.00  0.00     0.012 A 
BRANCH  19  22
HETATM   22  O2  UNL     1      28.273   8.536  48.052  1.00  0.00    -0.356 OA
HETATM   23  C15 UNL     1      28.788   9.379  49.081  1.00  0.00     0.210 C 
ENDBRANCH  19  22
ENDBRANCH  15  16
ENDBRANCH  14  15
ENDBRANCH   1  14
TORSDOF 6
ENDMDL
MODEL 6
REMARK VINA RESULT:      -7.1      1.709      6.721
REMARK  6 active torsions:
REMARK  status: ('A' for Active; 'I' for Inactive)
REMARK    1  A    between atoms: C3_3  and  C4_4 
REMARK    2  A    between atoms: C9_9  and  N1_10 
REMARK    3  A    between atoms: N1_10  and  O1_11 
REMARK    4  A    between atoms: O1_11  and  C10_12 
REMARK    5  A    between atoms: C10_12  and  C11_13 
REMARK    6  A    between atoms: C14_16  and  O2_17 
ROOT
HETATM    1  N1  UNL     1      23.227   4.242  51.456  1.00  0.00    -0.269 N 
HETATM    2  H11 UNL     1      22.265   4.503  51.097  1.00  0.00     0.194 HD
ENDROOT
BRANCH   1   3
HETATM    3  C9  UNL     1      24.142   4.717  50.451  1.00  0.00     0.054 C 
HETATM    4  C8  UNL     1      24.576   3.742  49.399  1.00  0.00     0.065 C 
HETATM    5  C7  UNL     1      25.948   3.274  49.732  1.00  0.00     0.034 C 
HETATM    6  C6  UNL     1      27.050   4.142  49.283  1.00  0.00    -0.011 C 
HETATM    7  C5  UNL     1      26.993   5.260  48.631  1.00  0.00     0.007 C 
HETATM    8  C4  UNL     1      26.554   6.393  49.073  1.00  0.00     0.085 C 
HETATM    9  O3  UNL     1      25.383   6.729  49.737  1.00  0.00    -0.320 OA
HETATM   10  C18 UNL     1      24.525   5.998  50.546  1.00  0.00     0.169 C 
BRANCH   8  11
HETATM   11  C3  UNL     1      27.458   7.511  48.823  1.00  0.00     0.034 C 
HETATM   12  C2  UNL     1      27.337   8.321  47.785  1.00  0.00    -0.028 C 
HETATM   13  C1  UNL     1      26.267   8.172  46.771  1.00  0.00     0.036 C 
ENDBRANCH   8  11
ENDBRANCH   1   3
BRANCH   1  14
HETATM   14  O1  UNL     1      23.939   3.660  52.447  1.00  0.00    -0.276 OA
BRANCH  14  15
HETATM   15  C10 UNL     1      23.517   2.344  52.698  1.00  0.00     0.239 C 
BRANCH  15  16
HETATM   16  C11 UNL     1      24.651   1.536  53.190  1.00  0.00    -0.032 A 
HETATM   17  C12 UNL     1      24.576   0.170  53.399  1.00  0.00     0.012 A 
HETATM   18  C13 UNL     1      25.717  -0.470  53.865  1.00  0.00     0.037 A 
HETATM   19  C14 UNL     1      26.911   0.179  54.127  1.00  0.00     0.068 A 
HETATM   20  C16 UNL     1      26.964   1.538  53.913  1.00  0.00     0.037 A 
HETATM   21  C17 UNL     1      25.840   2.174  53.453  1.00  0.00     0.012 A 
BRANCH  19  22
HETATM   22  O2  UNL     1      27.971  -0.556  54.584  1.00  0.00    -0.356 OA
HETATM   23  C15 UNL     1      29.149  -0.658  53.786  1.00  0.00     0.210 C 
ENDBRANCH  19  22
ENDBRANCH  15  16
ENDBRANCH  14  15
ENDBRANCH   1  14
TORSDOF 6
ENDMDL
MODEL 7
REMARK VINA RESULT:      -6.9      2.282      6.322
REMARK  6 active torsions:
REMARK  status: ('A' for Active; 'I' for Inactive)
REMARK    1  A    between atoms: C3_3  and  C4_4 
REMARK    2  A    between atoms: C9_9  and  N1_10 
REMARK    3  A    between atoms: N1_10  and  O1_11 
REMARK    4  A    between atoms: O1_11  and  C10_12 
REMARK    5  A    between atoms: C10_12  and  C11_13 
REMARK    6  A    between atoms: C14_16  and  O2_17 
ROOT
HETATM    1  N1  UNL     1      19.619   3.030  52.044  1.00  0.00    -0.269 N 
HETATM    2  H11 UNL     1      18.667   3.366  51.722  1.00  0.00     0.194 HD
ENDROOT
BRANCH   1   3
HETATM    3  C9  UNL     1      20.510   3.332  50.954  1.00  0.00     0.054 C 
HETATM    4  C8  UNL     1      20.186   2.741  49.615  1.00  0.00     0.065 C 
HETATM    5  C7  UNL     1      21.084   1.578  49.387  1.00  0.00     0.034 C 
HETATM    6  C6  UNL     1      22.418   1.892  48.849  1.00  0.00    -0.011 C 
HETATM    7  C5  UNL     1      22.921   3.046  48.537  1.00  0.00     0.007 C 
HETATM    8  C4  UNL     1      23.254   3.991  49.354  1.00  0.00     0.085 C 
HETATM    9  O3  UNL     1      22.568   4.581  50.406  1.00  0.00    -0.320 OA
HETATM   10  C18 UNL     1      21.556   4.122  51.236  1.00  0.00     0.169 C 
BRANCH   8  11
HETATM   11  C3  UNL     1      24.591   4.526  49.119  1.00  0.00     0.034 C 
HETATM   12  C2  UNL     1      25.671   4.070  49.731  1.00  0.00    -0.028 C 
HETATM   13  C1  UNL     1      25.627   2.966  50.719  1.00  0.00     0.036 C 
ENDBRANCH   8  11
ENDBRANCH   1   3
BRANCH   1  14
HETATM   14  O1  UNL     1      20.330   2.447  53.034  1.00  0.00    -0.276 OA
BRANCH  14  15
HETATM   15  C10 UNL     1      20.295   1.045  52.955  1.00  0.00     0.239 C 
BRANCH  15  16
HETATM   16  C11 UNL     1      21.597   0.484  53.367  1.00  0.00    -0.032 A 
HETATM   17  C12 UNL     1      21.729  -0.504  54.327  1.00  0.00     0.012 A 
HETATM   18  C13 UNL     1      23.013  -0.944  54.622  1.00  0.00     0.037 A 
HETATM   19  C14 UNL     1      24.154  -0.451  54.013  1.00  0.00     0.068 A 
HETATM   20  C16 UNL     1      24.001   0.533  53.062  1.00  0.00     0.037 A 
HETATM   21  C17 UNL     1      22.735   0.969  52.768  1.00  0.00     0.012 A 
BRANCH  19  22
HETATM   22  O2  UNL     1      25.369  -0.961  54.385  1.00  0.00    -0.356 OA
HETATM   23  C15 UNL     1      26.447  -0.069  54.663  1.00  0.00     0.210 C 
ENDBRANCH  19  22
ENDBRANCH  15  16
ENDBRANCH  14  15
ENDBRANCH   1  14
TORSDOF 6
ENDMDL
MODEL 8
REMARK VINA RESULT:      -6.7      1.966      2.969
REMARK  6 active torsions:
REMARK  status: ('A' for Active; 'I' for Inactive)
REMARK    1  A    between atoms: C3_3  and  C4_4 
REMARK    2  A    between atoms: C9_9  and  N1_10 
REMARK    3  A    between atoms: N1_10  and  O1_11 
REMARK    4  A    between atoms: O1_11  and  C10_12 
REMARK    5  A    between atoms: C10_12  and  C11_13 
REMARK    6  A    between atoms: C14_16  and  O2_17 
ROOT
HETATM    1  N1  UNL     1      24.808   4.448  49.660  1.00  0.00    -0.269 N 
HETATM    2  H11 UNL     1      23.880   4.281  49.177  1.00  0.00     0.194 HD
ENDROOT
BRANCH   1   3
HETATM    3  C9  UNL     1      25.084   3.227  50.370  1.00  0.00     0.054 C 
HETATM    4  C8  UNL     1      23.911   2.462  50.906  1.00  0.00     0.065 C 
HETATM    5  C7  UNL     1      23.812   2.719  52.367  1.00  0.00     0.034 C 
HETATM    6  C6  UNL     1      24.664   1.879  53.226  1.00  0.00    -0.011 C 
HETATM    7  C5  UNL     1      25.488   0.937  52.887  1.00  0.00     0.007 C 
HETATM    8  C4  UNL     1      26.612   1.080  52.263  1.00  0.00     0.085 C 
HETATM    9  O3  UNL     1      26.939   1.774  51.108  1.00  0.00    -0.320 OA
HETATM   10  C18 UNL     1      26.373   2.879  50.489  1.00  0.00     0.169 C 
BRANCH   8  11
HETATM   11  C3  UNL     1      27.726   0.381  52.894  1.00  0.00     0.034 C 
HETATM   12  C2  UNL     1      28.691   1.002  53.551  1.00  0.00    -0.028 C 
HETATM   13  C1  UNL     1      28.734   2.474  53.710  1.00  0.00     0.036 C 
ENDBRANCH   8  11
ENDBRANCH   1   3
BRANCH   1  14
HETATM   14  O1  UNL     1      25.822   5.314  49.881  1.00  0.00    -0.276 OA
BRANCH  14  15
HETATM   15  C10 UNL     1      25.913   6.289  48.874  1.00  0.00     0.239 C 
BRANCH  15  16
HETATM   16  C11 UNL     1      27.314   6.425  48.428  1.00  0.00    -0.032 A 
HETATM   17  C12 UNL     1      27.858   7.618  47.985  1.00  0.00     0.012 A 
HETATM   18  C13 UNL     1      29.190   7.608  47.593  1.00  0.00     0.037 A 
HETATM   19  C14 UNL     1      29.993   6.481  47.624  1.00  0.00     0.068 A 
HETATM   20  C16 UNL     1      29.432   5.304  48.069  1.00  0.00     0.037 A 
HETATM   21  C17 UNL     1      28.117   5.310  48.456  1.00  0.00     0.012 A 
BRANCH  19  22
HETATM   22  O2  UNL     1      31.295   6.590  47.214  1.00  0.00    -0.356 OA
HETATM   23  C15 UNL     1      31.741   7.808  46.620  1.00  0.00     0.210 C 
ENDBRANCH  19  22
ENDBRANCH  15  16
ENDBRANCH  14  15
ENDBRANCH   1  14
TORSDOF 6
ENDMDL
MODEL 9
REMARK VINA RESULT:      -6.7      1.989      3.563
REMARK  6 active torsions:
REMARK  status: ('A' for Active; 'I' for Inactive)
REMARK    1  A    between atoms: C3_3  and  C4_4 
REMARK    2  A    between atoms: C9_9  and  N1_10 
REMARK    3  A    between atoms: N1_10  and  O1_11 
REMARK    4  A    between atoms: O1_11  and  C10_12 
REMARK    5  A    between atoms: C10_12  and  C11_13 
REMARK    6  A    between atoms: C14_16  and  O2_17 
ROOT
HETATM    1  N1  UNL     1      24.279   3.243  49.726  1.00  0.00    -0.269 N 
HETATM    2  H11 UNL     1      23.623   2.828  49.005  1.00  0.00     0.194 HD
ENDROOT
BRANCH   1   3
HETATM    3  C9  UNL     1      24.072   2.455  50.914  1.00  0.00     0.054 C 
HETATM    4  C8  UNL     1      25.062   2.616  52.028  1.00  0.00     0.065 C 
HETATM    5  C7  UNL     1      25.986   1.451  52.004  1.00  0.00     0.034 C 
HETATM    6  C6  UNL     1      25.511   0.239  52.694  1.00  0.00    -0.011 C 
HETATM    7  C5  UNL     1      24.396   0.046  53.328  1.00  0.00     0.007 C 
HETATM    8  C4  UNL     1      23.215  -0.035  52.809  1.00  0.00     0.085 C 
HETATM    9  O3  UNL     1      22.551   0.781  51.904  1.00  0.00    -0.320 OA
HETATM   10  C18 UNL     1      23.004   1.645  50.918  1.00  0.00     0.169 C 
BRANCH   8  11
HETATM   11  C3  UNL     1      22.452  -1.193  53.263  1.00  0.00     0.034 C 
HETATM   12  C2  UNL     1      21.488  -1.116  54.165  1.00  0.00    -0.028 C 
HETATM   13  C1  UNL     1      21.087   0.159  54.804  1.00  0.00     0.036 C 
ENDBRANCH   8  11
ENDBRANCH   1   3
BRANCH   1  14
HETATM   14  O1  UNL     1      25.211   4.184  49.990  1.00  0.00    -0.276 OA
BRANCH  14  15
HETATM   15  C10 UNL     1      25.181   5.233  49.056  1.00  0.00     0.239 C 
BRANCH  15  16
HETATM   16  C11 UNL     1      26.553   5.707  48.786  1.00  0.00    -0.032 A 
HETATM   17  C12 UNL     1      27.633   4.857  48.623  1.00  0.00     0.012 A 
HETATM   18  C13 UNL     1      28.871   5.434  48.373  1.00  0.00     0.037 A 
HETATM   19  C14 UNL     1      29.079   6.799  48.281  1.00  0.00     0.068 A 
HETATM   20  C16 UNL     1      27.992   7.628  48.447  1.00  0.00     0.037 A 
HETATM   21  C17 UNL     1      26.769   7.062  48.693  1.00  0.00     0.012 A 
BRANCH  19  22
HETATM   22  O2  UNL     1      30.346   7.254  48.031  1.00  0.00    -0.356 OA
HETATM   23  C15 UNL     1      30.925   7.046  46.744  1.00  0.00     0.210 C 
ENDBRANCH  19  22
ENDBRANCH  15  16
ENDBRANCH  14  15
ENDBRANCH   1  14
TORSDOF 6
ENDMDL
