MODEL 1
REMARK VINA RESULT:      -7.3      0.000      0.000
REMARK  7 active torsions:
REMARK  status: ('A' for Active; 'I' for Inactive)
REMARK    1  A    between atoms: C2_2  and  C3_3 
REMARK    2  A    between atoms: C4_4  and  C5_5 
REMARK    3  A    between atoms: C5_5  and  C6_6 
REMARK    4  A    between atoms: C11_11  and  O1_12 
REMARK    5  A    between atoms: N2_14  and  O2_15 
REMARK    6  A    between atoms: N3_16  and  C12_17 
REMARK    7  A    between atoms: C12_17  and  C14_19 
ROOT
HETATM    1  C6  UNL     1      20.398  -0.121  52.490  1.00  0.00    -0.021 A 
HETATM    2  C7  UNL     1      21.751   0.056  52.283  1.00  0.00     0.025 A 
HETATM    3  C8  UNL     1      22.614  -0.369  53.261  1.00  0.00     0.013 A 
HETATM    4  C9  UNL     1      22.129  -0.955  54.416  1.00  0.00     0.095 A 
HETATM    5  C10 UNL     1      20.754  -1.122  54.600  1.00  0.00     0.071 A 
HETATM    6  C11 UNL     1      19.857  -0.700  53.623  1.00  0.00     0.074 A 
HETATM    7  N1  UNL     1      22.895  -1.378  55.379  1.00  0.00    -0.128 NA
HETATM    8  N2  UNL     1      24.272  -1.213  55.198  1.00  0.00    -0.065 N 
HETATM    9  N3  UNL     1      24.838  -0.626  54.052  1.00  0.00    -0.231 N 
HETATM   10  C15 UNL     1      23.905  -0.204  53.070  1.00  0.00     0.134 A 
ENDROOT
BRANCH   1  11
HETATM   11  C5  UNL     1      19.482   0.351  51.403  1.00  0.00     0.068 C 
BRANCH  11  12
HETATM   12  C4  UNL     1      19.578   1.814  51.190  1.00  0.00    -0.022 C 
HETATM   13  C3  UNL     1      20.032   2.388  50.092  1.00  0.00    -0.008 C 
BRANCH  13  14
HETATM   14  C2  UNL     1      20.536   1.798  48.860  1.00  0.00    -0.027 C 
HETATM   15  C1  UNL     1      21.709   1.347  48.512  1.00  0.00     0.031 C 
ENDBRANCH  13  14
ENDBRANCH  11  12
ENDBRANCH   1  11
BRANCH   6  16
HETATM   16  O1  UNL     1      18.493  -0.869  53.812  1.00  0.00    -0.360 OA
HETATM   17  H10 UNL     1      18.025  -0.197  54.407  1.00  0.00     0.217 HD
ENDBRANCH   6  16
BRANCH   9  18
HETATM   18  C12 UNL     1      26.233  -0.449  53.845  1.00  0.00     0.029 C 
HETATM   19  C13 UNL     1      26.749  -1.306  52.986  1.00  0.00     0.062 C 
BRANCH  18  20
HETATM   20  C14 UNL     1      26.934   0.629  54.583  1.00  0.00     0.169 C 
HETATM   21 CL1  UNL     1      28.619   0.130  54.927  1.00  0.00    -0.124 Cl
ENDBRANCH  18  20
ENDBRANCH   9  18
BRANCH   8  22
HETATM   22  O2  UNL     1      25.087  -1.638  56.172  1.00  0.00    -0.251 OA
HETATM   23  H11 UNL     1      24.679  -1.470  57.075  1.00  0.00     0.248 HD
ENDBRANCH   8  22
TORSDOF 7
ENDMDL
MODEL 2
REMARK VINA RESULT:      -7.1      3.459      4.977
REMARK  7 active torsions:
REMARK  status: ('A' for Active; 'I' for Inactive)
REMARK    1  A    between atoms: C2_2  and  C3_3 
REMARK    2  A    between atoms: C4_4  and  C5_5 
REMARK    3  A    between atoms: C5_5  and  C6_6 
REMARK    4  A    between atoms: C11_11  and  O1_12 
REMARK    5  A    between atoms: N2_14  and  O2_15 
REMARK    6  A    between atoms: N3_16  and  C12_17 
REMARK    7  A    between atoms: C12_17  and  C14_19 
ROOT
HETATM    1  C6  UNL     1      23.538  -0.637  54.053  1.00  0.00    -0.021 A 
HETATM    2  C7  UNL     1      23.537   0.275  53.016  1.00  0.00     0.025 A 
HETATM    3  C8  UNL     1      24.689   0.979  52.777  1.00  0.00     0.013 A 
HETATM    4  C9  UNL     1      25.811   0.772  53.557  1.00  0.00     0.095 A 
HETATM    5  C10 UNL     1      25.785  -0.158  54.600  1.00  0.00     0.071 A 
HETATM    6  C11 UNL     1      24.629  -0.886  54.865  1.00  0.00     0.074 A 
HETATM    7  N1  UNL     1      26.933   1.408  53.381  1.00  0.00    -0.128 NA
HETATM    8  N2  UNL     1      26.963   2.339  52.337  1.00  0.00    -0.065 N 
HETATM    9  N3  UNL     1      25.863   2.603  51.502  1.00  0.00    -0.231 N 
HETATM   10  C15 UNL     1      24.696   1.850  51.790  1.00  0.00     0.134 A 
ENDROOT
BRANCH   1  11
HETATM   11  C5  UNL     1      22.265  -1.392  54.288  1.00  0.00     0.068 C 
BRANCH  11  12
HETATM   12  C4  UNL     1      21.176  -0.511  54.770  1.00  0.00    -0.022 C 
HETATM   13  C3  UNL     1      20.188  -0.057  54.024  1.00  0.00    -0.008 C 
BRANCH  13  14
HETATM   14  C2  UNL     1      19.897  -0.270  52.613  1.00  0.00    -0.027 C 
HETATM   15  C1  UNL     1      20.266   0.357  51.531  1.00  0.00     0.031 C 
ENDBRANCH  13  14
ENDBRANCH  11  12
ENDBRANCH   1  11
BRANCH   6  16
HETATM   16  O1  UNL     1      24.609  -1.807  55.901  1.00  0.00    -0.360 OA
HETATM   17  H10 UNL     1      24.063  -1.567  56.719  1.00  0.00     0.217 HD
ENDBRANCH   6  16
BRANCH   9  18
HETATM   18  C12 UNL     1      25.870   3.543  50.436  1.00  0.00     0.029 C 
HETATM   19  C13 UNL     1      25.088   4.583  50.647  1.00  0.00     0.062 C 
BRANCH  18  20
HETATM   20  C14 UNL     1      26.714   3.270  49.248  1.00  0.00     0.169 C 
HETATM   21 CL1  UNL     1      27.549   4.771  48.740  1.00  0.00    -0.124 Cl
ENDBRANCH  18  20
ENDBRANCH   9  18
BRANCH   8  22
HETATM   22  O2  UNL     1      28.103   3.010  52.130  1.00  0.00    -0.251 OA
HETATM   23  H11 UNL     1      28.674   2.540  51.449  1.00  0.00     0.248 HD
ENDBRANCH   8  22
TORSDOF 7
ENDMDL
MODEL 3
REMARK VINA RESULT:      -7.0      3.149      4.624
REMARK  7 active torsions:
REMARK  status: ('A' for Active; 'I' for Inactive)
REMARK    1  A    between atoms: C2_2  and  C3_3 
REMARK    2  A    between atoms: C4_4  and  C5_5 
REMARK    3  A    between atoms: C5_5  and  C6_6 
REMARK    4  A    between atoms: C11_11  and  O1_12 
REMARK    5  A    between atoms: N2_14  and  O2_15 
REMARK    6  A    between atoms: N3_16  and  C12_17 
REMARK    7  A    between atoms: C12_17  and  C14_19 
ROOT
HETATM    1  C6  UNL     1      23.066   0.968  51.912  1.00  0.00    -0.021 A 
HETATM    2  C7  UNL     1      24.070   0.281  52.564  1.00  0.00     0.025 A 
HETATM    3  C8  UNL     1      25.308   0.868  52.639  1.00  0.00     0.013 A 
HETATM    4  C9  UNL     1      25.530   2.109  52.073  1.00  0.00     0.095 A 
HETATM    5  C10 UNL     1      24.495   2.782  51.418  1.00  0.00     0.071 A 
HETATM    6  C11 UNL     1      23.229   2.210  51.328  1.00  0.00     0.074 A 
HETATM    7  N1  UNL     1      26.680   2.717  52.109  1.00  0.00    -0.128 NA
HETATM    8  N2  UNL     1      27.718   2.047  52.764  1.00  0.00    -0.065 N 
HETATM    9  N3  UNL     1      27.568   0.783  53.363  1.00  0.00    -0.231 N 
HETATM   10  C15 UNL     1      26.270   0.219  53.260  1.00  0.00     0.134 A 
ENDROOT
BRANCH   1  11
HETATM   11  C5  UNL     1      21.725   0.302  51.849  1.00  0.00     0.068 C 
BRANCH  11  12
HETATM   12  C4  UNL     1      20.861   0.680  52.992  1.00  0.00    -0.022 C 
HETATM   13  C3  UNL     1      20.755  -0.003  54.115  1.00  0.00    -0.008 C 
BRANCH  13  14
HETATM   14  C2  UNL     1      21.406  -1.238  54.532  1.00  0.00    -0.027 C 
HETATM   15  C1  UNL     1      22.487  -1.477  55.220  1.00  0.00     0.031 C 
ENDBRANCH  13  14
ENDBRANCH  11  12
ENDBRANCH   1  11
BRANCH   6  16
HETATM   16  O1  UNL     1      22.206   2.884  50.677  1.00  0.00    -0.360 OA
HETATM   17  H10 UNL     1      21.985   3.814  51.008  1.00  0.00     0.217 HD
ENDBRANCH   6  16
BRANCH   9  18
HETATM   18  C12 UNL     1      28.607   0.083  54.035  1.00  0.00     0.029 C 
HETATM   19  C13 UNL     1      28.562   0.209  55.347  1.00  0.00     0.062 C 
BRANCH  18  20
HETATM   20  C14 UNL     1      29.590  -0.682  53.230  1.00  0.00     0.169 C 
HETATM   21 CL1  UNL     1      29.122  -2.410  53.186  1.00  0.00    -0.124 Cl
ENDBRANCH  18  20
ENDBRANCH   9  18
BRANCH   8  22
HETATM   22  O2  UNL     1      28.914   2.646  52.819  1.00  0.00    -0.251 OA
HETATM   23  H11 UNL     1      29.579   2.166  52.238  1.00  0.00     0.248 HD
ENDBRANCH   8  22
TORSDOF 7
ENDMDL
MODEL 4
REMARK VINA RESULT:      -7.0      3.114      6.661
REMARK  7 active torsions:
REMARK  status: ('A' for Active; 'I' for Inactive)
REMARK    1  A    between atoms: C2_2  and  C3_3 
REMARK    2  A    between atoms: C4_4  and  C5_5 
REMARK    3  A    between atoms: C5_5  and  C6_6 
REMARK    4  A    between atoms: C11_11  and  O1_12 
REMARK    5  A    between atoms: N2_14  and  O2_15 
REMARK    6  A    between atoms: N3_16  and  C12_17 
REMARK    7  A    between atoms: C12_17  and  C14_19 
ROOT
HETATM    1  C6  UNL     1      25.428  -0.025  54.300  1.00  0.00    -0.021 A 
HETATM    2  C7  UNL     1      25.095   0.723  53.189  1.00  0.00     0.025 A 
HETATM    3  C8  UNL     1      23.824   0.601  52.687  1.00  0.00     0.013 A 
HETATM    4  C9  UNL     1      22.914  -0.249  53.286  1.00  0.00     0.095 A 
HETATM    5  C10 UNL     1      23.278  -0.995  54.411  1.00  0.00     0.071 A 
HETATM    6  C11 UNL     1      24.560  -0.890  54.940  1.00  0.00     0.074 A 
HETATM    7  N1  UNL     1      21.695  -0.409  52.858  1.00  0.00    -0.128 NA
HETATM    8  N2  UNL     1      21.328   0.337  51.733  1.00  0.00    -0.065 N 
HETATM    9  N3  UNL     1      22.198   1.220  51.071  1.00  0.00    -0.231 N 
HETATM   10  C15 UNL     1      23.500   1.311  51.628  1.00  0.00     0.134 A 
ENDROOT
BRANCH   1  11
HETATM   11  C5  UNL     1      26.822   0.131  54.825  1.00  0.00     0.068 C 
BRANCH  11  12
HETATM   12  C4  UNL     1      27.664   0.963  53.933  1.00  0.00    -0.022 C 
HETATM   13  C3  UNL     1      28.864   0.628  53.501  1.00  0.00    -0.008 C 
BRANCH  13  14
HETATM   14  C2  UNL     1      29.657  -0.567  53.754  1.00  0.00    -0.027 C 
HETATM   15  C1  UNL     1      29.563  -1.796  53.329  1.00  0.00     0.031 C 
ENDBRANCH  13  14
ENDBRANCH  11  12
ENDBRANCH   1  11
BRANCH   6  16
HETATM   16  O1  UNL     1      24.914  -1.633  56.057  1.00  0.00    -0.360 OA
HETATM   17  H10 UNL     1      25.468  -2.466  55.898  1.00  0.00     0.217 HD
ENDBRANCH   6  16
BRANCH   9  18
HETATM   18  C12 UNL     1      21.848   1.989  49.928  1.00  0.00     0.029 C 
HETATM   19  C13 UNL     1      21.595   3.253  50.203  1.00  0.00     0.062 C 
BRANCH  18  20
HETATM   20  C14 UNL     1      21.803   1.322  48.604  1.00  0.00     0.169 C 
HETATM   21 CL1  UNL     1      22.327   2.467  47.331  1.00  0.00    -0.124 Cl
ENDBRANCH  18  20
ENDBRANCH   9  18
BRANCH   8  22
HETATM   22  O2  UNL     1      20.080   0.195  51.268  1.00  0.00    -0.251 OA
HETATM   23  H11 UNL     1      20.090  -0.157  50.327  1.00  0.00     0.248 HD
ENDBRANCH   8  22
TORSDOF 7
ENDMDL
MODEL 5
REMARK VINA RESULT:      -7.0      4.010      4.981
REMARK  7 active torsions:
REMARK  status: ('A' for Active; 'I' for Inactive)
REMARK    1  A    between atoms: C2_2  and  C3_3 
REMARK    2  A    between atoms: C4_4  and  C5_5 
REMARK    3  A    between atoms: C5_5  and  C6_6 
REMARK    4  A    between atoms: C11_11  and  O1_12 
REMARK    5  A    between atoms: N2_14  and  O2_15 
REMARK    6  A    between atoms: N3_16  and  C12_17 
REMARK    7  A    between atoms: C12_17  and  C14_19 
ROOT
HETATM    1  C6  UNL     1      24.688   2.895  50.480  1.00  0.00    -0.021 A 
HETATM    2  C7  UNL     1      25.904   2.344  50.833  1.00  0.00     0.025 A 
HETATM    3  C8  UNL     1      25.946   1.532  51.937  1.00  0.00     0.013 A 
HETATM    4  C9  UNL     1      24.799   1.281  52.667  1.00  0.00     0.095 A 
HETATM    5  C10 UNL     1      23.581   1.852  52.287  1.00  0.00     0.071 A 
HETATM    6  C11 UNL     1      23.510   2.680  51.171  1.00  0.00     0.074 A 
HETATM    7  N1  UNL     1      24.774   0.521  53.722  1.00  0.00    -0.128 NA
HETATM    8  N2  UNL     1      25.991  -0.054  54.105  1.00  0.00    -0.065 N 
HETATM    9  N3  UNL     1      27.197   0.156  53.414  1.00  0.00    -0.231 N 
HETATM   10  C15 UNL     1      27.101   1.002  52.280  1.00  0.00     0.134 A 
ENDROOT
BRANCH   1  11
HETATM   11  C5  UNL     1      24.675   3.776  49.268  1.00  0.00     0.068 C 
BRANCH  11  12
HETATM   12  C4  UNL     1      25.127   5.153  49.575  1.00  0.00    -0.022 C 
HETATM   13  C3  UNL     1      26.319   5.637  49.284  1.00  0.00    -0.008 C 
BRANCH  13  14
HETATM   14  C2  UNL     1      27.457   5.009  48.628  1.00  0.00    -0.027 C 
HETATM   15  C1  UNL     1      28.640   5.448  48.299  1.00  0.00     0.031 C 
ENDBRANCH  13  14
ENDBRANCH  11  12
ENDBRANCH   1  11
BRANCH   6  16
HETATM   16  O1  UNL     1      22.299   3.243  50.799  1.00  0.00    -0.360 OA
HETATM   17  H10 UNL     1      21.853   2.870  49.970  1.00  0.00     0.217 HD
ENDBRANCH   6  16
BRANCH   9  18
HETATM   18  C12 UNL     1      28.445  -0.417  53.783  1.00  0.00     0.029 C 
HETATM   19  C13 UNL     1      29.185   0.375  54.533  1.00  0.00     0.062 C 
BRANCH  18  20
HETATM   20  C14 UNL     1      28.773  -1.783  53.307  1.00  0.00     0.169 C 
HETATM   21 CL1  UNL     1      27.351  -2.493  52.482  1.00  0.00    -0.124 Cl
ENDBRANCH  18  20
ENDBRANCH   9  18
BRANCH   8  22
HETATM   22  O2  UNL     1      25.998  -0.841  55.188  1.00  0.00    -0.251 OA
HETATM   23  H11 UNL     1      25.062  -1.006  55.514  1.00  0.00     0.248 HD
ENDBRANCH   8  22
TORSDOF 7
ENDMDL
MODEL 6
REMARK VINA RESULT:      -7.0      3.861      5.955
REMARK  7 active torsions:
REMARK  status: ('A' for Active; 'I' for Inactive)
REMARK    1  A    between atoms: C2_2  and  C3_3 
REMARK    2  A    between atoms: C4_4  and  C5_5 
REMARK    3  A    between atoms: C5_5  and  C6_6 
REMARK    4  A    between atoms: C11_11  and  O1_12 
REMARK    5  A    between atoms: N2_14  and  O2_15 
REMARK    6  A    between atoms: N3_16  and  C12_17 
REMARK    7  A    between atoms: C12_17  and  C14_19 
ROOT
HETATM    1  C6  UNL     1      26.610   1.759  52.246  1.00  0.00    -0.021 A 
HETATM    2  C7  UNL     1      25.258   1.479  52.271  1.00  0.00     0.025 A 
HETATM    3  C8  UNL     1      24.797   0.614  53.231  1.00  0.00     0.013 A 
HETATM    4  C9  UNL     1      25.670   0.047  54.141  1.00  0.00     0.095 A 
HETATM    5  C10 UNL     1      27.034   0.349  54.093  1.00  0.00     0.071 A 
HETATM    6  C11 UNL     1      27.529   1.223  53.130  1.00  0.00     0.074 A 
HETATM    7  N1  UNL     1      25.295  -0.779  55.073  1.00  0.00    -0.128 NA
HETATM    8  N2  UNL     1      23.931  -1.082  55.124  1.00  0.00    -0.065 N 
HETATM    9  N3  UNL     1      22.984  -0.545  54.234  1.00  0.00    -0.231 N 
HETATM   10  C15 UNL     1      23.510   0.343  53.261  1.00  0.00     0.134 A 
ENDROOT
BRANCH   1  11
HETATM   11  C5  UNL     1      27.082   2.708  51.187  1.00  0.00     0.068 C 
BRANCH  11  12
HETATM   12  C4  UNL     1      25.964   3.232  50.370  1.00  0.00    -0.022 C 
HETATM   13  C3  UNL     1      26.094   4.089  49.375  1.00  0.00    -0.008 C 
BRANCH  13  14
HETATM   14  C2  UNL     1      27.285   4.725  48.830  1.00  0.00    -0.027 C 
HETATM   15  C1  UNL     1      27.518   5.929  48.386  1.00  0.00     0.031 C 
ENDBRANCH  13  14
ENDBRANCH  11  12
ENDBRANCH   1  11
BRANCH   6  16
HETATM   16  O1  UNL     1      28.883   1.518  53.088  1.00  0.00    -0.360 OA
HETATM   17  H10 UNL     1      29.440   1.027  52.398  1.00  0.00     0.217 HD
ENDBRANCH   6  16
BRANCH   9  18
HETATM   18  C12 UNL     1      21.593  -0.837  54.266  1.00  0.00     0.029 C 
HETATM   19  C13 UNL     1      21.328  -2.128  54.315  1.00  0.00     0.062 C 
BRANCH  18  20
HETATM   20  C14 UNL     1      20.626   0.287  54.243  1.00  0.00     0.169 C 
HETATM   21 CL1  UNL     1      19.497   0.084  52.867  1.00  0.00    -0.124 Cl
ENDBRANCH  18  20
ENDBRANCH   9  18
BRANCH   8  22
HETATM   22  O2  UNL     1      23.513  -1.929  56.073  1.00  0.00    -0.251 OA
HETATM   23  H11 UNL     1      22.867  -1.476  56.695  1.00  0.00     0.248 HD
ENDBRANCH   8  22
TORSDOF 7
ENDMDL
MODEL 7
REMARK VINA RESULT:      -7.0      2.928      6.511
REMARK  7 active torsions:
REMARK  status: ('A' for Active; 'I' for Inactive)
REMARK    1  A    between atoms: C2_2  and  C3_3 
REMARK    2  A    between atoms: C4_4  and  C5_5 
REMARK    3  A    between atoms: C5_5  and  C6_6 
REMARK    4  A    between atoms: C11_11  and  O1_12 
REMARK    5  A    between atoms: N2_14  and  O2_15 
REMARK    6  A    between atoms: N3_16  and  C12_17 
REMARK    7  A    between atoms: C12_17  and  C14_19 
ROOT
HETATM    1  C6  UNL     1      25.243  -0.075  54.234  1.00  0.00    -0.021 A 
HETATM    2  C7  UNL     1      24.818   0.635  53.129  1.00  0.00     0.025 A 
HETATM    3  C8  UNL     1      23.511   0.493  52.735  1.00  0.00     0.013 A 
HETATM    4  C9  UNL     1      22.656  -0.339  53.433  1.00  0.00     0.095 A 
HETATM    5  C10 UNL     1      23.113  -1.046  54.549  1.00  0.00     0.071 A 
HETATM    6  C11 UNL     1      24.433  -0.920  54.970  1.00  0.00     0.074 A 
HETATM    7  N1  UNL     1      21.408  -0.516  53.111  1.00  0.00    -0.128 NA
HETATM    8  N2  UNL     1      20.948   0.190  51.995  1.00  0.00    -0.065 N 
HETATM    9  N3  UNL     1      21.757   1.054  51.236  1.00  0.00    -0.231 N 
HETATM   10  C15 UNL     1      23.099   1.167  51.683  1.00  0.00     0.134 A 
ENDROOT
BRANCH   1  11
HETATM   11  C5  UNL     1      26.674   0.103  54.640  1.00  0.00     0.068 C 
BRANCH  11  12
HETATM   12  C4  UNL     1      27.375   1.094  53.791  1.00  0.00    -0.022 C 
HETATM   13  C3  UNL     1      28.640   1.014  53.427  1.00  0.00    -0.008 C 
BRANCH  13  14
HETATM   14  C2  UNL     1      29.646   0.005  53.730  1.00  0.00    -0.027 C 
HETATM   15  C1  UNL     1      29.789  -1.237  53.362  1.00  0.00     0.031 C 
ENDBRANCH  13  14
ENDBRANCH  11  12
ENDBRANCH   1  11
BRANCH   6  16
HETATM   16  O1  UNL     1      24.880  -1.624  56.078  1.00  0.00    -0.360 OA
HETATM   17  H10 UNL     1      24.361  -2.455  56.335  1.00  0.00     0.217 HD
ENDBRANCH   6  16
BRANCH   9  18
HETATM   18  C12 UNL     1      21.312   1.783  50.099  1.00  0.00     0.029 C 
HETATM   19  C13 UNL     1      21.403   1.105  48.972  1.00  0.00     0.062 C 
BRANCH  18  20
HETATM   20  C14 UNL     1      20.816   3.167  50.288  1.00  0.00     0.169 C 
HETATM   21 CL1  UNL     1      20.376   3.423  52.005  1.00  0.00    -0.124 Cl
ENDBRANCH  18  20
ENDBRANCH   9  18
BRANCH   8  22
HETATM   22  O2  UNL     1      19.667   0.029  51.636  1.00  0.00    -0.251 OA
HETATM   23  H11 UNL     1      19.540  -0.844  51.157  1.00  0.00     0.248 HD
ENDBRANCH   8  22
TORSDOF 7
ENDMDL
MODEL 8
REMARK VINA RESULT:      -6.9      4.435      6.242
REMARK  7 active torsions:
REMARK  status: ('A' for Active; 'I' for Inactive)
REMARK    1  A    between atoms: C2_2  and  C3_3 
REMARK    2  A    between atoms: C4_4  and  C5_5 
REMARK    3  A    between atoms: C5_5  and  C6_6 
REMARK    4  A    between atoms: C11_11  and  O1_12 
REMARK    5  A    between atoms: N2_14  and  O2_15 
REMARK    6  A    between atoms: N3_16  and  C12_17 
REMARK    7  A    between atoms: C12_17  and  C14_19 
ROOT
HETATM    1  C6  UNL     1      24.493   0.316  53.210  1.00  0.00    -0.021 A 
HETATM    2  C7  UNL     1      24.005   1.486  52.662  1.00  0.00     0.025 A 
HETATM    3  C8  UNL     1      24.849   2.231  51.879  1.00  0.00     0.013 A 
HETATM    4  C9  UNL     1      26.147   1.814  51.654  1.00  0.00     0.095 A 
HETATM    5  C10 UNL     1      26.616   0.626  52.223  1.00  0.00     0.071 A 
HETATM    6  C11 UNL     1      25.781  -0.150  53.020  1.00  0.00     0.074 A 
HETATM    7  N1  UNL     1      26.995   2.477  50.923  1.00  0.00    -0.128 NA
HETATM    8  N2  UNL     1      26.530   3.665  50.352  1.00  0.00    -0.065 N 
HETATM    9  N3  UNL     1      25.224   4.153  50.536  1.00  0.00    -0.231 N 
HETATM   10  C15 UNL     1      24.390   3.347  51.352  1.00  0.00     0.134 A 
ENDROOT
BRANCH   1  11
HETATM   11  C5  UNL     1      23.546  -0.477  54.059  1.00  0.00     0.068 C 
BRANCH  11  12
HETATM   12  C4  UNL     1      22.500  -1.144  53.251  1.00  0.00    -0.022 C 
HETATM   13  C3  UNL     1      21.278  -0.682  53.070  1.00  0.00    -0.008 C 
BRANCH  13  14
HETATM   14  C2  UNL     1      20.644   0.528  53.574  1.00  0.00    -0.027 C 
HETATM   15  C1  UNL     1      20.365   1.675  53.021  1.00  0.00     0.031 C 
ENDBRANCH  13  14
ENDBRANCH  11  12
ENDBRANCH   1  11
BRANCH   6  16
HETATM   16  O1  UNL     1      26.252  -1.328  53.581  1.00  0.00    -0.360 OA
HETATM   17  H10 UNL     1      27.206  -1.326  53.920  1.00  0.00     0.217 HD
ENDBRANCH   6  16
BRANCH   9  18
HETATM   18  C12 UNL     1      24.727   5.357  49.966  1.00  0.00     0.029 C 
HETATM   19  C13 UNL     1      24.185   5.190  48.775  1.00  0.00     0.062 C 
BRANCH  18  20
HETATM   20  C14 UNL     1      24.864   6.620  50.731  1.00  0.00     0.169 C 
HETATM   21 CL1  UNL     1      26.213   7.589  50.062  1.00  0.00    -0.124 Cl
ENDBRANCH  18  20
ENDBRANCH   9  18
BRANCH   8  22
HETATM   22  O2  UNL     1      27.379   4.371  49.594  1.00  0.00    -0.251 OA
HETATM   23  H11 UNL     1      28.192   4.634  50.122  1.00  0.00     0.248 HD
ENDBRANCH   8  22
TORSDOF 7
ENDMDL
MODEL 9
REMARK VINA RESULT:      -6.9      5.057      6.132
REMARK  7 active torsions:
REMARK  status: ('A' for Active; 'I' for Inactive)
REMARK    1  A    between atoms: C2_2  and  C3_3 
REMARK    2  A    between atoms: C4_4  and  C5_5 
REMARK    3  A    between atoms: C5_5  and  C6_6 
REMARK    4  A    between atoms: C11_11  and  O1_12 
REMARK    5  A    between atoms: N2_14  and  O2_15 
REMARK    6  A    between atoms: N3_16  and  C12_17 
REMARK    7  A    between atoms: C12_17  and  C14_19 
ROOT
HETATM    1  C6  UNL     1      25.666   4.113  49.962  1.00  0.00    -0.021 A 
HETATM    2  C7  UNL     1      26.522   3.133  50.424  1.00  0.00     0.025 A 
HETATM    3  C8  UNL     1      26.022   2.202  51.299  1.00  0.00     0.013 A 
HETATM    4  C9  UNL     1      24.700   2.255  51.699  1.00  0.00     0.095 A 
HETATM    5  C10 UNL     1      23.856   3.258  51.215  1.00  0.00     0.071 A 
HETATM    6  C11 UNL     1      24.336   4.214  50.327  1.00  0.00     0.074 A 
HETATM    7  N1  UNL     1      24.168   1.402  52.525  1.00  0.00    -0.128 NA
HETATM    8  N2  UNL     1      25.010   0.397  53.011  1.00  0.00    -0.065 N 
HETATM    9  N3  UNL     1      26.364   0.279  52.650  1.00  0.00    -0.231 N 
HETATM   10  C15 UNL     1      26.832   1.265  51.744  1.00  0.00     0.134 A 
ENDROOT
BRANCH   1  11
HETATM   11  C5  UNL     1      26.240   5.113  49.007  1.00  0.00     0.068 C 
BRANCH  11  12
HETATM   12  C4  UNL     1      27.657   4.825  48.682  1.00  0.00    -0.022 C 
HETATM   13  C3  UNL     1      28.510   5.701  48.189  1.00  0.00    -0.008 C 
BRANCH  13  14
HETATM   14  C2  UNL     1      28.327   7.103  47.842  1.00  0.00    -0.027 C 
HETATM   15  C1  UNL     1      28.603   7.791  46.769  1.00  0.00     0.031 C 
ENDBRANCH  13  14
ENDBRANCH  11  12
ENDBRANCH   1  11
BRANCH   6  16
HETATM   16  O1  UNL     1      23.493   5.207  49.850  1.00  0.00    -0.360 OA
HETATM   17  H10 UNL     1      23.474   6.080  50.363  1.00  0.00     0.217 HD
ENDBRANCH   6  16
BRANCH   9  18
HETATM   18  C12 UNL     1      27.239  -0.734  53.129  1.00  0.00     0.029 C 
HETATM   19  C13 UNL     1      27.037  -1.910  52.569  1.00  0.00     0.062 C 
BRANCH  18  20
HETATM   20  C14 UNL     1      28.242  -0.382  54.163  1.00  0.00     0.169 C 
HETATM   21 CL1  UNL     1      29.866  -0.930  53.642  1.00  0.00    -0.124 Cl
ENDBRANCH  18  20
ENDBRANCH   9  18
BRANCH   8  22
HETATM   22  O2  UNL     1      24.492  -0.496  53.864  1.00  0.00    -0.251 OA
HETATM   23  H11 UNL     1      24.083  -1.268  53.366  1.00  0.00     0.248 HD
ENDBRANCH   8  22
TORSDOF 7
ENDMDL
