MODEL 1
REMARK VINA RESULT:      -9.5      0.000      0.000
REMARK  2 active torsions:
REMARK  status: ('A' for Active; 'I' for Inactive)
REMARK    1  A    between atoms: C4_5  and  N1_6 
REMARK    2  A    between atoms: N1_6  and  C5_7 
ROOT
HETATM    1  C5  UNL     1      24.611   1.261  52.236  1.00  0.00     0.147 C 
HETATM    2  N2  UNL     1      24.137   0.549  53.059  1.00  0.00    -0.212 NA
HETATM    3  C6  UNL     1      24.079  -0.235  54.164  1.00  0.00     0.296 C 
HETATM    4  N3  UNL     1      23.135  -0.904  54.487  1.00  0.00    -0.416 NA
HETATM    5  C7  UNL     1      21.951  -1.551  54.609  1.00  0.00     0.396 C 
HETATM    6  O1  UNL     1      20.729  -1.010  54.278  1.00  0.00    -0.320 OA
HETATM    7  C8  UNL     1      20.141  -0.544  53.148  1.00  0.00     0.080 A 
HETATM    8  C9  UNL     1      18.812  -0.987  53.256  1.00  0.00     0.039 A 
HETATM    9  C10 UNL     1      17.792  -0.753  52.319  1.00  0.00     0.026 A 
HETATM   10  C11 UNL     1      18.147  -0.017  51.192  1.00  0.00     0.034 A 
HETATM   11 CL1  UNL     1      17.106   0.430  49.865  1.00  0.00    -0.084 Cl
HETATM   12  C12 UNL     1      19.433   0.429  51.057  1.00  0.00     0.035 A 
HETATM   13  C13 UNL     1      20.413   0.191  51.979  1.00  0.00    -0.003 A 
HETATM   14  C14 UNL     1      21.804   0.580  51.978  1.00  0.00     0.190 C 
HETATM   15  N4  UNL     1      22.344   1.417  50.964  1.00  0.00    -0.293 NA
HETATM   16  C15 UNL     1      23.628   1.658  51.188  1.00  0.00     0.161 C 
ENDROOT
BRANCH   1  17
HETATM   17  N1  UNL     1      25.963   1.702  52.192  1.00  0.00    -0.340 N 
HETATM   18  H3  UNL     1      26.072   2.692  51.813  1.00  0.00     0.167 HD
BRANCH  17  19
HETATM   19  C4  UNL     1      27.006   0.900  52.626  1.00  0.00     0.035 A 
HETATM   20  C3  UNL     1      28.052   1.594  53.248  1.00  0.00     0.032 A 
HETATM   21  C2  UNL     1      29.146   0.920  53.744  1.00  0.00     0.046 A 
HETATM   22  C1  UNL     1      29.252  -0.432  53.651  1.00  0.00     0.138 A 
HETATM   23  F1  UNL     1      30.316  -1.125  54.128  1.00  0.00    -0.204 F 
HETATM   24  C17 UNL     1      28.243  -1.151  53.045  1.00  0.00     0.074 A 
HETATM   25  C16 UNL     1      27.170  -0.434  52.565  1.00  0.00     0.056 A 
HETATM   26 CL2  UNL     1      28.266  -2.891  52.867  1.00  0.00    -0.081 Cl
ENDBRANCH  17  19
ENDBRANCH   1  17
TORSDOF 2
ENDMDL
MODEL 2
REMARK VINA RESULT:      -9.0      1.830      2.934
REMARK  2 active torsions:
REMARK  status: ('A' for Active; 'I' for Inactive)
REMARK    1  A    between atoms: C4_5  and  N1_6 
REMARK    2  A    between atoms: N1_6  and  C5_7 
ROOT
HETATM    1  C5  UNL     1      24.657   2.049  52.093  1.00  0.00     0.147 C 
HETATM    2  N2  UNL     1      24.017   2.357  51.141  1.00  0.00    -0.212 NA
HETATM    3  C6  UNL     1      23.731   2.942  49.952  1.00  0.00     0.296 C 
HETATM    4  N3  UNL     1      22.644   2.973  49.442  1.00  0.00    -0.416 NA
HETATM    5  C7  UNL     1      21.337   2.861  49.103  1.00  0.00     0.396 C 
HETATM    6  O1  UNL     1      20.560   1.751  49.349  1.00  0.00    -0.320 OA
HETATM    7  C8  UNL     1      20.137   1.078  50.448  1.00  0.00     0.080 A 
HETATM    8  C9  UNL     1      18.817   0.717  50.130  1.00  0.00     0.039 A 
HETATM    9  C10 UNL     1      17.944  -0.005  50.961  1.00  0.00     0.026 A 
HETATM   10  C11 UNL     1      18.446  -0.387  52.201  1.00  0.00     0.034 A 
HETATM   11 CL1  UNL     1      17.606  -1.285  53.438  1.00  0.00    -0.084 Cl
HETATM   12  C12 UNL     1      19.728  -0.051  52.540  1.00  0.00     0.035 A 
HETATM   13  C13 UNL     1      20.564   0.653  51.720  1.00  0.00    -0.003 A 
HETATM   14  C14 UNL     1      21.924   1.089  51.933  1.00  0.00     0.190 C 
HETATM   15  N4  UNL     1      22.653   0.722  53.096  1.00  0.00    -0.293 NA
HETATM   16  C15 UNL     1      23.883   1.215  53.057  1.00  0.00     0.161 C 
ENDROOT
BRANCH   1  17
HETATM   17  N1  UNL     1      26.004   2.422  52.350  1.00  0.00    -0.340 N 
HETATM   18  H3  UNL     1      26.184   3.466  52.233  1.00  0.00     0.167 HD
BRANCH  17  19
HETATM   19  C4  UNL     1      26.958   1.493  52.733  1.00  0.00     0.035 A 
HETATM   20  C3  UNL     1      28.070   2.038  53.389  1.00  0.00     0.032 A 
HETATM   21  C2  UNL     1      29.087   1.226  53.841  1.00  0.00     0.046 A 
HETATM   22  C1  UNL     1      29.053  -0.122  53.671  1.00  0.00     0.138 A 
HETATM   23  F1  UNL     1      30.038  -0.948  54.103  1.00  0.00    -0.204 F 
HETATM   24  C17 UNL     1      27.975  -0.697  53.030  1.00  0.00     0.074 A 
HETATM   25  C16 UNL     1      26.982   0.154  52.596  1.00  0.00     0.056 A 
HETATM   26 CL2  UNL     1      27.817  -2.416  52.754  1.00  0.00    -0.081 Cl
ENDBRANCH  17  19
ENDBRANCH   1  17
TORSDOF 2
ENDMDL
MODEL 3
REMARK VINA RESULT:      -9.0      5.860      7.674
REMARK  2 active torsions:
REMARK  status: ('A' for Active; 'I' for Inactive)
REMARK    1  A    between atoms: C4_5  and  N1_6 
REMARK    2  A    between atoms: N1_6  and  C5_7 
ROOT
HETATM    1  C5  UNL     1      25.973   5.327  49.333  1.00  0.00     0.147 C 
HETATM    2  N2  UNL     1      25.073   5.231  50.100  1.00  0.00    -0.212 NA
HETATM    3  C6  UNL     1      23.952   5.583  50.778  1.00  0.00     0.296 C 
HETATM    4  N3  UNL     1      23.477   4.968  51.694  1.00  0.00    -0.416 NA
HETATM    5  C7  UNL     1      23.164   4.095  52.680  1.00  0.00     0.396 C 
HETATM    6  O1  UNL     1      23.324   2.730  52.594  1.00  0.00    -0.320 OA
HETATM    7  C8  UNL     1      24.365   1.876  52.428  1.00  0.00     0.080 A 
HETATM    8  C9  UNL     1      24.050   0.798  53.272  1.00  0.00     0.039 A 
HETATM    9  C10 UNL     1      24.831  -0.355  53.452  1.00  0.00     0.026 A 
HETATM   10  C11 UNL     1      26.015  -0.418  52.724  1.00  0.00     0.034 A 
HETATM   11 CL1  UNL     1      27.184  -1.714  52.739  1.00  0.00    -0.084 Cl
HETATM   12  C12 UNL     1      26.351   0.616  51.894  1.00  0.00     0.035 A 
HETATM   13  C13 UNL     1      25.579   1.731  51.731  1.00  0.00    -0.003 A 
HETATM   14  C14 UNL     1      25.796   2.899  50.910  1.00  0.00     0.190 C 
HETATM   15  N4  UNL     1      26.898   2.992  50.019  1.00  0.00    -0.293 NA
HETATM   16  C15 UNL     1      26.873   4.139  49.355  1.00  0.00     0.161 C 
ENDROOT
BRANCH   1  17
HETATM   17  N1  UNL     1      26.228   6.436  48.479  1.00  0.00    -0.340 N 
HETATM   18  H3  UNL     1      25.526   6.527  47.683  1.00  0.00     0.167 HD
BRANCH  17  19
HETATM   19  C4  UNL     1      27.287   7.301  48.705  1.00  0.00     0.035 A 
HETATM   20  C3  UNL     1      26.992   8.366  49.567  1.00  0.00     0.032 A 
HETATM   21  C2  UNL     1      27.958   9.293  49.894  1.00  0.00     0.046 A 
HETATM   22  C1  UNL     1      29.221   9.212  49.399  1.00  0.00     0.138 A 
HETATM   23  F1  UNL     1      30.192  10.109  49.700  1.00  0.00    -0.204 F 
HETATM   24  C17 UNL     1      29.550   8.178  48.548  1.00  0.00     0.074 A 
HETATM   25  C16 UNL     1      28.553   7.276  48.250  1.00  0.00     0.056 A 
HETATM   26 CL2  UNL     1      31.139   7.968  47.848  1.00  0.00    -0.081 Cl
ENDBRANCH  17  19
ENDBRANCH   1  17
TORSDOF 2
ENDMDL
MODEL 4
REMARK VINA RESULT:      -8.8      4.673      5.909
REMARK  2 active torsions:
REMARK  status: ('A' for Active; 'I' for Inactive)
REMARK    1  A    between atoms: C4_5  and  N1_6 
REMARK    2  A    between atoms: N1_6  and  C5_7 
ROOT
HETATM    1  C5  UNL     1      25.785   2.858  50.343  1.00  0.00     0.147 C 
HETATM    2  N2  UNL     1      26.186   2.152  51.210  1.00  0.00    -0.212 NA
HETATM    3  C6  UNL     1      27.082   1.545  52.026  1.00  0.00     0.296 C 
HETATM    4  N3  UNL     1      26.823   0.670  52.807  1.00  0.00    -0.416 NA
HETATM    5  C7  UNL     1      26.261  -0.284  53.586  1.00  0.00     0.396 C 
HETATM    6  O1  UNL     1      25.008  -0.192  54.151  1.00  0.00    -0.320 OA
HETATM    7  C8  UNL     1      23.735  -0.084  53.693  1.00  0.00     0.080 A 
HETATM    8  C9  UNL     1      22.996  -0.893  54.572  1.00  0.00     0.039 A 
HETATM    9  C10 UNL     1      21.609  -1.109  54.513  1.00  0.00     0.026 A 
HETATM   10  C11 UNL     1      20.926  -0.460  53.489  1.00  0.00     0.034 A 
HETATM   11 CL1  UNL     1      19.214  -0.535  53.163  1.00  0.00    -0.084 Cl
HETATM   12  C12 UNL     1      21.618   0.335  52.617  1.00  0.00     0.035 A 
HETATM   13  C13 UNL     1      22.967   0.534  52.689  1.00  0.00    -0.003 A 
HETATM   14  C14 UNL     1      23.836   1.325  51.848  1.00  0.00     0.190 C 
HETATM   15  N4  UNL     1      23.324   2.141  50.804  1.00  0.00    -0.293 NA
HETATM   16  C15 UNL     1      24.303   2.791  50.191  1.00  0.00     0.161 C 
ENDROOT
BRANCH   1  17
HETATM   17  N1  UNL     1      26.581   3.679  49.499  1.00  0.00    -0.340 N 
HETATM   18  H3  UNL     1      27.293   3.132  48.926  1.00  0.00     0.167 HD
BRANCH  17  19
HETATM   19  C4  UNL     1      26.405   5.053  49.441  1.00  0.00     0.035 A 
HETATM   20  C3  UNL     1      27.292   5.715  48.583  1.00  0.00     0.032 A 
HETATM   21  C2  UNL     1      27.219   7.081  48.415  1.00  0.00     0.046 A 
HETATM   22  C1  UNL     1      26.293   7.831  49.068  1.00  0.00     0.138 A 
HETATM   23  F1  UNL     1      26.195   9.176  48.925  1.00  0.00    -0.204 F 
HETATM   24  C17 UNL     1      25.402   7.215  49.922  1.00  0.00     0.074 A 
HETATM   25  C16 UNL     1      25.513   5.849  50.058  1.00  0.00     0.056 A 
HETATM   26 CL2  UNL     1      24.167   8.072  50.817  1.00  0.00    -0.081 Cl
ENDBRANCH  17  19
ENDBRANCH   1  17
TORSDOF 2
ENDMDL
MODEL 5
REMARK VINA RESULT:      -8.8      1.911      2.590
REMARK  2 active torsions:
REMARK  status: ('A' for Active; 'I' for Inactive)
REMARK    1  A    between atoms: C4_5  and  N1_6 
REMARK    2  A    between atoms: N1_6  and  C5_7 
ROOT
HETATM    1  C5  UNL     1      24.313  -0.460  54.147  1.00  0.00     0.147 C 
HETATM    2  N2  UNL     1      23.207  -0.840  54.348  1.00  0.00    -0.212 NA
HETATM    3  C6  UNL     1      22.190  -1.482  54.975  1.00  0.00     0.296 C 
HETATM    4  N3  UNL     1      21.076  -1.600  54.540  1.00  0.00    -0.416 NA
HETATM    5  C7  UNL     1      19.926  -1.584  53.826  1.00  0.00     0.396 C 
HETATM    6  O1  UNL     1      19.493  -0.519  53.068  1.00  0.00    -0.320 OA
HETATM    7  C8  UNL     1      19.952   0.163  51.988  1.00  0.00     0.080 A 
HETATM    8  C9  UNL     1      18.790   0.427  51.244  1.00  0.00     0.039 A 
HETATM    9  C10 UNL     1      18.741   1.119  50.022  1.00  0.00     0.026 A 
HETATM   10  C11 UNL     1      19.957   1.574  49.522  1.00  0.00     0.034 A 
HETATM   11 CL1  UNL     1      20.213   2.458  48.039  1.00  0.00    -0.084 Cl
HETATM   12  C12 UNL     1      21.106   1.333  50.223  1.00  0.00     0.035 A 
HETATM   13  C13 UNL     1      21.136   0.657  51.410  1.00  0.00    -0.003 A 
HETATM   14  C14 UNL     1      22.254   0.316  52.258  1.00  0.00     0.190 C 
HETATM   15  N4  UNL     1      23.571   0.769  51.975  1.00  0.00    -0.293 NA
HETATM   16  C15 UNL     1      24.421   0.355  52.904  1.00  0.00     0.161 C 
ENDROOT
BRANCH   1  17
HETATM   17  N1  UNL     1      25.451  -0.737  54.954  1.00  0.00    -0.340 N 
HETATM   18  H3  UNL     1      25.207  -1.177  55.893  1.00  0.00     0.167 HD
BRANCH  17  19
HETATM   19  C4  UNL     1      26.738  -0.463  54.519  1.00  0.00     0.035 A 
HETATM   20  C3  UNL     1      27.268  -1.417  53.640  1.00  0.00     0.032 A 
HETATM   21  C2  UNL     1      28.532  -1.262  53.114  1.00  0.00     0.046 A 
HETATM   22  C1  UNL     1      29.307  -0.189  53.424  1.00  0.00     0.138 A 
HETATM   23  F1  UNL     1      30.554  -0.008  52.924  1.00  0.00    -0.204 F 
HETATM   24  C17 UNL     1      28.820   0.772  54.285  1.00  0.00     0.074 A 
HETATM   25  C16 UNL     1      27.552   0.575  54.785  1.00  0.00     0.056 A 
HETATM   26 CL2  UNL     1      29.720   2.195  54.756  1.00  0.00    -0.081 Cl
ENDBRANCH  17  19
ENDBRANCH   1  17
TORSDOF 2
ENDMDL
MODEL 6
REMARK VINA RESULT:      -8.7      5.050      6.492
REMARK  2 active torsions:
REMARK  status: ('A' for Active; 'I' for Inactive)
REMARK    1  A    between atoms: C4_5  and  N1_6 
REMARK    2  A    between atoms: N1_6  and  C5_7 
ROOT
HETATM    1  C5  UNL     1      24.443   3.875  49.924  1.00  0.00     0.147 C 
HETATM    2  N2  UNL     1      25.356   3.360  50.481  1.00  0.00    -0.212 NA
HETATM    3  C6  UNL     1      26.644   3.108  50.820  1.00  0.00     0.296 C 
HETATM    4  N3  UNL     1      27.009   2.205  51.524  1.00  0.00    -0.416 NA
HETATM    5  C7  UNL     1      27.138   1.125  52.330  1.00  0.00     0.396 C 
HETATM    6  O1  UNL     1      26.252   0.785  53.327  1.00  0.00    -0.320 OA
HETATM    7  C8  UNL     1      24.941   0.443  53.395  1.00  0.00     0.080 A 
HETATM    8  C9  UNL     1      24.909  -0.562  54.376  1.00  0.00     0.039 A 
HETATM    9  C10 UNL     1      23.761  -1.244  54.812  1.00  0.00     0.026 A 
HETATM   10  C11 UNL     1      22.561  -0.881  54.208  1.00  0.00     0.034 A 
HETATM   11 CL1  UNL     1      20.982  -1.546  54.537  1.00  0.00    -0.084 Cl
HETATM   12  C12 UNL     1      22.559   0.094  53.248  1.00  0.00     0.035 A 
HETATM   13  C13 UNL     1      23.685   0.747  52.836  1.00  0.00    -0.003 A 
HETATM   14  C14 UNL     1      23.849   1.780  51.840  1.00  0.00     0.190 C 
HETATM   15  N4  UNL     1      22.735   2.358  51.174  1.00  0.00    -0.293 NA
HETATM   16  C15 UNL     1      23.128   3.299  50.328  1.00  0.00     0.161 C 
ENDROOT
BRANCH   1  17
HETATM   17  N1  UNL     1      24.533   4.911  48.954  1.00  0.00    -0.340 N 
HETATM   18  H3  UNL     1      23.787   4.847  48.196  1.00  0.00     0.167 HD
BRANCH  17  19
HETATM   19  C4  UNL     1      25.499   5.902  49.034  1.00  0.00     0.035 A 
HETATM   20  C3  UNL     1      25.181   6.954  49.902  1.00  0.00     0.032 A 
HETATM   21  C2  UNL     1      26.059   7.999  50.091  1.00  0.00     0.046 A 
HETATM   22  C1  UNL     1      27.257   8.048  49.450  1.00  0.00     0.138 A 
HETATM   23  F1  UNL     1      28.143   9.062  49.614  1.00  0.00    -0.204 F 
HETATM   24  C17 UNL     1      27.607   7.030  48.588  1.00  0.00     0.074 A 
HETATM   25  C16 UNL     1      26.697   6.008  48.431  1.00  0.00     0.056 A 
HETATM   26 CL2  UNL     1      29.117   6.982  47.708  1.00  0.00    -0.081 Cl
ENDBRANCH  17  19
ENDBRANCH   1  17
TORSDOF 2
ENDMDL
MODEL 7
REMARK VINA RESULT:      -8.5      5.100      6.581
REMARK  2 active torsions:
REMARK  status: ('A' for Active; 'I' for Inactive)
REMARK    1  A    between atoms: C4_5  and  N1_6 
REMARK    2  A    between atoms: N1_6  and  C5_7 
ROOT
HETATM    1  C5  UNL     1      25.975   3.190  49.960  1.00  0.00     0.147 C 
HETATM    2  N2  UNL     1      24.812   3.099  49.737  1.00  0.00    -0.212 NA
HETATM    3  C6  UNL     1      23.630   3.310  49.108  1.00  0.00     0.296 C 
HETATM    4  N3  UNL     1      22.560   2.935  49.505  1.00  0.00    -0.416 NA
HETATM    5  C7  UNL     1      21.508   2.405  50.172  1.00  0.00     0.396 C 
HETATM    6  O1  UNL     1      21.540   1.208  50.853  1.00  0.00    -0.320 OA
HETATM    7  C8  UNL     1      22.222   0.703  51.912  1.00  0.00     0.080 A 
HETATM    8  C9  UNL     1      21.261  -0.060  52.595  1.00  0.00     0.039 A 
HETATM    9  C10 UNL     1      21.484  -0.790  53.774  1.00  0.00     0.026 A 
HETATM   10  C11 UNL     1      22.773  -0.741  54.296  1.00  0.00     0.034 A 
HETATM   11 CL1  UNL     1      23.349  -1.539  55.737  1.00  0.00    -0.084 Cl
HETATM   12  C12 UNL     1      23.732  -0.007  53.653  1.00  0.00     0.035 A 
HETATM   13  C13 UNL     1      23.497   0.698  52.507  1.00  0.00    -0.003 A 
HETATM   14  C14 UNL     1      24.389   1.520  51.723  1.00  0.00     0.190 C 
HETATM   15  N4  UNL     1      25.772   1.625  52.031  1.00  0.00    -0.293 NA
HETATM   16  C15 UNL     1      26.391   2.410  51.160  1.00  0.00     0.161 C 
ENDROOT
BRANCH   1  17
HETATM   17  N1  UNL     1      26.910   3.959  49.214  1.00  0.00    -0.340 N 
HETATM   18  H3  UNL     1      27.658   3.369  48.736  1.00  0.00     0.167 HD
BRANCH  17  19
HETATM   19  C4  UNL     1      26.813   5.339  49.124  1.00  0.00     0.035 A 
HETATM   20  C3  UNL     1      27.799   5.939  48.330  1.00  0.00     0.032 A 
HETATM   21  C2  UNL     1      27.812   7.304  48.139  1.00  0.00     0.046 A 
HETATM   22  C1  UNL     1      26.879   8.112  48.707  1.00  0.00     0.138 A 
HETATM   23  F1  UNL     1      26.866   9.458  48.539  1.00  0.00    -0.204 F 
HETATM   24  C17 UNL     1      25.892   7.559  49.496  1.00  0.00     0.074 A 
HETATM   25  C16 UNL     1      25.919   6.191  49.658  1.00  0.00     0.056 A 
HETATM   26 CL2  UNL     1      24.639   8.494  50.278  1.00  0.00    -0.081 Cl
ENDBRANCH  17  19
ENDBRANCH   1  17
TORSDOF 2
ENDMDL
MODEL 8
REMARK VINA RESULT:      -8.4      4.993      6.852
REMARK  2 active torsions:
REMARK  status: ('A' for Active; 'I' for Inactive)
REMARK    1  A    between atoms: C4_5  and  N1_6 
REMARK    2  A    between atoms: N1_6  and  C5_7 
ROOT
HETATM    1  C5  UNL     1      25.226   2.420  51.424  1.00  0.00     0.147 C 
HETATM    2  N2  UNL     1      24.376   3.220  51.645  1.00  0.00    -0.212 NA
HETATM    3  C6  UNL     1      23.268   3.755  52.213  1.00  0.00     0.296 C 
HETATM    4  N3  UNL     1      22.746   4.783  51.874  1.00  0.00    -0.416 NA
HETATM    5  C7  UNL     1      22.369   5.947  51.295  1.00  0.00     0.396 C 
HETATM    6  O1  UNL     1      23.243   6.906  50.831  1.00  0.00    -0.320 OA
HETATM    7  C8  UNL     1      24.213   6.968  49.884  1.00  0.00     0.080 A 
HETATM    8  C9  UNL     1      24.057   8.249  49.331  1.00  0.00     0.039 A 
HETATM    9  C10 UNL     1      24.838   8.795  48.298  1.00  0.00     0.026 A 
HETATM   10  C11 UNL     1      25.847   7.982  47.792  1.00  0.00     0.034 A 
HETATM   11 CL1  UNL     1      26.970   8.380  46.517  1.00  0.00    -0.084 Cl
HETATM   12  C12 UNL     1      26.025   6.728  48.310  1.00  0.00     0.035 A 
HETATM   13  C13 UNL     1      25.255   6.213  49.314  1.00  0.00    -0.003 A 
HETATM   14  C14 UNL     1      25.309   4.920  49.956  1.00  0.00     0.190 C 
HETATM   15  N4  UNL     1      26.327   3.977  49.651  1.00  0.00    -0.293 NA
HETATM   16  C15 UNL     1      26.187   2.880  50.381  1.00  0.00     0.161 C 
ENDROOT
BRANCH   1  17
HETATM   17  N1  UNL     1      25.351   1.143  52.038  1.00  0.00    -0.340 N 
HETATM   18  H3  UNL     1      24.464   0.556  51.978  1.00  0.00     0.167 HD
BRANCH  17  19
HETATM   19  C4  UNL     1      26.534   0.732  52.630  1.00  0.00     0.035 A 
HETATM   20  C3  UNL     1      26.825  -0.628  52.460  1.00  0.00     0.032 A 
HETATM   21  C2  UNL     1      27.980  -1.170  52.981  1.00  0.00     0.046 A 
HETATM   22  C1  UNL     1      28.873  -0.414  53.672  1.00  0.00     0.138 A 
HETATM   23  F1  UNL     1      30.018  -0.918  54.198  1.00  0.00    -0.204 F 
HETATM   24  C17 UNL     1      28.623   0.929  53.860  1.00  0.00     0.074 A 
HETATM   25  C16 UNL     1      27.457   1.426  53.321  1.00  0.00     0.056 A 
HETATM   26 CL2  UNL     1      29.695   2.002  54.730  1.00  0.00    -0.081 Cl
ENDBRANCH  17  19
ENDBRANCH   1  17
TORSDOF 2
ENDMDL
MODEL 9
REMARK VINA RESULT:      -8.4      3.785      4.350
REMARK  2 active torsions:
REMARK  status: ('A' for Active; 'I' for Inactive)
REMARK    1  A    between atoms: C4_5  and  N1_6 
REMARK    2  A    between atoms: N1_6  and  C5_7 
ROOT
HETATM    1  C5  UNL     1      24.041   1.586  51.500  1.00  0.00     0.147 C 
HETATM    2  N2  UNL     1      23.703   0.900  52.407  1.00  0.00    -0.212 NA
HETATM    3  C6  UNL     1      23.809   0.191  53.558  1.00  0.00     0.296 C 
HETATM    4  N3  UNL     1      22.954  -0.519  54.013  1.00  0.00    -0.416 NA
HETATM    5  C7  UNL     1      21.840  -1.237  54.292  1.00  0.00     0.396 C 
HETATM    6  O1  UNL     1      20.554  -0.807  54.052  1.00  0.00    -0.320 OA
HETATM    7  C8  UNL     1      19.828  -0.460  52.959  1.00  0.00     0.080 A 
HETATM    8  C9  UNL     1      18.553  -0.987  53.226  1.00  0.00     0.039 A 
HETATM    9  C10 UNL     1      17.434  -0.889  52.382  1.00  0.00     0.026 A 
HETATM   10  C11 UNL     1      17.624  -0.209  51.184  1.00  0.00     0.034 A 
HETATM   11 CL1  UNL     1      16.431   0.074  49.942  1.00  0.00    -0.084 Cl
HETATM   12  C12 UNL     1      18.853   0.316  50.894  1.00  0.00     0.035 A 
HETATM   13  C13 UNL     1      19.931   0.210  51.727  1.00  0.00    -0.003 A 
HETATM   14  C14 UNL     1      21.282   0.695  51.564  1.00  0.00     0.190 C 
HETATM   15  N4  UNL     1      21.659   1.496  50.453  1.00  0.00    -0.293 NA
HETATM   16  C15 UNL     1      22.936   1.842  50.532  1.00  0.00     0.161 C 
ENDROOT
BRANCH   1  17
HETATM   17  N1  UNL     1      25.345   2.116  51.294  1.00  0.00    -0.340 N 
HETATM   18  H3  UNL     1      26.121   1.485  51.661  1.00  0.00     0.167 HD
BRANCH  17  19
HETATM   19  C4  UNL     1      25.546   3.331  50.658  1.00  0.00     0.035 A 
HETATM   20  C3  UNL     1      26.581   3.326  49.713  1.00  0.00     0.032 A 
HETATM   21  C2  UNL     1      26.879   4.462  48.992  1.00  0.00     0.046 A 
HETATM   22  C1  UNL     1      26.188   5.619  49.167  1.00  0.00     0.138 A 
HETATM   23  F1  UNL     1      26.457   6.754  48.474  1.00  0.00    -0.204 F 
HETATM   24  C17 UNL     1      25.162   5.663  50.088  1.00  0.00     0.074 A 
HETATM   25  C16 UNL     1      24.901   4.504  50.785  1.00  0.00     0.056 A 
HETATM   26 CL2  UNL     1      24.203   7.092  50.401  1.00  0.00    -0.081 Cl
ENDBRANCH  17  19
ENDBRANCH   1  17
TORSDOF 2
ENDMDL
