MODEL 1
REMARK VINA RESULT:      -7.8      0.000      0.000
REMARK  2 active torsions:
REMARK  status: ('A' for Active; 'I' for Inactive)
REMARK    1  A    between atoms: C9_12  and  N4_13 
REMARK    2  A    between atoms: N4_13  and  C10_14 
ROOT
HETATM    1  C1  UNL     1      23.807   3.892  52.949  1.00  0.00     0.037 C 
HETATM    2  C2  UNL     1      23.576   3.411  51.768  1.00  0.00     0.070 C 
HETATM    3  C3  UNL     1      24.511   3.306  50.652  1.00  0.00     0.034 C 
HETATM    4  C4  UNL     1      23.945   3.239  49.375  1.00  0.00     0.061 C 
HETATM    5  C5  UNL     1      22.558   3.296  49.392  1.00  0.00     0.156 C 
HETATM    6  N1  UNL     1      22.108   3.791  48.189  1.00  0.00    -0.247 NA
HETATM    7  C6  UNL     1      22.711   4.935  47.715  1.00  0.00     0.137 C 
HETATM    8  C7  UNL     1      23.813   5.449  48.391  1.00  0.00     0.137 C 
HETATM    9  N2  UNL     1      24.952   5.853  48.986  1.00  0.00    -0.253 NA
HETATM   10  C8  UNL     1      25.987   4.984  49.207  1.00  0.00     0.234 C 
HETATM   11  N3  UNL     1      26.576   3.859  49.721  1.00  0.00    -0.224 NA
HETATM   12  C9  UNL     1      25.907   3.312  50.781  1.00  0.00     0.141 C 
HETATM   13  S1  UNL     1      22.117   2.705  51.013  1.00  0.00     0.224 S 
HETATM   14  O1  UNL     1      22.138   1.225  51.082  1.00  0.00    -0.216 OA
HETATM   15  O2  UNL     1      20.882   3.346  51.518  1.00  0.00    -0.216 OA
ENDROOT
BRANCH  12  16
HETATM   16  N4  UNL     1      26.611   2.819  51.897  1.00  0.00    -0.340 N 
HETATM   17  H7  UNL     1      27.146   3.410  52.592  1.00  0.00     0.167 HD
BRANCH  16  18
HETATM   18  C10 UNL     1      26.717   1.432  52.264  1.00  0.00     0.035 A 
HETATM   19  C11 UNL     1      25.713   0.472  52.210  1.00  0.00     0.029 A 
HETATM   20  C12 UNL     1      25.966  -0.826  52.596  1.00  0.00     0.004 A 
HETATM   21  C13 UNL     1      27.204  -1.232  53.047  1.00  0.00     0.019 A 
HETATM   22  C14 UNL     1      28.212  -0.275  53.103  1.00  0.00     0.013 A 
HETATM   23 BR1  UNL     1      29.896  -0.907  53.735  1.00  0.00    -0.051 Br
HETATM   24  C15 UNL     1      27.953   1.022  52.716  1.00  0.00     0.048 A 
ENDBRANCH  16  18
ENDBRANCH  12  16
TORSDOF 2
ENDMDL
MODEL 2
REMARK VINA RESULT:      -7.7      4.034      6.175
REMARK  2 active torsions:
REMARK  status: ('A' for Active; 'I' for Inactive)
REMARK    1  A    between atoms: C9_12  and  N4_13 
REMARK    2  A    between atoms: N4_13  and  C10_14 
ROOT
HETATM    1  C1  UNL     1      25.521   2.287  53.479  1.00  0.00     0.037 C 
HETATM    2  C2  UNL     1      24.906   1.168  53.255  1.00  0.00     0.070 C 
HETATM    3  C3  UNL     1      23.778   0.937  52.357  1.00  0.00     0.034 C 
HETATM    4  C4  UNL     1      22.978  -0.173  52.642  1.00  0.00     0.061 C 
HETATM    5  C5  UNL     1      23.400  -0.874  53.764  1.00  0.00     0.156 C 
HETATM    6  N1  UNL     1      22.330  -1.545  54.311  1.00  0.00    -0.247 NA
HETATM    7  C6  UNL     1      21.170  -0.828  54.501  1.00  0.00     0.137 C 
HETATM    8  C7  UNL     1      21.091   0.474  54.017  1.00  0.00     0.137 C 
HETATM    9  N2  UNL     1      20.994   1.682  53.429  1.00  0.00    -0.253 NA
HETATM   10  C8  UNL     1      21.293   1.856  52.104  1.00  0.00     0.234 C 
HETATM   11  N3  UNL     1      22.099   1.814  50.997  1.00  0.00    -0.224 NA
HETATM   12  C9  UNL     1      23.437   1.768  51.280  1.00  0.00     0.141 C 
HETATM   13  S1  UNL     1      25.135  -0.487  53.892  1.00  0.00     0.224 S 
HETATM   14  O1  UNL     1      25.951  -1.310  52.970  1.00  0.00    -0.216 OA
HETATM   15  O2  UNL     1      25.593  -0.466  55.300  1.00  0.00    -0.216 OA
ENDROOT
BRANCH  12  16
HETATM   16  N4  UNL     1      24.356   2.524  50.528  1.00  0.00    -0.340 N 
HETATM   17  H7  UNL     1      25.055   2.127  49.840  1.00  0.00     0.167 HD
BRANCH  16  18
HETATM   18  C10 UNL     1      24.493   3.955  50.580  1.00  0.00     0.035 A 
HETATM   19  C11 UNL     1      23.783   4.836  51.386  1.00  0.00     0.029 A 
HETATM   20  C12 UNL     1      24.026   6.190  51.326  1.00  0.00     0.004 A 
HETATM   21  C13 UNL     1      24.971   6.731  50.479  1.00  0.00     0.019 A 
HETATM   22  C14 UNL     1      25.685   5.854  49.670  1.00  0.00     0.013 A 
HETATM   23 BR1  UNL     1      26.973   6.671  48.526  1.00  0.00    -0.051 Br
HETATM   24  C15 UNL     1      25.436   4.500  49.735  1.00  0.00     0.048 A 
ENDBRANCH  16  18
ENDBRANCH  12  16
TORSDOF 2
ENDMDL
MODEL 3
REMARK VINA RESULT:      -7.6      2.443      3.817
REMARK  2 active torsions:
REMARK  status: ('A' for Active; 'I' for Inactive)
REMARK    1  A    between atoms: C9_12  and  N4_13 
REMARK    2  A    between atoms: N4_13  and  C10_14 
ROOT
HETATM    1  C1  UNL     1      24.583   3.233  49.561  1.00  0.00     0.037 C 
HETATM    2  C2  UNL     1      23.845   3.575  50.571  1.00  0.00     0.070 C 
HETATM    3  C3  UNL     1      23.826   2.974  51.901  1.00  0.00     0.034 C 
HETATM    4  C4  UNL     1      22.651   3.145  52.641  1.00  0.00     0.061 C 
HETATM    5  C5  UNL     1      21.680   3.865  51.958  1.00  0.00     0.156 C 
HETATM    6  N1  UNL     1      20.437   3.522  52.439  1.00  0.00    -0.247 NA
HETATM    7  C6  UNL     1      20.158   2.179  52.560  1.00  0.00     0.137 C 
HETATM    8  C7  UNL     1      21.169   1.254  52.324  1.00  0.00     0.137 C 
HETATM    9  N2  UNL     1      22.195   0.387  52.217  1.00  0.00    -0.253 NA
HETATM   10  C8  UNL     1      23.354   0.562  52.924  1.00  0.00     0.234 C 
HETATM   11  N3  UNL     1      24.478   1.239  53.317  1.00  0.00    -0.224 NA
HETATM   12  C9  UNL     1      24.874   2.219  52.448  1.00  0.00     0.141 C 
HETATM   13  S1  UNL     1      22.603   4.842  50.788  1.00  0.00     0.224 S 
HETATM   14  O1  UNL     1      23.176   6.055  51.417  1.00  0.00    -0.216 OA
HETATM   15  O2  UNL     1      21.842   5.074  49.540  1.00  0.00    -0.216 OA
ENDROOT
BRANCH  12  16
HETATM   16  N4  UNL     1      26.237   2.407  52.150  1.00  0.00    -0.340 N 
HETATM   17  H7  UNL     1      26.615   3.037  51.389  1.00  0.00     0.167 HD
BRANCH  16  18
HETATM   18  C10 UNL     1      27.331   1.767  52.831  1.00  0.00     0.035 A 
HETATM   19  C11 UNL     1      28.280   2.373  53.645  1.00  0.00     0.029 A 
HETATM   20  C12 UNL     1      29.276   1.625  54.234  1.00  0.00     0.004 A 
HETATM   21  C13 UNL     1      29.379   0.262  54.051  1.00  0.00     0.019 A 
HETATM   22  C14 UNL     1      28.431  -0.349  53.237  1.00  0.00     0.013 A 
HETATM   23 BR1  UNL     1      28.635  -2.233  53.028  1.00  0.00    -0.051 Br
HETATM   24  C15 UNL     1      27.438   0.405  52.650  1.00  0.00     0.048 A 
ENDBRANCH  16  18
ENDBRANCH  12  16
TORSDOF 2
ENDMDL
MODEL 4
REMARK VINA RESULT:      -7.5      3.602      5.978
REMARK  2 active torsions:
REMARK  status: ('A' for Active; 'I' for Inactive)
REMARK    1  A    between atoms: C9_12  and  N4_13 
REMARK    2  A    between atoms: N4_13  and  C10_14 
ROOT
HETATM    1  C1  UNL     1      21.548   0.993  49.777  1.00  0.00     0.037 C 
HETATM    2  C2  UNL     1      21.424   1.279  51.035  1.00  0.00     0.070 C 
HETATM    3  C3  UNL     1      22.489   1.558  51.993  1.00  0.00     0.034 C 
HETATM    4  C4  UNL     1      22.183   1.343  53.340  1.00  0.00     0.061 C 
HETATM    5  C5  UNL     1      20.889   0.880  53.535  1.00  0.00     0.156 C 
HETATM    6  N1  UNL     1      20.832   0.171  54.714  1.00  0.00    -0.247 NA
HETATM    7  C6  UNL     1      21.806  -0.780  54.922  1.00  0.00     0.137 C 
HETATM    8  C7  UNL     1      22.855  -0.884  54.016  1.00  0.00     0.137 C 
HETATM    9  N2  UNL     1      23.926  -0.879  53.197  1.00  0.00    -0.253 NA
HETATM   10  C8  UNL     1      24.620   0.272  52.938  1.00  0.00     0.234 C 
HETATM   11  N3  UNL     1      24.766   1.561  52.499  1.00  0.00    -0.224 NA
HETATM   12  C9  UNL     1      23.782   1.977  51.644  1.00  0.00     0.141 C 
HETATM   13  S1  UNL     1      20.000   1.454  52.102  1.00  0.00     0.224 S 
HETATM   14  O1  UNL     1      19.599   2.873  52.236  1.00  0.00    -0.216 OA
HETATM   15  O2  UNL     1      18.916   0.522  51.715  1.00  0.00    -0.216 OA
ENDROOT
BRANCH  12  16
HETATM   16  N4  UNL     1      24.095   2.751  50.511  1.00  0.00    -0.340 N 
HETATM   17  H7  UNL     1      24.164   2.385  49.520  1.00  0.00     0.167 HD
BRANCH  16  18
HETATM   18  C10 UNL     1      24.376   4.162  50.522  1.00  0.00     0.035 A 
HETATM   19  C11 UNL     1      23.727   5.139  51.267  1.00  0.00     0.029 A 
HETATM   20  C12 UNL     1      24.110   6.459  51.173  1.00  0.00     0.004 A 
HETATM   21  C13 UNL     1      25.138   6.871  50.352  1.00  0.00     0.019 A 
HETATM   22  C14 UNL     1      25.792   5.897  49.604  1.00  0.00     0.013 A 
HETATM   23 BR1  UNL     1      27.201   6.536  48.491  1.00  0.00    -0.051 Br
HETATM   24  C15 UNL     1      25.403   4.577  49.701  1.00  0.00     0.048 A 
ENDBRANCH  16  18
ENDBRANCH  12  16
TORSDOF 2
ENDMDL
MODEL 5
REMARK VINA RESULT:      -7.4      2.561      3.232
REMARK  2 active torsions:
REMARK  status: ('A' for Active; 'I' for Inactive)
REMARK    1  A    between atoms: C9_12  and  N4_13 
REMARK    2  A    between atoms: N4_13  and  C10_14 
ROOT
HETATM    1  C1  UNL     1      26.367   3.476  49.918  1.00  0.00     0.037 C 
HETATM    2  C2  UNL     1      25.424   4.298  50.256  1.00  0.00     0.070 C 
HETATM    3  C3  UNL     1      24.365   4.083  51.237  1.00  0.00     0.034 C 
HETATM    4  C4  UNL     1      23.209   4.853  51.081  1.00  0.00     0.061 C 
HETATM    5  C5  UNL     1      23.268   5.703  49.984  1.00  0.00     0.156 C 
HETATM    6  N1  UNL     1      21.990   5.979  49.553  1.00  0.00    -0.247 NA
HETATM    7  C6  UNL     1      21.138   4.909  49.390  1.00  0.00     0.137 C 
HETATM    8  C7  UNL     1      21.555   3.644  49.788  1.00  0.00     0.137 C 
HETATM    9  N2  UNL     1      21.932   2.455  50.298  1.00  0.00    -0.253 NA
HETATM   10  C8  UNL     1      22.382   2.342  51.586  1.00  0.00     0.234 C 
HETATM   11  N3  UNL     1      23.213   2.618  52.639  1.00  0.00    -0.224 NA
HETATM   12  C9  UNL     1      24.424   3.141  52.275  1.00  0.00     0.141 C 
HETATM   13  S1  UNL     1      25.012   5.953  49.719  1.00  0.00     0.224 S 
HETATM   14  O1  UNL     1      25.567   6.972  50.640  1.00  0.00    -0.216 OA
HETATM   15  O2  UNL     1      25.329   6.153  48.286  1.00  0.00    -0.216 OA
ENDROOT
BRANCH  12  16
HETATM   16  N4  UNL     1      25.607   2.725  52.914  1.00  0.00    -0.340 N 
HETATM   17  H7  UNL     1      26.257   3.352  53.465  1.00  0.00     0.167 HD
BRANCH  16  18
HETATM   18  C10 UNL     1      26.123   1.382  52.914  1.00  0.00     0.035 A 
HETATM   19  C11 UNL     1      25.417   0.214  52.652  1.00  0.00     0.029 A 
HETATM   20  C12 UNL     1      26.050  -1.009  52.688  1.00  0.00     0.004 A 
HETATM   21  C13 UNL     1      27.392  -1.134  52.978  1.00  0.00     0.019 A 
HETATM   22  C14 UNL     1      28.104   0.032  53.241  1.00  0.00     0.013 A 
HETATM   23 BR1  UNL     1      29.953  -0.217  53.635  1.00  0.00    -0.051 Br
HETATM   24  C15 UNL     1      27.464   1.252  53.204  1.00  0.00     0.048 A 
ENDBRANCH  16  18
ENDBRANCH  12  16
TORSDOF 2
ENDMDL
MODEL 6
REMARK VINA RESULT:      -7.2      3.171      3.963
REMARK  2 active torsions:
REMARK  status: ('A' for Active; 'I' for Inactive)
REMARK    1  A    between atoms: C9_12  and  N4_13 
REMARK    2  A    between atoms: N4_13  and  C10_14 
ROOT
HETATM    1  C1  UNL     1      27.039   4.191  49.324  1.00  0.00     0.037 C 
HETATM    2  C2  UNL     1      26.091   5.073  49.383  1.00  0.00     0.070 C 
HETATM    3  C3  UNL     1      24.756   4.908  49.952  1.00  0.00     0.034 C 
HETATM    4  C4  UNL     1      23.767   5.771  49.472  1.00  0.00     0.061 C 
HETATM    5  C5  UNL     1      24.237   6.651  48.506  1.00  0.00     0.156 C 
HETATM    6  N1  UNL     1      23.192   7.041  47.699  1.00  0.00    -0.247 NA
HETATM    7  C6  UNL     1      22.376   6.048  47.205  1.00  0.00     0.137 C 
HETATM    8  C7  UNL     1      22.558   4.741  47.643  1.00  0.00     0.137 C 
HETATM    9  N2  UNL     1      22.670   3.509  48.179  1.00  0.00    -0.253 NA
HETATM   10  C8  UNL     1      22.663   3.318  49.534  1.00  0.00     0.234 C 
HETATM   11  N3  UNL     1      23.117   3.491  50.815  1.00  0.00    -0.224 NA
HETATM   12  C9  UNL     1      24.410   3.929  50.896  1.00  0.00     0.141 C 
HETATM   13  S1  UNL     1      25.983   6.772  48.838  1.00  0.00     0.224 S 
HETATM   14  O1  UNL     1      26.267   7.712  49.948  1.00  0.00    -0.216 OA
HETATM   15  O2  UNL     1      26.767   6.995  47.602  1.00  0.00    -0.216 OA
ENDROOT
BRANCH  12  16
HETATM   16  N4  UNL     1      25.289   3.400  51.861  1.00  0.00    -0.340 N 
HETATM   17  H7  UNL     1      25.919   3.970  52.491  1.00  0.00     0.167 HD
BRANCH  16  18
HETATM   18  C10 UNL     1      25.472   2.000  52.137  1.00  0.00     0.035 A 
HETATM   19  C11 UNL     1      26.533   1.199  51.736  1.00  0.00     0.029 A 
HETATM   20  C12 UNL     1      26.572  -0.135  52.080  1.00  0.00     0.004 A 
HETATM   21  C13 UNL     1      25.578  -0.731  52.826  1.00  0.00     0.019 A 
HETATM   22  C14 UNL     1      24.512   0.066  53.231  1.00  0.00     0.013 A 
HETATM   23 BR1  UNL     1      23.176  -0.824  54.258  1.00  0.00    -0.051 Br
HETATM   24  C15 UNL     1      24.480   1.400  52.882  1.00  0.00     0.048 A 
ENDBRANCH  16  18
ENDBRANCH  12  16
TORSDOF 2
ENDMDL
MODEL 7
REMARK VINA RESULT:      -7.2      4.303      6.944
REMARK  2 active torsions:
REMARK  status: ('A' for Active; 'I' for Inactive)
REMARK    1  A    between atoms: C9_12  and  N4_13 
REMARK    2  A    between atoms: N4_13  and  C10_14 
ROOT
HETATM    1  C1  UNL     1      24.554   3.073  52.928  1.00  0.00     0.037 C 
HETATM    2  C2  UNL     1      24.664   1.785  53.029  1.00  0.00     0.070 C 
HETATM    3  C3  UNL     1      23.736   0.772  52.537  1.00  0.00     0.034 C 
HETATM    4  C4  UNL     1      23.783  -0.472  53.173  1.00  0.00     0.061 C 
HETATM    5  C5  UNL     1      24.721  -0.524  54.195  1.00  0.00     0.156 C 
HETATM    6  N1  UNL     1      24.348  -1.484  55.108  1.00  0.00    -0.247 NA
HETATM    7  C6  UNL     1      23.043  -1.460  55.546  1.00  0.00     0.137 C 
HETATM    8  C7  UNL     1      22.147  -0.573  54.958  1.00  0.00     0.137 C 
HETATM    9  N2  UNL     1      21.272   0.201  54.286  1.00  0.00    -0.253 NA
HETATM   10  C8  UNL     1      21.176   0.150  52.922  1.00  0.00     0.234 C 
HETATM   11  N3  UNL     1      21.648   0.246  51.639  1.00  0.00    -0.224 NA
HETATM   12  C9  UNL     1      22.794   0.984  51.519  1.00  0.00     0.141 C 
HETATM   13  S1  UNL     1      25.909   0.731  53.760  1.00  0.00     0.224 S 
HETATM   14  O1  UNL     1      26.871   0.248  52.742  1.00  0.00    -0.216 OA
HETATM   15  O2  UNL     1      26.514   1.358  54.957  1.00  0.00    -0.216 OA
ENDROOT
BRANCH  12  16
HETATM   16  N4  UNL     1      22.963   1.879  50.445  1.00  0.00    -0.340 N 
HETATM   17  H7  UNL     1      23.465   1.660  49.540  1.00  0.00     0.167 HD
BRANCH  16  18
HETATM   18  C10 UNL     1      22.482   3.235  50.412  1.00  0.00     0.035 A 
HETATM   19  C11 UNL     1      21.433   3.769  51.149  1.00  0.00     0.029 A 
HETATM   20  C12 UNL     1      21.086   5.095  51.011  1.00  0.00     0.004 A 
HETATM   21  C13 UNL     1      21.750   5.944  50.151  1.00  0.00     0.019 A 
HETATM   22  C14 UNL     1      22.802   5.414  49.411  1.00  0.00     0.013 A 
HETATM   23 BR1  UNL     1      23.674   6.644  48.245  1.00  0.00    -0.051 Br
HETATM   24  C15 UNL     1      23.143   4.086  49.554  1.00  0.00     0.048 A 
ENDBRANCH  16  18
ENDBRANCH  12  16
TORSDOF 2
ENDMDL
MODEL 8
REMARK VINA RESULT:      -7.2      1.800      2.067
REMARK  2 active torsions:
REMARK  status: ('A' for Active; 'I' for Inactive)
REMARK    1  A    between atoms: C9_12  and  N4_13 
REMARK    2  A    between atoms: N4_13  and  C10_14 
ROOT
HETATM    1  C1  UNL     1      22.488   4.398  52.416  1.00  0.00     0.037 C 
HETATM    2  C2  UNL     1      22.521   3.928  51.208  1.00  0.00     0.070 C 
HETATM    3  C3  UNL     1      23.685   3.795  50.337  1.00  0.00     0.034 C 
HETATM    4  C4  UNL     1      23.428   3.752  48.963  1.00  0.00     0.061 C 
HETATM    5  C5  UNL     1      22.078   3.857  48.660  1.00  0.00     0.156 C 
HETATM    6  N1  UNL     1      21.935   4.371  47.391  1.00  0.00    -0.247 NA
HETATM    7  C6  UNL     1      22.667   5.495  47.083  1.00  0.00     0.137 C 
HETATM    8  C7  UNL     1      23.598   5.969  48.000  1.00  0.00     0.137 C 
HETATM    9  N2  UNL     1      24.582   6.331  48.847  1.00  0.00    -0.253 NA
HETATM   10  C8  UNL     1      25.509   5.427  49.291  1.00  0.00     0.234 C 
HETATM   11  N3  UNL     1      25.926   4.281  49.915  1.00  0.00    -0.224 NA
HETATM   12  C9  UNL     1      25.013   3.754  50.786  1.00  0.00     0.141 C 
HETATM   13  S1  UNL     1      21.254   3.275  50.129  1.00  0.00     0.224 S 
HETATM   14  O1  UNL     1      21.211   1.795  50.185  1.00  0.00    -0.216 OA
HETATM   15  O2  UNL     1      19.957   3.956  50.342  1.00  0.00    -0.216 OA
ENDROOT
BRANCH  12  16
HETATM   16  N4  UNL     1      25.423   3.233  52.029  1.00  0.00    -0.340 N 
HETATM   17  H7  UNL     1      25.683   3.809  52.877  1.00  0.00     0.167 HD
BRANCH  16  18
HETATM   18  C10 UNL     1      25.558   1.835  52.338  1.00  0.00     0.035 A 
HETATM   19  C11 UNL     1      26.617   1.001  52.003  1.00  0.00     0.029 A 
HETATM   20  C12 UNL     1      26.606  -0.326  52.371  1.00  0.00     0.004 A 
HETATM   21  C13 UNL     1      25.564  -0.885  53.080  1.00  0.00     0.019 A 
HETATM   22  C14 UNL     1      24.500  -0.055  53.419  1.00  0.00     0.013 A 
HETATM   23 BR1  UNL     1      23.096  -0.893  54.397  1.00  0.00    -0.051 Br
HETATM   24  C15 UNL     1      24.517   1.273  53.046  1.00  0.00     0.048 A 
ENDBRANCH  16  18
ENDBRANCH  12  16
TORSDOF 2
ENDMDL
MODEL 9
REMARK VINA RESULT:      -7.2      4.805      6.544
REMARK  2 active torsions:
REMARK  status: ('A' for Active; 'I' for Inactive)
REMARK    1  A    between atoms: C9_12  and  N4_13 
REMARK    2  A    between atoms: N4_13  and  C10_14 
ROOT
HETATM    1  C1  UNL     1      23.283  -1.349  52.806  1.00  0.00     0.037 C 
HETATM    2  C2  UNL     1      24.083  -0.402  53.184  1.00  0.00     0.070 C 
HETATM    3  C3  UNL     1      23.824   1.035  53.184  1.00  0.00     0.034 C 
HETATM    4  C4  UNL     1      24.946   1.867  53.143  1.00  0.00     0.061 C 
HETATM    5  C5  UNL     1      26.142   1.163  53.098  1.00  0.00     0.156 C 
HETATM    6  N1  UNL     1      27.108   1.943  52.504  1.00  0.00    -0.247 NA
HETATM    7  C6  UNL     1      26.775   2.559  51.318  1.00  0.00     0.137 C 
HETATM    8  C7  UNL     1      25.466   2.477  50.856  1.00  0.00     0.137 C 
HETATM    9  N2  UNL     1      24.167   2.492  50.498  1.00  0.00    -0.253 NA
HETATM   10  C8  UNL     1      23.190   2.881  51.374  1.00  0.00     0.234 C 
HETATM   11  N3  UNL     1      22.466   2.817  52.535  1.00  0.00    -0.224 NA
HETATM   12  C9  UNL     1      22.545   1.612  53.178  1.00  0.00     0.141 C 
HETATM   13  S1  UNL     1      25.749  -0.412  53.833  1.00  0.00     0.224 S 
HETATM   14  O1  UNL     1      25.751  -0.343  55.313  1.00  0.00    -0.216 OA
HETATM   15  O2  UNL     1      26.551  -1.510  53.248  1.00  0.00    -0.216 OA
ENDROOT
BRANCH  12  16
HETATM   16  N4  UNL     1      21.402   1.032  53.761  1.00  0.00    -0.340 N 
HETATM   17  H7  UNL     1      21.264   0.861  54.796  1.00  0.00     0.167 HD
BRANCH  16  18
HETATM   18  C10 UNL     1      20.243   0.577  53.041  1.00  0.00     0.035 A 
HETATM   19  C11 UNL     1      19.676   1.158  51.913  1.00  0.00     0.029 A 
HETATM   20  C12 UNL     1      18.559   0.603  51.328  1.00  0.00     0.004 A 
HETATM   21  C13 UNL     1      17.957  -0.535  51.822  1.00  0.00     0.019 A 
HETATM   22  C14 UNL     1      18.521  -1.121  52.951  1.00  0.00     0.013 A 
HETATM   23 BR1  UNL     1      17.639  -2.690  53.578  1.00  0.00    -0.051 Br
HETATM   24  C15 UNL     1      19.639  -0.560  53.532  1.00  0.00     0.048 A 
ENDBRANCH  16  18
ENDBRANCH  12  16
TORSDOF 2
ENDMDL
