MODEL 1
REMARK VINA RESULT:      -8.9      0.000      0.000
REMARK  2 active torsions:
REMARK  status: ('A' for Active; 'I' for Inactive)
REMARK    1  A    between atoms: N1_2  and  C2_3 
REMARK    2  A    between atoms: C4_6  and  C5_7 
ROOT
HETATM    1  C2  UNL     1      32.397   5.564  47.224  1.00  0.00     0.126 C 
HETATM    2  C3  UNL     1      31.179   5.567  47.645  1.00  0.00     0.166 C 
HETATM    3  N2  UNL     1      29.910   5.431  48.200  1.00  0.00    -0.257 NA
HETATM    4  C4  UNL     1      28.882   6.095  47.952  1.00  0.00     0.066 C 
HETATM    5  C11 UNL     1      28.769   7.218  47.068  1.00  0.00     0.030 C 
HETATM    6  C12 UNL     1      29.349   8.051  46.260  1.00  0.00     0.006 C 
HETATM    7  C13 UNL     1      29.899   9.020  45.347  1.00  0.00     0.302 C 
HETATM    8  N3  UNL     1      30.879   9.939  45.948  1.00  0.00     0.089 N 
HETATM    9  C14 UNL     1      32.062  10.243  46.648  1.00  0.00     0.351 A 
HETATM   10  O1  UNL     1      31.920   9.006  46.552  1.00  0.00    -0.150 OA
HETATM   11  C15 UNL     1      33.294   9.919  47.373  1.00  0.00     0.086 C 
HETATM   12  C16 UNL     1      33.408   8.435  47.580  1.00  0.00     0.062 C 
HETATM   13  C17 UNL     1      33.522   7.665  46.334  1.00  0.00     0.020 A 
HETATM   14  C18 UNL     1      34.059   8.001  45.138  1.00  0.00     0.039 A 
HETATM   15  C19 UNL     1      33.978   6.982  44.220  1.00  0.00    -0.007 A 
HETATM   16  C20 UNL     1      34.333   6.729  42.915  1.00  0.00     0.014 A 
HETATM   17  C21 UNL     1      34.078   5.516  42.314  1.00  0.00     0.001 A 
HETATM   18  C22 UNL     1      33.452   4.524  43.027  1.00  0.00     0.002 A 
HETATM   19  C23 UNL     1      33.085   4.768  44.355  1.00  0.00     0.031 A 
HETATM   20  C24 UNL     1      33.335   5.995  44.986  1.00  0.00     0.051 A 
HETATM   21  N4  UNL     1      33.050   6.387  46.266  1.00  0.00    -0.300 N 
HETATM   22  H14 UNL     1      30.731  11.004  45.894  1.00  0.00     0.322 HD
ENDROOT
BRANCH   4  23
HETATM   23  C5  UNL     1      27.644   5.815  48.617  1.00  0.00    -0.006 A 
HETATM   24  C6  UNL     1      27.398   4.489  48.830  1.00  0.00     0.014 A 
HETATM   25  C7  UNL     1      26.227   4.079  49.465  1.00  0.00     0.002 A 
HETATM   26  C8  UNL     1      25.269   4.965  49.909  1.00  0.00     0.019 A 
HETATM   27  C9  UNL     1      25.574   6.274  49.667  1.00  0.00     0.011 A 
HETATM   28 BR1  UNL     1      24.329   7.601  50.231  1.00  0.00    -0.051 Br
HETATM   29  C10 UNL     1      26.702   6.707  49.052  1.00  0.00     0.032 A 
ENDBRANCH   4  23
BRANCH   1  30
HETATM   30  N1  UNL     1      33.433   4.639  47.628  1.00  0.00    -0.379 N 
HETATM   31  C1  UNL     1      33.037   3.264  47.729  1.00  0.00     0.147 C 
HETATM   32  H4  UNL     1      34.395   4.971  47.826  1.00  0.00     0.160 HD
ENDBRANCH   1  30
TORSDOF 2
ENDMDL
MODEL 2
REMARK VINA RESULT:      -8.8      5.102     10.287
REMARK  2 active torsions:
REMARK  status: ('A' for Active; 'I' for Inactive)
REMARK    1  A    between atoms: N1_2  and  C2_3 
REMARK    2  A    between atoms: C4_6  and  C5_7 
ROOT
HETATM    1  C2  UNL     1      23.219   5.228  51.089  1.00  0.00     0.126 C 
HETATM    2  C3  UNL     1      24.202   5.815  50.498  1.00  0.00     0.166 C 
HETATM    3  N2  UNL     1      25.175   6.602  49.887  1.00  0.00    -0.257 NA
HETATM    4  C4  UNL     1      26.228   6.232  49.328  1.00  0.00     0.066 C 
HETATM    5  C11 UNL     1      26.734   4.895  49.231  1.00  0.00     0.030 C 
HETATM    6  C12 UNL     1      26.599   3.638  49.526  1.00  0.00     0.006 C 
HETATM    7  C13 UNL     1      26.539   2.225  49.799  1.00  0.00     0.302 C 
HETATM    8  N3  UNL     1      26.653   1.872  51.223  1.00  0.00     0.089 N 
HETATM    9  C14 UNL     1      26.265   1.934  52.576  1.00  0.00     0.351 A 
HETATM   10  O1  UNL     1      25.535   2.672  51.880  1.00  0.00    -0.150 OA
HETATM   11  C15 UNL     1      25.447   2.398  53.700  1.00  0.00     0.086 C 
HETATM   12  C16 UNL     1      24.484   3.459  53.249  1.00  0.00     0.062 C 
HETATM   13  C17 UNL     1      23.495   2.991  52.267  1.00  0.00     0.020 A 
HETATM   14  C18 UNL     1      22.942   1.768  52.090  1.00  0.00     0.039 A 
HETATM   15  C19 UNL     1      22.038   1.745  51.056  1.00  0.00    -0.007 A 
HETATM   16  C20 UNL     1      21.197   0.853  50.433  1.00  0.00     0.014 A 
HETATM   17  C21 UNL     1      20.393   1.226  49.378  1.00  0.00     0.001 A 
HETATM   18  C22 UNL     1      20.425   2.521  48.927  1.00  0.00     0.002 A 
HETATM   19  C23 UNL     1      21.277   3.439  49.551  1.00  0.00     0.031 A 
HETATM   20  C24 UNL     1      22.103   3.080  50.626  1.00  0.00     0.051 A 
HETATM   21  N4  UNL     1      22.978   3.851  51.343  1.00  0.00    -0.300 N 
HETATM   22  H14 UNL     1      27.421   1.196  51.557  1.00  0.00     0.322 HD
ENDROOT
BRANCH   4  23
HETATM   23  C5  UNL     1      27.124   7.183  48.740  1.00  0.00    -0.006 A 
HETATM   24  C6  UNL     1      28.067   6.643  47.912  1.00  0.00     0.014 A 
HETATM   25  C7  UNL     1      29.002   7.457  47.277  1.00  0.00     0.002 A 
HETATM   26  C8  UNL     1      29.033   8.826  47.440  1.00  0.00     0.019 A 
HETATM   27  C9  UNL     1      28.067   9.303  48.278  1.00  0.00     0.011 A 
HETATM   28 BR1  UNL     1      28.003  11.182  48.590  1.00  0.00    -0.051 Br
HETATM   29  C10 UNL     1      27.143   8.541  48.912  1.00  0.00     0.032 A 
ENDBRANCH   4  23
BRANCH   1  30
HETATM   30  N1  UNL     1      22.044   5.876  51.630  1.00  0.00    -0.379 N 
HETATM   31  C1  UNL     1      21.568   7.016  50.901  1.00  0.00     0.147 C 
HETATM   32  H4  UNL     1      21.590   5.521  52.492  1.00  0.00     0.160 HD
ENDBRANCH   1  30
TORSDOF 2
ENDMDL
MODEL 3
REMARK VINA RESULT:      -8.6      6.980     10.323
REMARK  2 active torsions:
REMARK  status: ('A' for Active; 'I' for Inactive)
REMARK    1  A    between atoms: N1_2  and  C2_3 
REMARK    2  A    between atoms: C4_6  and  C5_7 
ROOT
HETATM    1  C2  UNL     1      23.253   4.148  51.811  1.00  0.00     0.126 C 
HETATM    2  C3  UNL     1      22.243   3.363  51.656  1.00  0.00     0.166 C 
HETATM    3  N2  UNL     1      21.187   2.456  51.653  1.00  0.00    -0.257 NA
HETATM    4  C4  UNL     1      20.385   2.207  50.730  1.00  0.00     0.066 C 
HETATM    5  C11 UNL     1      20.312   2.848  49.449  1.00  0.00     0.030 C 
HETATM    6  C12 UNL     1      20.762   3.760  48.643  1.00  0.00     0.006 C 
HETATM    7  C13 UNL     1      21.189   4.739  47.676  1.00  0.00     0.302 C 
HETATM    8  N3  UNL     1      20.969   6.136  48.082  1.00  0.00     0.089 N 
HETATM    9  C14 UNL     1      21.113   7.238  48.946  1.00  0.00     0.351 A 
HETATM   10  O1  UNL     1      21.692   6.238  49.419  1.00  0.00    -0.150 OA
HETATM   11  C15 UNL     1      21.579   7.922  50.155  1.00  0.00     0.086 C 
HETATM   12  C16 UNL     1      22.247   6.951  51.086  1.00  0.00     0.062 C 
HETATM   13  C17 UNL     1      23.466   6.340  50.538  1.00  0.00     0.020 A 
HETATM   14  C18 UNL     1      24.372   6.823  49.656  1.00  0.00     0.039 A 
HETATM   15  C19 UNL     1      25.389   5.933  49.407  1.00  0.00    -0.007 A 
HETATM   16  C20 UNL     1      26.539   5.855  48.655  1.00  0.00     0.014 A 
HETATM   17  C21 UNL     1      27.349   4.740  48.680  1.00  0.00     0.001 A 
HETATM   18  C22 UNL     1      27.009   3.672  49.471  1.00  0.00     0.002 A 
HETATM   19  C23 UNL     1      25.842   3.739  50.239  1.00  0.00     0.031 A 
HETATM   20  C24 UNL     1      25.004   4.863  50.230  1.00  0.00     0.051 A 
HETATM   21  N4  UNL     1      23.844   5.087  50.923  1.00  0.00    -0.300 N 
HETATM   22  H14 UNL     1      20.390   6.798  47.462  1.00  0.00     0.322 HD
ENDROOT
BRANCH   4  23
HETATM   23  C5  UNL     1      19.350   1.230  50.894  1.00  0.00    -0.006 A 
HETATM   24  C6  UNL     1      18.433   1.194  49.883  1.00  0.00     0.014 A 
HETATM   25  C7  UNL     1      17.373   0.291  49.920  1.00  0.00     0.002 A 
HETATM   26  C8  UNL     1      17.188  -0.603  50.954  1.00  0.00     0.019 A 
HETATM   27  C9  UNL     1      18.137  -0.517  51.931  1.00  0.00     0.011 A 
HETATM   28 BR1  UNL     1      17.996  -1.698  53.420  1.00  0.00    -0.051 Br
HETATM   29  C10 UNL     1      19.180   0.349  51.928  1.00  0.00     0.032 A 
ENDBRANCH   4  23
BRANCH   1  30
HETATM   30  N1  UNL     1      24.092   4.231  52.987  1.00  0.00    -0.379 N 
HETATM   31  C1  UNL     1      24.583   2.982  53.493  1.00  0.00     0.147 C 
HETATM   32  H4  UNL     1      24.313   5.146  53.420  1.00  0.00     0.160 HD
ENDBRANCH   1  30
TORSDOF 2
ENDMDL
MODEL 4
REMARK VINA RESULT:      -8.4      1.888      2.383
REMARK  2 active torsions:
REMARK  status: ('A' for Active; 'I' for Inactive)
REMARK    1  A    between atoms: N1_2  and  C2_3 
REMARK    2  A    between atoms: C4_6  and  C5_7 
ROOT
HETATM    1  C2  UNL     1      31.158   6.520  47.893  1.00  0.00     0.126 C 
HETATM    2  C3  UNL     1      29.993   6.065  48.203  1.00  0.00     0.166 C 
HETATM    3  N2  UNL     1      28.821   5.430  48.603  1.00  0.00    -0.257 NA
HETATM    4  C4  UNL     1      27.643   5.813  48.446  1.00  0.00     0.066 C 
HETATM    5  C11 UNL     1      27.203   7.046  47.863  1.00  0.00     0.030 C 
HETATM    6  C12 UNL     1      27.512   8.191  47.335  1.00  0.00     0.006 C 
HETATM    7  C13 UNL     1      27.750   9.480  46.738  1.00  0.00     0.302 C 
HETATM    8  N3  UNL     1      28.411  10.452  47.624  1.00  0.00     0.089 N 
HETATM    9  C14 UNL     1      29.448  10.888  48.471  1.00  0.00     0.351 A 
HETATM   10  O1  UNL     1      29.682   9.732  48.059  1.00  0.00    -0.150 OA
HETATM   11  C15 UNL     1      30.719  10.753  49.188  1.00  0.00     0.086 C 
HETATM   12  C16 UNL     1      31.269   9.364  49.030  1.00  0.00     0.062 C 
HETATM   13  C17 UNL     1      31.611   9.011  47.645  1.00  0.00     0.020 A 
HETATM   14  C18 UNL     1      32.027   9.786  46.616  1.00  0.00     0.039 A 
HETATM   15  C19 UNL     1      32.254   9.062  45.471  1.00  0.00    -0.007 A 
HETATM   16  C20 UNL     1      32.672   9.271  44.177  1.00  0.00     0.014 A 
HETATM   17  C21 UNL     1      32.791   8.236  43.275  1.00  0.00     0.001 A 
HETATM   18  C22 UNL     1      32.487   6.957  43.667  1.00  0.00     0.002 A 
HETATM   19  C23 UNL     1      32.060   6.731  44.980  1.00  0.00     0.031 A 
HETATM   20  C24 UNL     1      31.932   7.770  45.914  1.00  0.00     0.051 A 
HETATM   21  N4  UNL     1      31.539   7.715  47.225  1.00  0.00    -0.300 N 
HETATM   22  H14 UNL     1      27.954  11.405  47.825  1.00  0.00     0.322 HD
ENDROOT
BRANCH   4  23
HETATM   23  C5  UNL     1      26.542   5.027  48.920  1.00  0.00    -0.006 A 
HETATM   24  C6  UNL     1      26.889   3.808  49.429  1.00  0.00     0.014 A 
HETATM   25  C7  UNL     1      25.914   2.944  49.922  1.00  0.00     0.002 A 
HETATM   26  C8  UNL     1      24.571   3.257  49.927  1.00  0.00     0.019 A 
HETATM   27  C9  UNL     1      24.291   4.487  49.406  1.00  0.00     0.011 A 
HETATM   28 BR1  UNL     1      22.468   5.042  49.354  1.00  0.00    -0.051 Br
HETATM   29  C10 UNL     1      25.213   5.353  48.918  1.00  0.00     0.032 A 
ENDBRANCH   4  23
BRANCH   1  30
HETATM   30  N1  UNL     1      32.422   5.859  48.136  1.00  0.00    -0.379 N 
HETATM   31  C1  UNL     1      32.423   4.435  47.967  1.00  0.00     0.147 C 
HETATM   32  H4  UNL     1      33.261   6.400  48.414  1.00  0.00     0.160 HD
ENDBRANCH   1  30
TORSDOF 2
ENDMDL
MODEL 5
REMARK VINA RESULT:      -8.1      4.290      9.760
REMARK  2 active torsions:
REMARK  status: ('A' for Active; 'I' for Inactive)
REMARK    1  A    between atoms: N1_2  and  C2_3 
REMARK    2  A    between atoms: C4_6  and  C5_7 
ROOT
HETATM    1  C2  UNL     1      23.705   6.636  48.624  1.00  0.00     0.126 C 
HETATM    2  C3  UNL     1      24.986   6.655  48.490  1.00  0.00     0.166 C 
HETATM    3  N2  UNL     1      26.350   6.842  48.282  1.00  0.00    -0.257 NA
HETATM    4  C4  UNL     1      27.278   6.027  48.465  1.00  0.00     0.066 C 
HETATM    5  C11 UNL     1      27.174   4.702  49.000  1.00  0.00     0.030 C 
HETATM    6  C12 UNL     1      26.426   3.769  49.505  1.00  0.00     0.006 C 
HETATM    7  C13 UNL     1      25.682   2.673  50.072  1.00  0.00     0.302 C 
HETATM    8  N3  UNL     1      25.084   2.956  51.387  1.00  0.00     0.089 N 
HETATM    9  C14 UNL     1      24.273   3.688  52.275  1.00  0.00     0.351 A 
HETATM   10  O1  UNL     1      24.245   4.203  51.137  1.00  0.00    -0.150 OA
HETATM   11  C15 UNL     1      23.362   4.774  52.649  1.00  0.00     0.086 C 
HETATM   12  C16 UNL     1      23.183   5.731  51.506  1.00  0.00     0.062 C 
HETATM   13  C17 UNL     1      22.548   5.135  50.322  1.00  0.00     0.020 A 
HETATM   14  C18 UNL     1      21.650   4.128  50.218  1.00  0.00     0.039 A 
HETATM   15  C19 UNL     1      21.291   3.875  48.916  1.00  0.00    -0.007 A 
HETATM   16  C20 UNL     1      20.464   3.031  48.213  1.00  0.00     0.014 A 
HETATM   17  C21 UNL     1      20.360   3.091  46.840  1.00  0.00     0.001 A 
HETATM   18  C22 UNL     1      21.100   4.014  46.144  1.00  0.00     0.002 A 
HETATM   19  C23 UNL     1      21.946   4.878  46.847  1.00  0.00     0.031 A 
HETATM   20  C24 UNL     1      22.066   4.834  48.244  1.00  0.00     0.051 A 
HETATM   21  N4  UNL     1      22.834   5.606  49.073  1.00  0.00    -0.300 N 
HETATM   22  H14 UNL     1      25.308   2.330  52.233  1.00  0.00     0.322 HD
ENDROOT
BRANCH   4  23
HETATM   23  C5  UNL     1      28.639   6.385  48.192  1.00  0.00    -0.006 A 
HETATM   24  C6  UNL     1      29.496   5.328  48.084  1.00  0.00     0.014 A 
HETATM   25  C7  UNL     1      30.849   5.537  47.823  1.00  0.00     0.002 A 
HETATM   26  C8  UNL     1      31.392   6.793  47.660  1.00  0.00     0.019 A 
HETATM   27  C9  UNL     1      30.485   7.806  47.779  1.00  0.00     0.011 A 
HETATM   28 BR1  UNL     1      31.110   9.595  47.575  1.00  0.00    -0.051 Br
HETATM   29  C10 UNL     1      29.164   7.639  48.032  1.00  0.00     0.032 A 
ENDBRANCH   4  23
BRANCH   1  30
HETATM   30  N1  UNL     1      22.799   7.714  48.291  1.00  0.00    -0.379 N 
HETATM   31  C1  UNL     1      22.664   8.744  49.280  1.00  0.00     0.147 C 
HETATM   32  H4  UNL     1      22.290   7.721  47.388  1.00  0.00     0.160 HD
ENDBRANCH   1  30
TORSDOF 2
ENDMDL
MODEL 6
REMARK VINA RESULT:      -8.1      8.533     10.996
REMARK  2 active torsions:
REMARK  status: ('A' for Active; 'I' for Inactive)
REMARK    1  A    between atoms: N1_2  and  C2_3 
REMARK    2  A    between atoms: C4_6  and  C5_7 
ROOT
HETATM    1  C2  UNL     1      22.441   5.663  50.570  1.00  0.00     0.126 C 
HETATM    2  C3  UNL     1      22.937   4.614  51.132  1.00  0.00     0.166 C 
HETATM    3  N2  UNL     1      23.533   3.592  51.865  1.00  0.00    -0.257 NA
HETATM    4  C4  UNL     1      23.589   2.375  51.590  1.00  0.00     0.066 C 
HETATM    5  C11 UNL     1      22.990   1.712  50.469  1.00  0.00     0.030 C 
HETATM    6  C12 UNL     1      22.253   1.790  49.404  1.00  0.00     0.006 C 
HETATM    7  C13 UNL     1      21.451   1.771  48.208  1.00  0.00     0.302 C 
HETATM    8  N3  UNL     1      20.033   2.108  48.417  1.00  0.00     0.089 N 
HETATM    9  C14 UNL     1      18.983   2.937  48.854  1.00  0.00     0.351 A 
HETATM   10  O1  UNL     1      20.086   3.468  49.100  1.00  0.00    -0.150 OA
HETATM   11  C15 UNL     1      18.410   4.138  49.470  1.00  0.00     0.086 C 
HETATM   12  C16 UNL     1      19.495   5.008  50.037  1.00  0.00     0.062 C 
HETATM   13  C17 UNL     1      20.422   5.541  49.028  1.00  0.00     0.020 A 
HETATM   14  C18 UNL     1      20.222   5.852  47.727  1.00  0.00     0.039 A 
HETATM   15  C19 UNL     1      21.355   6.340  47.122  1.00  0.00    -0.007 A 
HETATM   16  C20 UNL     1      21.756   6.808  45.892  1.00  0.00     0.014 A 
HETATM   17  C21 UNL     1      23.043   7.243  45.664  1.00  0.00     0.001 A 
HETATM   18  C22 UNL     1      23.960   7.213  46.684  1.00  0.00     0.002 A 
HETATM   19  C23 UNL     1      23.565   6.739  47.940  1.00  0.00     0.031 A 
HETATM   20  C24 UNL     1      22.261   6.291  48.194  1.00  0.00     0.051 A 
HETATM   21  N4  UNL     1      21.719   5.811  49.356  1.00  0.00    -0.300 N 
HETATM   22  H14 UNL     1      19.260   1.424  48.110  1.00  0.00     0.322 HD
ENDROOT
BRANCH   4  23
HETATM   23  C5  UNL     1      24.254   1.452  52.461  1.00  0.00    -0.006 A 
HETATM   24  C6  UNL     1      23.458   0.456  52.952  1.00  0.00     0.014 A 
HETATM   25  C7  UNL     1      23.978  -0.508  53.813  1.00  0.00     0.002 A 
HETATM   26  C8  UNL     1      25.298  -0.517  54.212  1.00  0.00     0.019 A 
HETATM   27  C9  UNL     1      26.040   0.501  53.687  1.00  0.00     0.011 A 
HETATM   28 BR1  UNL     1      27.883   0.602  54.163  1.00  0.00    -0.051 Br
HETATM   29  C10 UNL     1      25.566   1.455  52.849  1.00  0.00     0.032 A 
ENDBRANCH   4  23
BRANCH   1  30
HETATM   30  N1  UNL     1      22.548   7.020  51.060  1.00  0.00    -0.379 N 
HETATM   31  C1  UNL     1      23.881   7.527  51.208  1.00  0.00     0.147 C 
HETATM   32  H4  UNL     1      21.701   7.573  51.284  1.00  0.00     0.160 HD
ENDBRANCH   1  30
TORSDOF 2
ENDMDL
MODEL 7
REMARK VINA RESULT:      -8.1      3.859      8.007
REMARK  2 active torsions:
REMARK  status: ('A' for Active; 'I' for Inactive)
REMARK    1  A    between atoms: N1_2  and  C2_3 
REMARK    2  A    between atoms: C4_6  and  C5_7 
ROOT
HETATM    1  C2  UNL     1      27.045   8.925  47.030  1.00  0.00     0.126 C 
HETATM    2  C3  UNL     1      28.130   8.267  47.256  1.00  0.00     0.166 C 
HETATM    3  N2  UNL     1      29.388   7.697  47.433  1.00  0.00    -0.257 NA
HETATM    4  C4  UNL     1      29.668   6.564  47.873  1.00  0.00     0.066 C 
HETATM    5  C11 UNL     1      28.754   5.578  48.372  1.00  0.00     0.030 C 
HETATM    6  C12 UNL     1      27.531   5.250  48.659  1.00  0.00     0.006 C 
HETATM    7  C13 UNL     1      26.212   4.790  49.010  1.00  0.00     0.302 C 
HETATM    8  N3  UNL     1      25.574   5.539  50.104  1.00  0.00     0.089 N 
HETATM    9  C14 UNL     1      25.100   6.711  50.725  1.00  0.00     0.351 A 
HETATM   10  O1  UNL     1      25.613   6.983  49.619  1.00  0.00    -0.150 OA
HETATM   11  C15 UNL     1      24.851   8.152  50.822  1.00  0.00     0.086 C 
HETATM   12  C16 UNL     1      25.478   8.874  49.663  1.00  0.00     0.062 C 
HETATM   13  C17 UNL     1      24.914   8.509  48.356  1.00  0.00     0.020 A 
HETATM   14  C18 UNL     1      23.670   8.099  48.018  1.00  0.00     0.039 A 
HETATM   15  C19 UNL     1      23.541   7.865  46.670  1.00  0.00    -0.007 A 
HETATM   16  C20 UNL     1      22.578   7.464  45.774  1.00  0.00     0.014 A 
HETATM   17  C21 UNL     1      22.841   7.353  44.426  1.00  0.00     0.001 A 
HETATM   18  C22 UNL     1      24.094   7.648  43.952  1.00  0.00     0.002 A 
HETATM   19  C23 UNL     1      25.083   8.057  44.854  1.00  0.00     0.031 A 
HETATM   20  C24 UNL     1      24.837   8.177  46.229  1.00  0.00     0.051 A 
HETATM   21  N4  UNL     1      25.685   8.568  47.231  1.00  0.00    -0.300 N 
HETATM   22  H14 UNL     1      25.228   5.028  50.986  1.00  0.00     0.322 HD
ENDROOT
BRANCH   4  23
HETATM   23  C5  UNL     1      31.029   6.130  47.985  1.00  0.00    -0.006 A 
HETATM   24  C6  UNL     1      31.901   7.093  48.407  1.00  0.00     0.014 A 
HETATM   25  C7  UNL     1      33.256   6.804  48.556  1.00  0.00     0.002 A 
HETATM   26  C8  UNL     1      33.788   5.559  48.294  1.00  0.00     0.019 A 
HETATM   27  C9  UNL     1      32.866   4.643  47.877  1.00  0.00     0.011 A 
HETATM   28 BR1  UNL     1      33.473   2.880  47.481  1.00  0.00    -0.051 Br
HETATM   29  C10 UNL     1      31.542   4.889  47.721  1.00  0.00     0.032 A 
ENDBRANCH   4  23
BRANCH   1  30
HETATM   30  N1  UNL     1      26.958  10.247  46.448  1.00  0.00    -0.379 N 
HETATM   31  C1  UNL     1      27.732  11.266  47.096  1.00  0.00     0.147 C 
HETATM   32  H4  UNL     1      26.369  10.423  45.615  1.00  0.00     0.160 HD
ENDBRANCH   1  30
TORSDOF 2
ENDMDL
MODEL 8
REMARK VINA RESULT:      -7.9     13.095     16.477
REMARK  2 active torsions:
REMARK  status: ('A' for Active; 'I' for Inactive)
REMARK    1  A    between atoms: N1_2  and  C2_3 
REMARK    2  A    between atoms: C4_6  and  C5_7 
ROOT
HETATM    1  C2  UNL     1      17.268   3.094  50.893  1.00  0.00     0.126 C 
HETATM    2  C3  UNL     1      18.214   2.416  51.445  1.00  0.00     0.166 C 
HETATM    3  N2  UNL     1      19.333   1.831  52.032  1.00  0.00    -0.257 NA
HETATM    4  C4  UNL     1      19.484   0.648  52.400  1.00  0.00     0.066 C 
HETATM    5  C11 UNL     1      18.507  -0.401  52.366  1.00  0.00     0.030 C 
HETATM    6  C12 UNL     1      17.291  -0.770  52.101  1.00  0.00     0.006 C 
HETATM    7  C13 UNL     1      15.969  -1.279  51.838  1.00  0.00     0.302 C 
HETATM    8  N3  UNL     1      14.911  -0.692  52.675  1.00  0.00     0.089 N 
HETATM    9  C14 UNL     1      14.163   0.379  53.200  1.00  0.00     0.351 A 
HETATM   10  O1  UNL     1      15.052   0.805  52.432  1.00  0.00    -0.150 OA
HETATM   11  C15 UNL     1      13.812   1.792  53.371  1.00  0.00     0.086 C 
HETATM   12  C16 UNL     1      14.800   2.671  52.659  1.00  0.00     0.062 C 
HETATM   13  C17 UNL     1      14.817   2.490  51.200  1.00  0.00     0.020 A 
HETATM   14  C18 UNL     1      13.831   2.127  50.347  1.00  0.00     0.039 A 
HETATM   15  C19 UNL     1      14.255   2.083  49.041  1.00  0.00    -0.007 A 
HETATM   16  C20 UNL     1      13.746   1.807  47.793  1.00  0.00     0.014 A 
HETATM   17  C21 UNL     1      14.522   1.886  46.658  1.00  0.00     0.001 A 
HETATM   18  C22 UNL     1      15.842   2.249  46.762  1.00  0.00     0.002 A 
HETATM   19  C23 UNL     1      16.372   2.532  48.025  1.00  0.00     0.031 A 
HETATM   20  C24 UNL     1      15.600   2.458  49.194  1.00  0.00     0.051 A 
HETATM   21  N4  UNL     1      15.962   2.708  50.491  1.00  0.00    -0.300 N 
HETATM   22  H14 UNL     1      14.278  -1.324  53.275  1.00  0.00     0.322 HD
ENDROOT
BRANCH   4  23
HETATM   23  C5  UNL     1      20.715   0.208  52.986  1.00  0.00    -0.006 A 
HETATM   24  C6  UNL     1      20.581  -0.770  53.929  1.00  0.00     0.014 A 
HETATM   25  C7  UNL     1      21.700  -1.286  54.579  1.00  0.00     0.002 A 
HETATM   26  C8  UNL     1      22.982  -0.852  54.316  1.00  0.00     0.019 A 
HETATM   27  C9  UNL     1      23.049   0.125  53.366  1.00  0.00     0.011 A 
HETATM   28 BR1  UNL     1      24.767   0.813  52.911  1.00  0.00    -0.051 Br
HETATM   29  C10 UNL     1      21.982   0.649  52.714  1.00  0.00     0.032 A 
ENDBRANCH   4  23
BRANCH   1  30
HETATM   30  N1  UNL     1      17.339   4.484  50.496  1.00  0.00    -0.379 N 
HETATM   31  C1  UNL     1      18.603   4.920  49.976  1.00  0.00     0.147 C 
HETATM   32  H4  UNL     1      16.517   5.107  50.590  1.00  0.00     0.160 HD
ENDBRANCH   1  30
TORSDOF 2
ENDMDL
MODEL 9
REMARK VINA RESULT:      -7.9      2.452      3.368
REMARK  2 active torsions:
REMARK  status: ('A' for Active; 'I' for Inactive)
REMARK    1  A    between atoms: N1_2  and  C2_3 
REMARK    2  A    between atoms: C4_6  and  C5_7 
ROOT
HETATM    1  C2  UNL     1      31.548   8.424  48.226  1.00  0.00     0.126 C 
HETATM    2  C3  UNL     1      30.407   7.838  48.353  1.00  0.00     0.166 C 
HETATM    3  N2  UNL     1      29.261   7.084  48.590  1.00  0.00    -0.257 NA
HETATM    4  C4  UNL     1      28.108   7.272  48.151  1.00  0.00     0.066 C 
HETATM    5  C11 UNL     1      27.659   8.361  47.333  1.00  0.00     0.030 C 
HETATM    6  C12 UNL     1      27.934   9.477  46.731  1.00  0.00     0.006 C 
HETATM    7  C13 UNL     1      28.139  10.719  46.029  1.00  0.00     0.302 C 
HETATM    8  N3  UNL     1      28.469  11.863  46.894  1.00  0.00     0.089 N 
HETATM    9  C14 UNL     1      29.238  12.532  47.866  1.00  0.00     0.351 A 
HETATM   10  O1  UNL     1      29.693  11.386  47.666  1.00  0.00    -0.150 OA
HETATM   11  C15 UNL     1      30.330  12.659  48.835  1.00  0.00     0.086 C 
HETATM   12  C16 UNL     1      31.064  11.356  48.976  1.00  0.00     0.062 C 
HETATM   13  C17 UNL     1      31.738  10.915  47.746  1.00  0.00     0.020 A 
HETATM   14  C18 UNL     1      32.271  11.632  46.729  1.00  0.00     0.039 A 
HETATM   15  C19 UNL     1      32.827  10.834  45.758  1.00  0.00    -0.007 A 
HETATM   16  C20 UNL     1      33.486  10.966  44.558  1.00  0.00     0.014 A 
HETATM   17  C21 UNL     1      33.923   9.872  43.844  1.00  0.00     0.001 A 
HETATM   18  C22 UNL     1      33.697   8.609  44.333  1.00  0.00     0.002 A 
HETATM   19  C23 UNL     1      33.027   8.461  45.551  1.00  0.00     0.031 A 
HETATM   20  C24 UNL     1      32.575   9.561  46.295  1.00  0.00     0.051 A 
HETATM   21  N4  UNL     1      31.917   9.586  47.496  1.00  0.00    -0.300 N 
HETATM   22  H14 UNL     1      27.867  12.755  46.871  1.00  0.00     0.322 HD
ENDROOT
BRANCH   4  23
HETATM   23  C5  UNL     1      27.034   6.388  48.494  1.00  0.00    -0.006 A 
HETATM   24  C6  UNL     1      25.787   6.868  48.211  1.00  0.00     0.014 A 
HETATM   25  C7  UNL     1      24.654   6.108  48.497  1.00  0.00     0.002 A 
HETATM   26  C8  UNL     1      24.720   4.855  49.067  1.00  0.00     0.019 A 
HETATM   27  C9  UNL     1      25.992   4.433  49.324  1.00  0.00     0.011 A 
HETATM   28 BR1  UNL     1      26.221   2.714  50.115  1.00  0.00    -0.051 Br
HETATM   29  C10 UNL     1      27.115   5.144  49.060  1.00  0.00     0.032 A 
ENDBRANCH   4  23
BRANCH   1  30
HETATM   30  N1  UNL     1      32.799   7.983  48.803  1.00  0.00    -0.379 N 
HETATM   31  C1  UNL     1      33.017   6.566  48.810  1.00  0.00     0.147 C 
HETATM   32  H4  UNL     1      33.480   8.666  49.182  1.00  0.00     0.160 HD
ENDBRANCH   1  30
TORSDOF 2
ENDMDL
