MODEL 1
REMARK VINA RESULT:      -9.0      0.000      0.000
REMARK  6 active torsions:
REMARK  status: ('A' for Active; 'I' for Inactive)
REMARK    1  A    between atoms: N1_2  and  C2_3 
REMARK    2  A    between atoms: C2_3  and  C3_4 
REMARK    3  A    between atoms: C4_5  and  C5_6 
REMARK       I    between atoms: C5_6  and  N2_8 
REMARK    4  A    between atoms: N2_8  and  C6_9 
REMARK    5  A    between atoms: C13_18  and  N5_19 
REMARK    6  A    between atoms: N5_19  and  C14_20 
ROOT
HETATM    1  C6  UNL     1      24.260   3.268  49.985  1.00  0.00     0.035 A 
HETATM    2  C7  UNL     1      23.293   3.074  49.008  1.00  0.00     0.032 A 
HETATM    3  C8  UNL     1      22.263   2.157  49.180  1.00  0.00     0.035 A 
HETATM    4  C9  UNL     1      22.226   1.429  50.373  1.00  0.00     0.069 A 
HETATM    5  N3  UNL     1      21.248   0.530  50.586  1.00  0.00    -0.259 NA
HETATM    6  C10 UNL     1      21.256  -0.144  51.750  1.00  0.00     0.142 A 
HETATM    7  C11 UNL     1      22.194   0.015  52.747  1.00  0.00     0.089 A 
HETATM    8  C12 UNL     1      22.093  -0.758  53.931  1.00  0.00     0.103 C 
HETATM    9  N4  UNL     1      22.000  -1.375  54.899  1.00  0.00    -0.191 NA
HETATM   10  C13 UNL     1      23.212   0.946  52.535  1.00  0.00     0.067 A 
HETATM   11  C20 UNL     1      23.196   1.636  51.331  1.00  0.00     0.023 A 
HETATM   12  C21 UNL     1      24.211   2.545  51.153  1.00  0.00     0.045 A 
ENDROOT
BRANCH  10  13
HETATM   13  N5  UNL     1      24.198   1.145  53.536  1.00  0.00    -0.354 N 
HETATM   14  H13 UNL     1      23.878   1.706  54.360  1.00  0.00     0.166 HD
BRANCH  13  15
HETATM   15  C14 UNL     1      25.501   0.639  53.443  1.00  0.00     0.033 A 
HETATM   16  C15 UNL     1      25.678  -0.650  52.948  1.00  0.00     0.029 A 
HETATM   17  C16 UNL     1      26.950  -1.168  52.848  1.00  0.00     0.004 A 
HETATM   18  C17 UNL     1      28.026  -0.374  53.250  1.00  0.00     0.019 A 
HETATM   19  C18 UNL     1      27.851   0.914  53.746  1.00  0.00     0.013 A 
HETATM   20 BR1  UNL     1      29.327   1.978  54.286  1.00  0.00    -0.051 Br
HETATM   21  C19 UNL     1      26.564   1.424  53.841  1.00  0.00     0.048 A 
ENDBRANCH  13  15
ENDBRANCH  10  13
BRANCH   1  22
HETATM   22  N2  UNL     1      25.219   4.268  49.579  1.00  0.00    -0.324 N 
HETATM   23  C5  UNL     1      26.585   3.895  49.323  1.00  0.00     0.245 C 
HETATM   24  O1  UNL     1      26.640   2.658  49.530  1.00  0.00    -0.268 OA
HETATM   25  H9  UNL     1      24.684   5.178  49.544  1.00  0.00     0.169 HD
BRANCH  23  26
HETATM   26  C4  UNL     1      27.369   5.057  48.930  1.00  0.00     0.072 C 
HETATM   27  C3  UNL     1      28.385   5.520  48.237  1.00  0.00     0.008 C 
BRANCH  27  28
HETATM   28  C2  UNL     1      28.687   6.950  48.259  1.00  0.00     0.296 C 
BRANCH  28  29
HETATM   29  N1  UNL     1      27.987   7.681  49.307  1.00  0.00     0.082 N 
HETATM   30  C1  UNL     1      28.316   9.072  49.337  1.00  0.00     0.307 C 
HETATM   31  H4  UNL     1      26.950   7.578  49.205  1.00  0.00     0.315 HD
ENDBRANCH  28  29
ENDBRANCH  27  28
ENDBRANCH  23  26
ENDBRANCH   1  22
TORSDOF 6
ENDMDL
MODEL 2
REMARK VINA RESULT:      -8.5      3.473      8.250
REMARK  6 active torsions:
REMARK  status: ('A' for Active; 'I' for Inactive)
REMARK    1  A    between atoms: N1_2  and  C2_3 
REMARK    2  A    between atoms: C2_3  and  C3_4 
REMARK    3  A    between atoms: C4_5  and  C5_6 
REMARK       I    between atoms: C5_6  and  N2_8 
REMARK    4  A    between atoms: N2_8  and  C6_9 
REMARK    5  A    between atoms: C13_18  and  N5_19 
REMARK    6  A    between atoms: N5_19  and  C14_20 
ROOT
HETATM    1  C6  UNL     1      22.113  -0.946  53.759  1.00  0.00     0.035 A 
HETATM    2  C7  UNL     1      22.395  -1.581  54.961  1.00  0.00     0.032 A 
HETATM    3  C8  UNL     1      23.641  -1.467  55.566  1.00  0.00     0.035 A 
HETATM    4  C9  UNL     1      24.611  -0.688  54.928  1.00  0.00     0.069 A 
HETATM    5  N3  UNL     1      25.832  -0.547  55.475  1.00  0.00    -0.259 NA
HETATM    6  C10 UNL     1      26.729   0.213  54.823  1.00  0.00     0.142 A 
HETATM    7  C11 UNL     1      26.495   0.862  53.630  1.00  0.00     0.089 A 
HETATM    8  C12 UNL     1      27.525   1.635  53.040  1.00  0.00     0.103 C 
HETATM    9  N4  UNL     1      28.359   2.276  52.571  1.00  0.00    -0.191 NA
HETATM   10  C13 UNL     1      25.230   0.721  53.054  1.00  0.00     0.067 A 
HETATM   11  C20 UNL     1      24.311  -0.065  53.735  1.00  0.00     0.023 A 
HETATM   12  C21 UNL     1      23.077  -0.183  53.143  1.00  0.00     0.045 A 
ENDROOT
BRANCH  10  13
HETATM   13  N5  UNL     1      24.942   1.375  51.828  1.00  0.00    -0.354 N 
HETATM   14  H13 UNL     1      25.022   0.767  50.979  1.00  0.00     0.166 HD
BRANCH  13  15
HETATM   15  C14 UNL     1      24.580   2.726  51.744  1.00  0.00     0.033 A 
HETATM   16  C15 UNL     1      23.840   3.280  52.784  1.00  0.00     0.029 A 
HETATM   17  C16 UNL     1      23.473   4.605  52.723  1.00  0.00     0.004 A 
HETATM   18  C17 UNL     1      23.860   5.353  51.608  1.00  0.00     0.019 A 
HETATM   19  C18 UNL     1      24.600   4.800  50.567  1.00  0.00     0.013 A 
HETATM   20 BR1  UNL     1      25.117   5.833  49.061  1.00  0.00    -0.051 Br
HETATM   21  C19 UNL     1      24.963   3.463  50.642  1.00  0.00     0.048 A 
ENDBRANCH  13  15
ENDBRANCH  10  13
BRANCH   1  22
HETATM   22  N2  UNL     1      20.760  -1.212  53.333  1.00  0.00    -0.324 N 
HETATM   23  C5  UNL     1      19.786  -0.153  53.322  1.00  0.00     0.245 C 
HETATM   24  O1  UNL     1      20.394   0.868  53.727  1.00  0.00    -0.268 OA
HETATM   25  H9  UNL     1      20.736  -2.238  53.083  1.00  0.00     0.169 HD
BRANCH  23  26
HETATM   26  C4  UNL     1      18.497  -0.646  52.859  1.00  0.00     0.072 C 
HETATM   27  C3  UNL     1      17.494  -0.496  52.022  1.00  0.00     0.008 C 
BRANCH  27  28
HETATM   28  C2  UNL     1      16.368  -1.428  52.066  1.00  0.00     0.296 C 
BRANCH  28  29
HETATM   29  N1  UNL     1      15.343  -1.064  53.036  1.00  0.00     0.082 N 
HETATM   30  C1  UNL     1      14.891   0.285  52.895  1.00  0.00     0.307 C 
HETATM   31  H4  UNL     1      14.521  -1.709  52.970  1.00  0.00     0.315 HD
ENDBRANCH  28  29
ENDBRANCH  27  28
ENDBRANCH  23  26
ENDBRANCH   1  22
TORSDOF 6
ENDMDL
MODEL 3
REMARK VINA RESULT:      -8.3      2.530      4.548
REMARK  6 active torsions:
REMARK  status: ('A' for Active; 'I' for Inactive)
REMARK    1  A    between atoms: N1_2  and  C2_3 
REMARK    2  A    between atoms: C2_3  and  C3_4 
REMARK    3  A    between atoms: C4_5  and  C5_6 
REMARK       I    between atoms: C5_6  and  N2_8 
REMARK    4  A    between atoms: N2_8  and  C6_9 
REMARK    5  A    between atoms: C13_18  and  N5_19 
REMARK    6  A    between atoms: N5_19  and  C14_20 
ROOT
HETATM    1  C6  UNL     1      26.123   2.435  51.599  1.00  0.00     0.035 A 
HETATM    2  C7  UNL     1      26.999   1.526  52.177  1.00  0.00     0.032 A 
HETATM    3  C8  UNL     1      26.538   0.467  52.949  1.00  0.00     0.035 A 
HETATM    4  C9  UNL     1      25.157   0.338  53.130  1.00  0.00     0.069 A 
HETATM    5  N3  UNL     1      24.663  -0.672  53.869  1.00  0.00    -0.259 NA
HETATM    6  C10 UNL     1      23.328  -0.752  54.011  1.00  0.00     0.142 A 
HETATM    7  C11 UNL     1      22.421   0.125  53.456  1.00  0.00     0.089 A 
HETATM    8  C12 UNL     1      21.036  -0.067  53.681  1.00  0.00     0.103 C 
HETATM    9  N4  UNL     1      19.909  -0.235  53.851  1.00  0.00    -0.191 NA
HETATM   10  C13 UNL     1      22.925   1.177  52.688  1.00  0.00     0.067 A 
HETATM   11  C20 UNL     1      24.304   1.251  52.547  1.00  0.00     0.023 A 
HETATM   12  C21 UNL     1      24.768   2.296  51.785  1.00  0.00     0.045 A 
ENDROOT
BRANCH  10  13
HETATM   13  N5  UNL     1      22.028   2.102  52.094  1.00  0.00    -0.354 N 
HETATM   14  H13 UNL     1      21.535   2.730  52.771  1.00  0.00     0.166 HD
BRANCH  13  15
HETATM   15  C14 UNL     1      21.810   2.181  50.712  1.00  0.00     0.033 A 
HETATM   16  C15 UNL     1      21.587   1.003  50.007  1.00  0.00     0.029 A 
HETATM   17  C16 UNL     1      21.370   1.057  48.649  1.00  0.00     0.004 A 
HETATM   18  C17 UNL     1      21.381   2.305  48.022  1.00  0.00     0.019 A 
HETATM   19  C18 UNL     1      21.604   3.484  48.725  1.00  0.00     0.013 A 
HETATM   20 BR1  UNL     1      21.613   5.172  47.855  1.00  0.00    -0.051 Br
HETATM   21  C19 UNL     1      21.821   3.415  50.093  1.00  0.00     0.048 A 
ENDBRANCH  13  15
ENDBRANCH  10  13
BRANCH   1  22
HETATM   22  N2  UNL     1      26.835   3.440  50.847  1.00  0.00    -0.324 N 
HETATM   23  C5  UNL     1      26.405   3.786  49.518  1.00  0.00     0.245 C 
HETATM   24  O1  UNL     1      25.405   3.061  49.289  1.00  0.00    -0.268 OA
HETATM   25  H9  UNL     1      27.618   3.766  51.477  1.00  0.00     0.169 HD
BRANCH  23  26
HETATM   26  C4  UNL     1      27.264   4.816  48.952  1.00  0.00     0.072 C 
HETATM   27  C3  UNL     1      27.353   6.034  48.465  1.00  0.00     0.008 C 
BRANCH  27  28
HETATM   28  C2  UNL     1      28.648   6.541  48.015  1.00  0.00     0.296 C 
BRANCH  28  29
HETATM   29  N1  UNL     1      29.743   6.248  48.930  1.00  0.00     0.082 N 
HETATM   30  C1  UNL     1      30.884   5.686  48.278  1.00  0.00     0.307 C 
HETATM   31  H4  UNL     1      30.036   7.109  49.450  1.00  0.00     0.315 HD
ENDBRANCH  28  29
ENDBRANCH  27  28
ENDBRANCH  23  26
ENDBRANCH   1  22
TORSDOF 6
ENDMDL
MODEL 4
REMARK VINA RESULT:      -8.2      2.676      4.663
REMARK  6 active torsions:
REMARK  status: ('A' for Active; 'I' for Inactive)
REMARK    1  A    between atoms: N1_2  and  C2_3 
REMARK    2  A    between atoms: C2_3  and  C3_4 
REMARK    3  A    between atoms: C4_5  and  C5_6 
REMARK       I    between atoms: C5_6  and  N2_8 
REMARK    4  A    between atoms: N2_8  and  C6_9 
REMARK    5  A    between atoms: C13_18  and  N5_19 
REMARK    6  A    between atoms: N5_19  and  C14_20 
ROOT
HETATM    1  C6  UNL     1      26.381   2.422  51.833  1.00  0.00     0.035 A 
HETATM    2  C7  UNL     1      27.481   1.636  52.146  1.00  0.00     0.032 A 
HETATM    3  C8  UNL     1      27.349   0.467  52.885  1.00  0.00     0.035 A 
HETATM    4  C9  UNL     1      26.068   0.099  53.308  1.00  0.00     0.069 A 
HETATM    5  N3  UNL     1      25.890  -1.025  54.026  1.00  0.00    -0.259 NA
HETATM    6  C10 UNL     1      24.638  -1.335  54.408  1.00  0.00     0.142 A 
HETATM    7  C11 UNL     1      23.517  -0.586  54.120  1.00  0.00     0.089 A 
HETATM    8  C12 UNL     1      22.250  -1.021  54.581  1.00  0.00     0.103 C 
HETATM    9  N4  UNL     1      21.219  -1.384  54.943  1.00  0.00    -0.191 NA
HETATM   10  C13 UNL     1      23.693   0.582  53.376  1.00  0.00     0.067 A 
HETATM   11  C20 UNL     1      24.988   0.893  52.987  1.00  0.00     0.023 A 
HETATM   12  C21 UNL     1      25.127   2.048  52.255  1.00  0.00     0.045 A 
ENDROOT
BRANCH  10  13
HETATM   13  N5  UNL     1      22.566   1.382  53.053  1.00  0.00    -0.354 N 
HETATM   14  H13 UNL     1      22.368   2.153  53.732  1.00  0.00     0.166 HD
BRANCH  13  15
HETATM   15  C14 UNL     1      21.772   1.168  51.918  1.00  0.00     0.033 A 
HETATM   16  C15 UNL     1      22.343   1.358  50.663  1.00  0.00     0.029 A 
HETATM   17  C16 UNL     1      21.582   1.153  49.535  1.00  0.00     0.004 A 
HETATM   18  C17 UNL     1      20.251   0.760  49.692  1.00  0.00     0.019 A 
HETATM   19  C18 UNL     1      19.678   0.570  50.946  1.00  0.00     0.013 A 
HETATM   20 BR1  UNL     1      17.867   0.034  51.138  1.00  0.00    -0.051 Br
HETATM   21  C19 UNL     1      20.457   0.780  52.074  1.00  0.00     0.048 A 
ENDBRANCH  13  15
ENDBRANCH  10  13
BRANCH   1  22
HETATM   22  N2  UNL     1      26.768   3.579  51.061  1.00  0.00    -0.324 N 
HETATM   23  C5  UNL     1      26.528   3.612  49.642  1.00  0.00     0.245 C 
HETATM   24  O1  UNL     1      25.980   2.517  49.368  1.00  0.00    -0.268 OA
HETATM   25  H9  UNL     1      27.199   4.252  51.752  1.00  0.00     0.169 HD
BRANCH  23  26
HETATM   26  C4  UNL     1      26.996   4.867  49.072  1.00  0.00     0.072 C 
HETATM   27  C3  UNL     1      26.687   6.080  48.670  1.00  0.00     0.008 C 
BRANCH  27  28
HETATM   28  C2  UNL     1      27.730   6.953  48.132  1.00  0.00     0.296 C 
BRANCH  28  29
HETATM   29  N1  UNL     1      28.464   7.687  49.154  1.00  0.00     0.082 N 
HETATM   30  C1  UNL     1      29.366   8.655  48.612  1.00  0.00     0.307 C 
HETATM   31  H4  UNL     1      27.807   8.165  49.816  1.00  0.00     0.315 HD
ENDBRANCH  28  29
ENDBRANCH  27  28
ENDBRANCH  23  26
ENDBRANCH   1  22
TORSDOF 6
ENDMDL
MODEL 5
REMARK VINA RESULT:      -7.9      3.666      6.329
REMARK  6 active torsions:
REMARK  status: ('A' for Active; 'I' for Inactive)
REMARK    1  A    between atoms: N1_2  and  C2_3 
REMARK    2  A    between atoms: C2_3  and  C3_4 
REMARK    3  A    between atoms: C4_5  and  C5_6 
REMARK       I    between atoms: C5_6  and  N2_8 
REMARK    4  A    between atoms: N2_8  and  C6_9 
REMARK    5  A    between atoms: C13_18  and  N5_19 
REMARK    6  A    between atoms: N5_19  and  C14_20 
ROOT
HETATM    1  C6  UNL     1      23.398  -0.345  53.391  1.00  0.00     0.035 A 
HETATM    2  C7  UNL     1      22.828  -1.009  54.468  1.00  0.00     0.032 A 
HETATM    3  C8  UNL     1      21.454  -1.200  54.557  1.00  0.00     0.035 A 
HETATM    4  C9  UNL     1      20.654  -0.701  53.525  1.00  0.00     0.069 A 
HETATM    5  N3  UNL     1      19.319  -0.861  53.566  1.00  0.00    -0.259 NA
HETATM    6  C10 UNL     1      18.595  -0.364  52.548  1.00  0.00     0.142 A 
HETATM    7  C11 UNL     1      19.116   0.302  51.460  1.00  0.00     0.089 A 
HETATM    8  C12 UNL     1      18.244   0.780  50.450  1.00  0.00     0.103 C 
HETATM    9  N4  UNL     1      17.536   1.154  49.623  1.00  0.00    -0.191 NA
HETATM   10  C13 UNL     1      20.501   0.473  51.409  1.00  0.00     0.067 A 
HETATM   11  C20 UNL     1      21.239  -0.043  52.463  1.00  0.00     0.023 A 
HETATM   12  C21 UNL     1      22.599   0.141  52.383  1.00  0.00     0.045 A 
ENDROOT
BRANCH  10  13
HETATM   13  N5  UNL     1      21.082   1.149  50.305  1.00  0.00    -0.354 N 
HETATM   14  H13 UNL     1      21.118   0.592  49.419  1.00  0.00     0.166 HD
BRANCH  13  15
HETATM   15  C14 UNL     1      21.574   2.459  50.379  1.00  0.00     0.033 A 
HETATM   16  C15 UNL     1      20.746   3.450  50.898  1.00  0.00     0.029 A 
HETATM   17  C16 UNL     1      21.209   4.744  50.981  1.00  0.00     0.004 A 
HETATM   18  C17 UNL     1      22.504   5.018  50.536  1.00  0.00     0.019 A 
HETATM   19  C18 UNL     1      23.333   4.029  50.015  1.00  0.00     0.013 A 
HETATM   20 BR1  UNL     1      25.091   4.421  49.417  1.00  0.00    -0.051 Br
HETATM   21  C19 UNL     1      22.854   2.729  49.939  1.00  0.00     0.048 A 
ENDBRANCH  13  15
ENDBRANCH  10  13
BRANCH   1  22
HETATM   22  N2  UNL     1      24.834  -0.273  53.522  1.00  0.00    -0.324 N 
HETATM   23  C5  UNL     1      25.491   1.006  53.572  1.00  0.00     0.245 C 
HETATM   24  O1  UNL     1      24.574   1.859  53.482  1.00  0.00    -0.268 OA
HETATM   25  H9  UNL     1      25.167  -1.275  53.560  1.00  0.00     0.169 HD
BRANCH  23  26
HETATM   26  C4  UNL     1      26.931   0.838  53.705  1.00  0.00     0.072 C 
HETATM   27  C3  UNL     1      27.930   0.426  54.453  1.00  0.00     0.008 C 
BRANCH  27  28
HETATM   28  C2  UNL     1      29.302   0.546  53.961  1.00  0.00     0.296 C 
BRANCH  28  29
HETATM   29  N1  UNL     1      30.019  -0.721  53.909  1.00  0.00     0.082 N 
HETATM   30  C1  UNL     1      29.272  -1.763  53.277  1.00  0.00     0.307 C 
HETATM   31  H4  UNL     1      30.936  -0.612  53.417  1.00  0.00     0.315 HD
ENDBRANCH  28  29
ENDBRANCH  27  28
ENDBRANCH  23  26
ENDBRANCH   1  22
TORSDOF 6
ENDMDL
MODEL 6
REMARK VINA RESULT:      -7.5      4.123     10.056
REMARK  6 active torsions:
REMARK  status: ('A' for Active; 'I' for Inactive)
REMARK    1  A    between atoms: N1_2  and  C2_3 
REMARK    2  A    between atoms: C2_3  and  C3_4 
REMARK    3  A    between atoms: C4_5  and  C5_6 
REMARK       I    between atoms: C5_6  and  N2_8 
REMARK    4  A    between atoms: N2_8  and  C6_9 
REMARK    5  A    between atoms: C13_18  and  N5_19 
REMARK    6  A    between atoms: N5_19  and  C14_20 
ROOT
HETATM    1  C6  UNL     1      28.280   7.067  48.275  1.00  0.00     0.035 A 
HETATM    2  C7  UNL     1      27.648   7.868  47.335  1.00  0.00     0.032 A 
HETATM    3  C8  UNL     1      28.362   8.767  46.552  1.00  0.00     0.035 A 
HETATM    4  C9  UNL     1      29.745   8.844  46.736  1.00  0.00     0.069 A 
HETATM    5  N3  UNL     1      30.480   9.698  46.001  1.00  0.00    -0.259 NA
HETATM    6  C10 UNL     1      31.806   9.733  46.216  1.00  0.00     0.142 A 
HETATM    7  C11 UNL     1      32.477   8.956  47.137  1.00  0.00     0.089 A 
HETATM    8  C12 UNL     1      33.882   9.086  47.269  1.00  0.00     0.103 C 
HETATM    9  N4  UNL     1      35.026   9.182  47.364  1.00  0.00    -0.191 NA
HETATM   10  C13 UNL     1      31.723   8.066  47.904  1.00  0.00     0.067 A 
HETATM   11  C20 UNL     1      30.355   8.038  47.675  1.00  0.00     0.023 A 
HETATM   12  C21 UNL     1      29.642   7.152  48.446  1.00  0.00     0.045 A 
ENDROOT
BRANCH  10  13
HETATM   13  N5  UNL     1      32.372   7.244  48.862  1.00  0.00    -0.354 N 
HETATM   14  H13 UNL     1      32.293   7.578  49.851  1.00  0.00     0.166 HD
BRANCH  13  15
HETATM   15  C14 UNL     1      33.068   6.075  48.525  1.00  0.00     0.033 A 
HETATM   16  C15 UNL     1      34.415   5.985  48.862  1.00  0.00     0.029 A 
HETATM   17  C16 UNL     1      35.118   4.846  48.541  1.00  0.00     0.004 A 
HETATM   18  C17 UNL     1      34.448   3.813  47.882  1.00  0.00     0.019 A 
HETATM   19  C18 UNL     1      33.101   3.901  47.544  1.00  0.00     0.013 A 
HETATM   20 BR1  UNL     1      32.207   2.485  46.650  1.00  0.00    -0.051 Br
HETATM   21  C19 UNL     1      32.405   5.055  47.874  1.00  0.00     0.048 A 
ENDBRANCH  13  15
ENDBRANCH  10  13
BRANCH   1  22
HETATM   22  N2  UNL     1      27.334   6.219  48.960  1.00  0.00    -0.324 N 
HETATM   23  C5  UNL     1      27.487   4.789  48.922  1.00  0.00     0.245 C 
HETATM   24  O1  UNL     1      28.514   4.579  48.231  1.00  0.00    -0.268 OA
HETATM   25  H9  UNL     1      26.635   6.874  49.407  1.00  0.00     0.169 HD
BRANCH  23  26
HETATM   26  C4  UNL     1      26.426   4.138  49.676  1.00  0.00     0.072 C 
HETATM   27  C3  UNL     1      25.425   3.285  49.663  1.00  0.00     0.008 C 
BRANCH  27  28
HETATM   28  C2  UNL     1      24.663   3.043  50.887  1.00  0.00     0.296 C 
BRANCH  28  29
HETATM   29  N1  UNL     1      24.655   4.173  51.806  1.00  0.00     0.082 N 
HETATM   30  C1  UNL     1      23.345   4.513  52.266  1.00  0.00     0.307 C 
HETATM   31  H4  UNL     1      25.270   3.987  52.633  1.00  0.00     0.315 HD
ENDBRANCH  28  29
ENDBRANCH  27  28
ENDBRANCH  23  26
ENDBRANCH   1  22
TORSDOF 6
ENDMDL
MODEL 7
REMARK VINA RESULT:      -7.5      3.342      7.874
REMARK  6 active torsions:
REMARK  status: ('A' for Active; 'I' for Inactive)
REMARK    1  A    between atoms: N1_2  and  C2_3 
REMARK    2  A    between atoms: C2_3  and  C3_4 
REMARK    3  A    between atoms: C4_5  and  C5_6 
REMARK       I    between atoms: C5_6  and  N2_8 
REMARK    4  A    between atoms: N2_8  and  C6_9 
REMARK    5  A    between atoms: C13_18  and  N5_19 
REMARK    6  A    between atoms: N5_19  and  C14_20 
ROOT
HETATM    1  C6  UNL     1      24.775   3.900  50.523  1.00  0.00     0.035 A 
HETATM    2  C7  UNL     1      23.714   3.306  49.853  1.00  0.00     0.032 A 
HETATM    3  C8  UNL     1      23.079   3.944  48.794  1.00  0.00     0.035 A 
HETATM    4  C9  UNL     1      23.540   5.208  48.417  1.00  0.00     0.069 A 
HETATM    5  N3  UNL     1      22.957   5.864  47.397  1.00  0.00    -0.259 NA
HETATM    6  C10 UNL     1      23.438   7.077  47.073  1.00  0.00     0.142 A 
HETATM    7  C11 UNL     1      24.489   7.705  47.708  1.00  0.00     0.089 A 
HETATM    8  C12 UNL     1      24.903   8.987  47.271  1.00  0.00     0.103 C 
HETATM    9  N4  UNL     1      25.249  10.023  46.904  1.00  0.00    -0.191 NA
HETATM   10  C13 UNL     1      25.100   7.031  48.768  1.00  0.00     0.067 A 
HETATM   11  C20 UNL     1      24.596   5.781  49.095  1.00  0.00     0.023 A 
HETATM   12  C21 UNL     1      25.219   5.144  50.141  1.00  0.00     0.045 A 
ENDROOT
BRANCH  10  13
HETATM   13  N5  UNL     1      26.187   7.638  49.448  1.00  0.00    -0.354 N 
HETATM   14  H13 UNL     1      25.943   8.061  50.374  1.00  0.00     0.166 HD
BRANCH  13  15
HETATM   15  C14 UNL     1      27.491   7.675  48.934  1.00  0.00     0.033 A 
HETATM   16  C15 UNL     1      27.944   6.586  48.197  1.00  0.00     0.029 A 
HETATM   17  C16 UNL     1      29.221   6.600  47.683  1.00  0.00     0.004 A 
HETATM   18  C17 UNL     1      30.022   7.719  47.922  1.00  0.00     0.019 A 
HETATM   19  C18 UNL     1      29.571   8.809  48.659  1.00  0.00     0.013 A 
HETATM   20 BR1  UNL     1      30.675  10.321  48.972  1.00  0.00    -0.051 Br
HETATM   21  C19 UNL     1      28.282   8.781  49.171  1.00  0.00     0.048 A 
ENDBRANCH  13  15
ENDBRANCH  10  13
BRANCH   1  22
HETATM   22  N2  UNL     1      25.269   3.048  51.579  1.00  0.00    -0.324 N 
HETATM   23  C5  UNL     1      26.467   2.276  51.383  1.00  0.00     0.245 C 
HETATM   24  O1  UNL     1      26.853   2.544  50.219  1.00  0.00    -0.268 OA
HETATM   25  H9  UNL     1      24.588   3.164  52.379  1.00  0.00     0.169 HD
BRANCH  23  26
HETATM   26  C4  UNL     1      26.775   1.496  52.572  1.00  0.00     0.072 C 
HETATM   27  C3  UNL     1      27.213   1.499  53.812  1.00  0.00     0.008 C 
BRANCH  27  28
HETATM   28  C2  UNL     1      27.296   0.242  54.555  1.00  0.00     0.296 C 
BRANCH  28  29
HETATM   29  N1  UNL     1      28.652  -0.123  54.941  1.00  0.00     0.082 N 
HETATM   30  C1  UNL     1      29.407  -0.691  53.868  1.00  0.00     0.307 C 
HETATM   31  H4  UNL     1      29.168   0.705  55.321  1.00  0.00     0.315 HD
ENDBRANCH  28  29
ENDBRANCH  27  28
ENDBRANCH  23  26
ENDBRANCH   1  22
TORSDOF 6
ENDMDL
MODEL 8
REMARK VINA RESULT:      -7.3      2.856      6.418
REMARK  6 active torsions:
REMARK  status: ('A' for Active; 'I' for Inactive)
REMARK    1  A    between atoms: N1_2  and  C2_3 
REMARK    2  A    between atoms: C2_3  and  C3_4 
REMARK    3  A    between atoms: C4_5  and  C5_6 
REMARK       I    between atoms: C5_6  and  N2_8 
REMARK    4  A    between atoms: N2_8  and  C6_9 
REMARK    5  A    between atoms: C13_18  and  N5_19 
REMARK    6  A    between atoms: N5_19  and  C14_20 
ROOT
HETATM    1  C6  UNL     1      23.990   0.850  52.641  1.00  0.00     0.035 A 
HETATM    2  C7  UNL     1      23.051   0.338  53.525  1.00  0.00     0.032 A 
HETATM    3  C8  UNL     1      21.706   0.671  53.426  1.00  0.00     0.035 A 
HETATM    4  C9  UNL     1      21.319   1.544  52.405  1.00  0.00     0.069 A 
HETATM    5  N3  UNL     1      20.028   1.896  52.268  1.00  0.00    -0.259 NA
HETATM    6  C10 UNL     1      19.707   2.736  51.269  1.00  0.00     0.142 A 
HETATM    7  C11 UNL     1      20.604   3.269  50.368  1.00  0.00     0.089 A 
HETATM    8  C12 UNL     1      20.141   4.147  49.357  1.00  0.00     0.103 C 
HETATM    9  N4  UNL     1      19.760   4.848  48.526  1.00  0.00    -0.191 NA
HETATM   10  C13 UNL     1      21.947   2.910  50.502  1.00  0.00     0.067 A 
HETATM   11  C20 UNL     1      22.267   2.042  51.536  1.00  0.00     0.023 A 
HETATM   12  C21 UNL     1      23.596   1.707  51.641  1.00  0.00     0.045 A 
ENDROOT
BRANCH  10  13
HETATM   13  N5  UNL     1      22.905   3.432  49.595  1.00  0.00    -0.354 N 
HETATM   14  H13 UNL     1      22.973   2.916  48.686  1.00  0.00     0.166 HD
BRANCH  13  15
HETATM   15  C14 UNL     1      23.704   4.547  49.879  1.00  0.00     0.033 A 
HETATM   16  C15 UNL     1      23.279   5.434  50.863  1.00  0.00     0.029 A 
HETATM   17  C16 UNL     1      24.048   6.537  51.159  1.00  0.00     0.004 A 
HETATM   18  C17 UNL     1      25.238   6.727  50.454  1.00  0.00     0.019 A 
HETATM   19  C18 UNL     1      25.665   5.842  49.469  1.00  0.00     0.013 A 
HETATM   20 BR1  UNL     1      27.287   6.117  48.522  1.00  0.00    -0.051 Br
HETATM   21  C19 UNL     1      24.880   4.735  49.182  1.00  0.00     0.048 A 
ENDBRANCH  13  15
ENDBRANCH  10  13
BRANCH   1  22
HETATM   22  N2  UNL     1      25.314   0.360  52.943  1.00  0.00    -0.324 N 
HETATM   23  C5  UNL     1      26.248   1.194  53.652  1.00  0.00     0.245 C 
HETATM   24  O1  UNL     1      25.639   2.270  53.871  1.00  0.00    -0.268 OA
HETATM   25  H9  UNL     1      25.353  -0.619  52.546  1.00  0.00     0.169 HD
BRANCH  23  26
HETATM   26  C4  UNL     1      27.513   0.499  53.845  1.00  0.00     0.072 C 
HETATM   27  C3  UNL     1      28.588   0.350  54.586  1.00  0.00     0.008 C 
BRANCH  27  28
HETATM   28  C2  UNL     1      29.606  -0.625  54.198  1.00  0.00     0.296 C 
BRANCH  28  29
HETATM   29  N1  UNL     1      29.274  -1.372  52.993  1.00  0.00     0.082 N 
HETATM   30  C1  UNL     1      28.988  -2.750  53.248  1.00  0.00     0.307 C 
HETATM   31  H4  UNL     1      28.458  -0.940  52.498  1.00  0.00     0.315 HD
ENDBRANCH  28  29
ENDBRANCH  27  28
ENDBRANCH  23  26
ENDBRANCH   1  22
TORSDOF 6
ENDMDL
MODEL 9
REMARK VINA RESULT:      -7.2      3.456      6.080
REMARK  6 active torsions:
REMARK  status: ('A' for Active; 'I' for Inactive)
REMARK    1  A    between atoms: N1_2  and  C2_3 
REMARK    2  A    between atoms: C2_3  and  C3_4 
REMARK    3  A    between atoms: C4_5  and  C5_6 
REMARK       I    between atoms: C5_6  and  N2_8 
REMARK    4  A    between atoms: N2_8  and  C6_9 
REMARK    5  A    between atoms: C13_18  and  N5_19 
REMARK    6  A    between atoms: N5_19  and  C14_20 
ROOT
HETATM    1  C6  UNL     1      23.792   3.534  51.862  1.00  0.00     0.035 A 
HETATM    2  C7  UNL     1      23.794   4.921  51.884  1.00  0.00     0.032 A 
HETATM    3  C8  UNL     1      22.731   5.656  51.372  1.00  0.00     0.035 A 
HETATM    4  C9  UNL     1      21.649   4.955  50.831  1.00  0.00     0.069 A 
HETATM    5  N3  UNL     1      20.596   5.622  50.324  1.00  0.00    -0.259 NA
HETATM    6  C10 UNL     1      19.581   4.901  49.816  1.00  0.00     0.142 A 
HETATM    7  C11 UNL     1      19.535   3.524  49.773  1.00  0.00     0.089 A 
HETATM    8  C12 UNL     1      18.405   2.880  49.210  1.00  0.00     0.103 C 
HETATM    9  N4  UNL     1      17.479   2.359  48.766  1.00  0.00    -0.191 NA
HETATM   10  C13 UNL     1      20.623   2.824  50.297  1.00  0.00     0.067 A 
HETATM   11  C20 UNL     1      21.665   3.576  50.818  1.00  0.00     0.023 A 
HETATM   12  C21 UNL     1      22.721   2.857  51.327  1.00  0.00     0.045 A 
ENDROOT
BRANCH  10  13
HETATM   13  N5  UNL     1      20.617   1.404  50.277  1.00  0.00    -0.354 N 
HETATM   14  H13 UNL     1      20.956   0.978  49.384  1.00  0.00     0.166 HD
BRANCH  13  15
HETATM   15  C14 UNL     1      20.192   0.623  51.361  1.00  0.00     0.033 A 
HETATM   16  C15 UNL     1      18.854   0.250  51.425  1.00  0.00     0.029 A 
HETATM   17  C16 UNL     1      18.415  -0.518  52.480  1.00  0.00     0.004 A 
HETATM   18  C17 UNL     1      19.338  -0.897  53.457  1.00  0.00     0.019 A 
HETATM   19  C18 UNL     1      20.677  -0.524  53.395  1.00  0.00     0.013 A 
HETATM   20 BR1  UNL     1      21.917  -1.051  54.732  1.00  0.00    -0.051 Br
HETATM   21  C19 UNL     1      21.105   0.249  52.325  1.00  0.00     0.048 A 
ENDBRANCH  13  15
ENDBRANCH  10  13
BRANCH   1  22
HETATM   22  N2  UNL     1      24.997   2.999  52.448  1.00  0.00    -0.324 N 
HETATM   23  C5  UNL     1      26.088   2.586  51.606  1.00  0.00     0.245 C 
HETATM   24  O1  UNL     1      25.706   2.805  50.430  1.00  0.00    -0.268 OA
HETATM   25  H9  UNL     1      24.837   3.014  53.493  1.00  0.00     0.169 HD
BRANCH  23  26
HETATM   26  C4  UNL     1      27.194   2.083  52.407  1.00  0.00     0.072 C 
HETATM   27  C3  UNL     1      27.750   1.046  52.993  1.00  0.00     0.008 C 
BRANCH  27  28
HETATM   28  C2  UNL     1      29.003   1.214  53.728  1.00  0.00     0.296 C 
BRANCH  28  29
HETATM   29  N1  UNL     1      29.796  -0.005  53.821  1.00  0.00     0.082 N 
HETATM   30  C1  UNL     1      29.066  -1.179  53.458  1.00  0.00     0.307 C 
HETATM   31  H4  UNL     1      30.655   0.062  53.225  1.00  0.00     0.315 HD
ENDBRANCH  28  29
ENDBRANCH  27  28
ENDBRANCH  23  26
ENDBRANCH   1  22
TORSDOF 6
ENDMDL
