MODEL 1
REMARK VINA RESULT:      -9.7      0.000      0.000
REMARK  5 active torsions:
REMARK  status: ('A' for Active; 'I' for Inactive)
REMARK       I    between atoms: C1_2  and  N1_3 
REMARK       I    between atoms: C1_2  and  N3_11 
REMARK    1  A    between atoms: N1_3  and  C2_4 
REMARK    2  A    between atoms: C2_4  and  C3_5 
REMARK    3  A    between atoms: N3_11  and  C8_12 
REMARK    4  A    between atoms: C13_19  and  N6_20 
REMARK    5  A    between atoms: N6_20  and  C14_21 
ROOT
HETATM    1  C8  UNL     1      23.250   4.706  52.179  1.00  0.00     0.037 A 
HETATM    2  C9  UNL     1      21.880   4.758  52.280  1.00  0.00     0.032 A 
HETATM    3  C10 UNL     1      21.035   3.678  52.387  1.00  0.00     0.035 A 
HETATM    4  C11 UNL     1      21.597   2.420  52.393  1.00  0.00     0.072 A 
HETATM    5  N4  UNL     1      20.789   1.350  52.496  1.00  0.00    -0.241 NA
HETATM    6  C12 UNL     1      21.313   0.112  52.505  1.00  0.00     0.235 A 
HETATM    7  N5  UNL     1      22.646  -0.004  52.409  1.00  0.00    -0.224 NA
HETATM    8  C13 UNL     1      23.488   1.036  52.304  1.00  0.00     0.138 A 
HETATM    9  C19 UNL     1      22.967   2.318  52.293  1.00  0.00     0.041 A 
HETATM   10  C20 UNL     1      23.748   3.422  52.191  1.00  0.00     0.047 A 
ENDROOT
BRANCH   1  11
HETATM   11  N3  UNL     1      24.153   5.782  52.067  1.00  0.00    -0.309 N 
HETATM   12  C1  UNL     1      24.588   6.455  50.904  1.00  0.00     0.320 C 
HETATM   13  O1  UNL     1      24.126   6.067  49.806  1.00  0.00    -0.247 OA
HETATM   14  N1  UNL     1      25.498   7.530  50.865  1.00  0.00    -0.341 N 
HETATM   15  H1  UNL     1      25.798   7.797  51.857  1.00  0.00     0.164 HD
HETATM   16  H14 UNL     1      24.576   6.158  52.933  1.00  0.00     0.170 HD
BRANCH  14  17
HETATM   17  C2  UNL     1      26.064   8.284  49.825  1.00  0.00     0.160 C 
BRANCH  17  18
HETATM   18  C3  UNL     1      27.058   7.682  48.901  1.00  0.00     0.238 C 
HETATM   19  C4  UNL     1      28.438   8.241  48.886  1.00  0.00     0.037 C 
HETATM   20  C5  UNL     1      29.306   7.431  47.953  1.00  0.00     0.004 C 
HETATM   21  C6  UNL     1      29.223   5.967  48.047  1.00  0.00     0.030 C 
HETATM   22  C7  UNL     1      27.877   5.439  48.466  1.00  0.00     0.270 C 
HETATM   23  N2  UNL     1      27.199   6.282  49.382  1.00  0.00     0.089 N 
HETATM   24  H13 UNL     1      26.241   5.903  49.524  1.00  0.00     0.316 HD
ENDBRANCH  17  18
ENDBRANCH  14  17
ENDBRANCH   1  11
BRANCH   8  25
HETATM   25  N6  UNL     1      24.874   0.789  52.209  1.00  0.00    -0.357 N 
HETATM   26  H18 UNL     1      25.474   0.822  51.359  1.00  0.00     0.162 HD
BRANCH  25  27
HETATM   27  C14 UNL     1      25.623   0.441  53.387  1.00  0.00     0.174 A 
HETATM   28  C15 UNL     1      26.439  -0.805  53.179  1.00  0.00     0.036 A 
HETATM   29  C16 UNL     1      27.720  -1.088  53.191  1.00  0.00     0.072 A 
HETATM   30 CL1  UNL     1      28.311  -2.715  52.894  1.00  0.00    -0.081 Cl
HETATM   31  C17 UNL     1      28.779  -0.095  53.451  1.00  0.00     0.144 A 
HETATM   32  F1  UNL     1      30.100  -0.400  53.462  1.00  0.00    -0.204 F 
HETATM   33  C18 UNL     1      28.414   1.160  53.686  1.00  0.00     0.091 A 
HETATM   34  S1  UNL     1      26.757   1.834  53.731  1.00  0.00    -0.109 SA
ENDBRANCH  25  27
ENDBRANCH   8  25
TORSDOF 5
ENDMDL
MODEL 2
REMARK VINA RESULT:      -9.3      2.925      4.305
REMARK  5 active torsions:
REMARK  status: ('A' for Active; 'I' for Inactive)
REMARK       I    between atoms: C1_2  and  N1_3 
REMARK       I    between atoms: C1_2  and  N3_11 
REMARK    1  A    between atoms: N1_3  and  C2_4 
REMARK    2  A    between atoms: C2_4  and  C3_5 
REMARK    3  A    between atoms: N3_11  and  C8_12 
REMARK    4  A    between atoms: C13_19  and  N6_20 
REMARK    5  A    between atoms: N6_20  and  C14_21 
ROOT
HETATM    1  C8  UNL     1      27.106   4.903  48.884  1.00  0.00     0.037 A 
HETATM    2  C9  UNL     1      26.023   5.744  48.777  1.00  0.00     0.032 A 
HETATM    3  C10 UNL     1      24.806   5.578  49.397  1.00  0.00     0.035 A 
HETATM    4  C11 UNL     1      24.641   4.472  50.203  1.00  0.00     0.072 A 
HETATM    5  N4  UNL     1      23.459   4.291  50.819  1.00  0.00    -0.241 NA
HETATM    6  C12 UNL     1      23.273   3.220  51.610  1.00  0.00     0.235 A 
HETATM    7  N5  UNL     1      24.294   2.363  51.754  1.00  0.00    -0.224 NA
HETATM    8  C13 UNL     1      25.488   2.506  51.158  1.00  0.00     0.138 A 
HETATM    9  C19 UNL     1      25.700   3.602  50.340  1.00  0.00     0.041 A 
HETATM   10  C20 UNL     1      26.876   3.820  49.702  1.00  0.00     0.047 A 
ENDROOT
BRANCH   1  11
HETATM   11  N3  UNL     1      28.367   5.032  48.269  1.00  0.00    -0.309 N 
HETATM   12  C1  UNL     1      29.179   6.182  48.146  1.00  0.00     0.320 C 
HETATM   13  O1  UNL     1      28.747   7.248  48.643  1.00  0.00    -0.247 OA
HETATM   14  N1  UNL     1      30.437   6.241  47.516  1.00  0.00    -0.341 N 
HETATM   15  H1  UNL     1      30.718   5.270  47.162  1.00  0.00     0.164 HD
HETATM   16  H14 UNL     1      28.789   4.193  47.836  1.00  0.00     0.170 HD
BRANCH  14  17
HETATM   17  C2  UNL     1      31.352   7.276  47.270  1.00  0.00     0.160 C 
BRANCH  17  18
HETATM   18  C3  UNL     1      32.811   7.060  47.441  1.00  0.00     0.238 C 
HETATM   19  C4  UNL     1      33.555   7.954  48.371  1.00  0.00     0.037 C 
HETATM   20  C5  UNL     1      34.993   7.507  48.467  1.00  0.00     0.004 C 
HETATM   21  C6  UNL     1      35.247   6.071  48.641  1.00  0.00     0.030 C 
HETATM   22  C7  UNL     1      34.223   5.168  48.006  1.00  0.00     0.270 C 
HETATM   23  N2  UNL     1      32.909   5.699  48.032  1.00  0.00     0.089 N 
HETATM   24  H13 UNL     1      32.295   5.071  47.474  1.00  0.00     0.316 HD
ENDBRANCH  17  18
ENDBRANCH  14  17
ENDBRANCH   1  11
BRANCH   8  25
HETATM   25  N6  UNL     1      26.488   1.536  51.386  1.00  0.00    -0.357 N 
HETATM   26  H18 UNL     1      27.126   1.098  50.690  1.00  0.00     0.162 HD
BRANCH  25  27
HETATM   27  C14 UNL     1      26.716   1.040  52.718  1.00  0.00     0.174 A 
HETATM   28  C15 UNL     1      27.125  -0.408  52.708  1.00  0.00     0.036 A 
HETATM   29  C16 UNL     1      28.192  -1.073  53.083  1.00  0.00     0.072 A 
HETATM   30 CL1  UNL     1      28.305  -2.816  52.908  1.00  0.00    -0.081 Cl
HETATM   31  C17 UNL     1      29.385  -0.444  53.679  1.00  0.00     0.144 A 
HETATM   32  F1  UNL     1      30.482  -1.142  54.063  1.00  0.00    -0.204 F 
HETATM   33  C18 UNL     1      29.380   0.873  53.847  1.00  0.00     0.091 A 
HETATM   34  S1  UNL     1      28.078   2.029  53.432  1.00  0.00    -0.109 SA
ENDBRANCH  25  27
ENDBRANCH   8  25
TORSDOF 5
ENDMDL
MODEL 3
REMARK VINA RESULT:      -9.0      1.945      2.617
REMARK  5 active torsions:
REMARK  status: ('A' for Active; 'I' for Inactive)
REMARK       I    between atoms: C1_2  and  N1_3 
REMARK       I    between atoms: C1_2  and  N3_11 
REMARK    1  A    between atoms: N1_3  and  C2_4 
REMARK    2  A    between atoms: C2_4  and  C3_5 
REMARK    3  A    between atoms: N3_11  and  C8_12 
REMARK    4  A    between atoms: C13_19  and  N6_20 
REMARK    5  A    between atoms: N6_20  and  C14_21 
ROOT
HETATM    1  C8  UNL     1      23.830   6.626  51.227  1.00  0.00     0.037 A 
HETATM    2  C9  UNL     1      22.688   7.038  50.583  1.00  0.00     0.032 A 
HETATM    3  C10 UNL     1      21.505   6.341  50.510  1.00  0.00     0.035 A 
HETATM    4  C11 UNL     1      21.442   5.114  51.134  1.00  0.00     0.072 A 
HETATM    5  N4  UNL     1      20.294   4.415  51.074  1.00  0.00    -0.241 NA
HETATM    6  C12 UNL     1      20.208   3.216  51.675  1.00  0.00     0.235 A 
HETATM    7  N5  UNL     1      21.291   2.759  52.321  1.00  0.00    -0.224 NA
HETATM    8  C13 UNL     1      22.454   3.422  52.404  1.00  0.00     0.138 A 
HETATM    9  C19 UNL     1      22.564   4.659  51.792  1.00  0.00     0.041 A 
HETATM   10  C20 UNL     1      23.702   5.394  51.830  1.00  0.00     0.047 A 
ENDROOT
BRANCH   1  11
HETATM   11  N3  UNL     1      25.062   7.304  51.328  1.00  0.00    -0.309 N 
HETATM   12  C1  UNL     1      25.851   7.863  50.298  1.00  0.00     0.320 C 
HETATM   13  O1  UNL     1      25.426   7.759  49.124  1.00  0.00    -0.247 OA
HETATM   14  N1  UNL     1      27.079   8.531  50.470  1.00  0.00    -0.341 N 
HETATM   15  H1  UNL     1      27.325   8.591  51.511  1.00  0.00     0.164 HD
HETATM   16  H14 UNL     1      25.477   7.430  52.267  1.00  0.00     0.170 HD
BRANCH  14  17
HETATM   17  C2  UNL     1      28.002   9.108  49.584  1.00  0.00     0.160 C 
BRANCH  17  18
HETATM   18  C3  UNL     1      28.868   8.259  48.726  1.00  0.00     0.238 C 
HETATM   19  C4  UNL     1      30.336   8.271  48.971  1.00  0.00     0.037 C 
HETATM   20  C5  UNL     1      31.013   7.276  48.059  1.00  0.00     0.004 C 
HETATM   21  C6  UNL     1      30.408   5.943  47.940  1.00  0.00     0.030 C 
HETATM   22  C7  UNL     1      28.912   5.914  48.100  1.00  0.00     0.270 C 
HETATM   23  N2  UNL     1      28.424   6.871  49.026  1.00  0.00     0.089 N 
HETATM   24  H13 UNL     1      27.384   6.860  48.986  1.00  0.00     0.316 HD
ENDBRANCH  17  18
ENDBRANCH  14  17
ENDBRANCH   1  11
BRANCH   8  25
HETATM   25  N6  UNL     1      23.527   2.840  53.112  1.00  0.00    -0.357 N 
HETATM   26  H18 UNL     1      23.782   2.973  54.112  1.00  0.00     0.162 HD
BRANCH  25  27
HETATM   27  C14 UNL     1      24.425   1.938  52.439  1.00  0.00     0.174 A 
HETATM   28  C15 UNL     1      25.864   2.280  52.715  1.00  0.00     0.036 A 
HETATM   29  C16 UNL     1      26.870   1.663  53.289  1.00  0.00     0.072 A 
HETATM   30 CL1  UNL     1      28.454   2.408  53.428  1.00  0.00    -0.081 Cl
HETATM   31  C17 UNL     1      26.783   0.309  53.867  1.00  0.00     0.144 A 
HETATM   32  F1  UNL     1      27.830  -0.318  54.457  1.00  0.00    -0.204 F 
HETATM   33  C18 UNL     1      25.617  -0.324  53.801  1.00  0.00     0.091 A 
HETATM   34  S1  UNL     1      24.086   0.262  53.086  1.00  0.00    -0.109 SA
ENDBRANCH  25  27
ENDBRANCH   8  25
TORSDOF 5
ENDMDL
MODEL 4
REMARK VINA RESULT:      -8.8      2.438      3.726
REMARK  5 active torsions:
REMARK  status: ('A' for Active; 'I' for Inactive)
REMARK       I    between atoms: C1_2  and  N1_3 
REMARK       I    between atoms: C1_2  and  N3_11 
REMARK    1  A    between atoms: N1_3  and  C2_4 
REMARK    2  A    between atoms: C2_4  and  C3_5 
REMARK    3  A    between atoms: N3_11  and  C8_12 
REMARK    4  A    between atoms: C13_19  and  N6_20 
REMARK    5  A    between atoms: N6_20  and  C14_21 
ROOT
HETATM    1  C8  UNL     1      26.539   5.129  49.001  1.00  0.00     0.037 A 
HETATM    2  C9  UNL     1      25.283   5.640  48.780  1.00  0.00     0.032 A 
HETATM    3  C10 UNL     1      24.103   5.126  49.268  1.00  0.00     0.035 A 
HETATM    4  C11 UNL     1      24.170   3.994  50.051  1.00  0.00     0.072 A 
HETATM    5  N4  UNL     1      23.029   3.475  50.538  1.00  0.00    -0.241 NA
HETATM    6  C12 UNL     1      23.068   2.371  51.304  1.00  0.00     0.235 A 
HETATM    7  N5  UNL     1      24.267   1.825  51.555  1.00  0.00    -0.224 NA
HETATM    8  C13 UNL     1      25.428   2.310  51.090  1.00  0.00     0.138 A 
HETATM    9  C19 UNL     1      25.410   3.446  50.299  1.00  0.00     0.041 A 
HETATM   10  C20 UNL     1      26.538   3.999  49.790  1.00  0.00     0.047 A 
ENDROOT
BRANCH   1  11
HETATM   11  N3  UNL     1      27.771   5.619  48.523  1.00  0.00    -0.309 N 
HETATM   12  C1  UNL     1      28.130   6.947  48.202  1.00  0.00     0.320 C 
HETATM   13  O1  UNL     1      27.257   7.833  48.353  1.00  0.00    -0.247 OA
HETATM   14  N1  UNL     1      29.387   7.370  47.727  1.00  0.00    -0.341 N 
HETATM   15  H1  UNL     1      30.060   6.539  47.671  1.00  0.00     0.164 HD
HETATM   16  H14 UNL     1      28.542   4.946  48.374  1.00  0.00     0.170 HD
BRANCH  14  17
HETATM   17  C2  UNL     1      29.906   8.612  47.330  1.00  0.00     0.160 C 
BRANCH  17  18
HETATM   18  C3  UNL     1      29.848   9.787  48.235  1.00  0.00     0.238 C 
HETATM   19  C4  UNL     1      30.968  10.767  48.196  1.00  0.00     0.037 C 
HETATM   20  C5  UNL     1      30.668  11.924  49.119  1.00  0.00     0.004 C 
HETATM   21  C6  UNL     1      29.321  12.508  49.059  1.00  0.00     0.030 C 
HETATM   22  C7  UNL     1      28.230  11.538  48.693  1.00  0.00     0.270 C 
HETATM   23  N2  UNL     1      28.646  10.536  47.780  1.00  0.00     0.089 N 
HETATM   24  H13 UNL     1      27.871   9.850  47.676  1.00  0.00     0.316 HD
ENDBRANCH  17  18
ENDBRANCH  14  17
ENDBRANCH   1  11
BRANCH   8  25
HETATM   25  N6  UNL     1      26.630   1.648  51.421  1.00  0.00    -0.357 N 
HETATM   26  H18 UNL     1      27.456   1.477  50.813  1.00  0.00     0.162 HD
BRANCH  25  27
HETATM   27  C14 UNL     1      26.813   1.113  52.745  1.00  0.00     0.174 A 
HETATM   28  C15 UNL     1      27.156  -0.351  52.710  1.00  0.00     0.036 A 
HETATM   29  C16 UNL     1      28.185  -1.071  53.088  1.00  0.00     0.072 A 
HETATM   30 CL1  UNL     1      28.222  -2.814  52.876  1.00  0.00    -0.081 Cl
HETATM   31  C17 UNL     1      29.395  -0.510  53.717  1.00  0.00     0.144 A 
HETATM   32  F1  UNL     1      30.452  -1.266  54.103  1.00  0.00    -0.204 F 
HETATM   33  C18 UNL     1      29.446   0.802  53.914  1.00  0.00     0.091 A 
HETATM   34  S1  UNL     1      28.205   2.024  53.503  1.00  0.00    -0.109 SA
ENDBRANCH  25  27
ENDBRANCH   8  25
TORSDOF 5
ENDMDL
MODEL 5
REMARK VINA RESULT:      -8.7      4.454      7.057
REMARK  5 active torsions:
REMARK  status: ('A' for Active; 'I' for Inactive)
REMARK       I    between atoms: C1_2  and  N1_3 
REMARK       I    between atoms: C1_2  and  N3_11 
REMARK    1  A    between atoms: N1_3  and  C2_4 
REMARK    2  A    between atoms: C2_4  and  C3_5 
REMARK    3  A    between atoms: N3_11  and  C8_12 
REMARK    4  A    between atoms: C13_19  and  N6_20 
REMARK    5  A    between atoms: N6_20  and  C14_21 
ROOT
HETATM    1  C8  UNL     1      23.442   4.551  52.031  1.00  0.00     0.037 A 
HETATM    2  C9  UNL     1      23.463   5.601  51.145  1.00  0.00     0.032 A 
HETATM    3  C10 UNL     1      22.401   6.045  50.391  1.00  0.00     0.035 A 
HETATM    4  C11 UNL     1      21.198   5.385  50.523  1.00  0.00     0.072 A 
HETATM    5  N4  UNL     1      20.147   5.802  49.795  1.00  0.00    -0.241 NA
HETATM    6  C12 UNL     1      18.964   5.174  49.906  1.00  0.00     0.235 A 
HETATM    7  N5  UNL     1      18.881   4.139  50.756  1.00  0.00    -0.224 NA
HETATM    8  C13 UNL     1      19.903   3.692  51.500  1.00  0.00     0.138 A 
HETATM    9  C19 UNL     1      21.130   4.324  51.400  1.00  0.00     0.041 A 
HETATM   10  C20 UNL     1      22.213   3.934  52.117  1.00  0.00     0.047 A 
ENDROOT
BRANCH   1  11
HETATM   11  N3  UNL     1      24.501   4.062  52.822  1.00  0.00    -0.309 N 
HETATM   12  C1  UNL     1      24.789   2.729  53.190  1.00  0.00     0.320 C 
HETATM   13  O1  UNL     1      24.017   1.836  52.772  1.00  0.00    -0.247 OA
HETATM   14  N1  UNL     1      25.871   2.309  53.988  1.00  0.00    -0.341 N 
HETATM   15  H1  UNL     1      26.479   3.148  54.258  1.00  0.00     0.164 HD
HETATM   16  H14 UNL     1      25.180   4.742  53.204  1.00  0.00     0.170 HD
BRANCH  14  17
HETATM   17  C2  UNL     1      26.288   1.062  54.478  1.00  0.00     0.160 C 
BRANCH  17  18
HETATM   18  C3  UNL     1      27.412   0.330  53.840  1.00  0.00     0.238 C 
HETATM   19  C4  UNL     1      28.696   0.215  54.586  1.00  0.00     0.037 C 
HETATM   20  C5  UNL     1      29.665  -0.639  53.805  1.00  0.00     0.004 C 
HETATM   21  C6  UNL     1      29.157  -1.894  53.234  1.00  0.00     0.030 C 
HETATM   22  C7  UNL     1      27.703  -1.865  52.846  1.00  0.00     0.270 C 
HETATM   23  N2  UNL     1      26.905  -1.061  53.699  1.00  0.00     0.089 N 
HETATM   24  H13 UNL     1      25.949  -1.006  53.293  1.00  0.00     0.316 HD
ENDBRANCH  17  18
ENDBRANCH  14  17
ENDBRANCH   1  11
BRANCH   8  25
HETATM   25  N6  UNL     1      19.695   2.592  52.360  1.00  0.00    -0.357 N 
HETATM   26  H18 UNL     1      19.483   2.607  53.378  1.00  0.00     0.162 HD
BRANCH  25  27
HETATM   27  C14 UNL     1      19.769   1.251  51.842  1.00  0.00     0.174 A 
HETATM   28  C15 UNL     1      20.423   0.314  52.819  1.00  0.00     0.036 A 
HETATM   29  C16 UNL     1      20.043  -0.760  53.471  1.00  0.00     0.072 A 
HETATM   30 CL1  UNL     1      21.125  -1.612  54.560  1.00  0.00    -0.081 Cl
HETATM   31  C17 UNL     1      18.698  -1.354  53.363  1.00  0.00     0.144 A 
HETATM   32  F1  UNL     1      18.318  -2.464  54.041  1.00  0.00    -0.204 F 
HETATM   33  C18 UNL     1      17.820  -0.769  52.557  1.00  0.00     0.091 A 
HETATM   34  S1  UNL     1      18.052   0.693  51.553  1.00  0.00    -0.109 SA
ENDBRANCH  25  27
ENDBRANCH   8  25
TORSDOF 5
ENDMDL
MODEL 6
REMARK VINA RESULT:      -8.6      2.097      2.671
REMARK  5 active torsions:
REMARK  status: ('A' for Active; 'I' for Inactive)
REMARK       I    between atoms: C1_2  and  N1_3 
REMARK       I    between atoms: C1_2  and  N3_11 
REMARK    1  A    between atoms: N1_3  and  C2_4 
REMARK    2  A    between atoms: C2_4  and  C3_5 
REMARK    3  A    between atoms: N3_11  and  C8_12 
REMARK    4  A    between atoms: C13_19  and  N6_20 
REMARK    5  A    between atoms: N6_20  and  C14_21 
ROOT
HETATM    1  C8  UNL     1      22.980   1.715  50.944  1.00  0.00     0.037 A 
HETATM    2  C9  UNL     1      21.645   1.411  50.828  1.00  0.00     0.032 A 
HETATM    3  C10 UNL     1      20.936   0.557  51.641  1.00  0.00     0.035 A 
HETATM    4  C11 UNL     1      21.612  -0.059  52.672  1.00  0.00     0.072 A 
HETATM    5  N4  UNL     1      20.938  -0.897  53.479  1.00  0.00    -0.241 NA
HETATM    6  C12 UNL     1      21.576  -1.510  54.492  1.00  0.00     0.235 A 
HETATM    7  N5  UNL     1      22.883  -1.253  54.656  1.00  0.00    -0.224 NA
HETATM    8  C13 UNL     1      23.592  -0.425  53.874  1.00  0.00     0.138 A 
HETATM    9  C19 UNL     1      22.954   0.216  52.827  1.00  0.00     0.041 A 
HETATM   10  C20 UNL     1      23.598   1.068  51.991  1.00  0.00     0.047 A 
ENDROOT
BRANCH   1  11
HETATM   11  N3  UNL     1      23.746   2.580  50.136  1.00  0.00    -0.309 N 
HETATM   12  C1  UNL     1      24.278   3.849  50.456  1.00  0.00     0.320 C 
HETATM   13  O1  UNL     1      24.058   4.294  51.606  1.00  0.00    -0.247 OA
HETATM   14  N1  UNL     1      25.039   4.664  49.596  1.00  0.00    -0.341 N 
HETATM   15  H1  UNL     1      25.192   4.171  48.658  1.00  0.00     0.164 HD
HETATM   16  H14 UNL     1      23.968   2.280  49.172  1.00  0.00     0.170 HD
BRANCH  14  17
HETATM   17  C2  UNL     1      25.609   5.941  49.722  1.00  0.00     0.160 C 
BRANCH  17  18
HETATM   18  C3  UNL     1      26.395   6.537  48.612  1.00  0.00     0.238 C 
HETATM   19  C4  UNL     1      25.756   7.592  47.779  1.00  0.00     0.037 C 
HETATM   20  C5  UNL     1      26.752   8.124  46.777  1.00  0.00     0.004 C 
HETATM   21  C6  UNL     1      28.101   8.441  47.263  1.00  0.00     0.030 C 
HETATM   22  C7  UNL     1      28.575   7.587  48.409  1.00  0.00     0.270 C 
HETATM   23  N2  UNL     1      27.536   7.204  49.295  1.00  0.00     0.089 N 
HETATM   24  H13 UNL     1      27.929   6.527  49.981  1.00  0.00     0.316 HD
ENDBRANCH  17  18
ENDBRANCH  14  17
ENDBRANCH   1  11
BRANCH   8  25
HETATM   25  N6  UNL     1      24.964  -0.234  54.146  1.00  0.00    -0.357 N 
HETATM   26  H18 UNL     1      25.431  -0.174  55.073  1.00  0.00     0.162 HD
BRANCH  25  27
HETATM   27  C14 UNL     1      25.897  -0.094  53.059  1.00  0.00     0.174 A 
HETATM   28  C15 UNL     1      26.885   1.011  53.314  1.00  0.00     0.036 A 
HETATM   29  C16 UNL     1      28.188   1.076  53.454  1.00  0.00     0.072 A 
HETATM   30 CL1  UNL     1      29.012   2.598  53.751  1.00  0.00    -0.081 Cl
HETATM   31  C17 UNL     1      29.083  -0.094  53.379  1.00  0.00     0.144 A 
HETATM   32  F1  UNL     1      30.428  -0.013  53.525  1.00  0.00    -0.204 F 
HETATM   33  C18 UNL     1      28.537  -1.284  53.155  1.00  0.00     0.091 A 
HETATM   34  S1  UNL     1      26.806  -1.675  52.928  1.00  0.00    -0.109 SA
ENDBRANCH  25  27
ENDBRANCH   8  25
TORSDOF 5
ENDMDL
MODEL 7
REMARK VINA RESULT:      -8.5      3.598      5.185
REMARK  5 active torsions:
REMARK  status: ('A' for Active; 'I' for Inactive)
REMARK       I    between atoms: C1_2  and  N1_3 
REMARK       I    between atoms: C1_2  and  N3_11 
REMARK    1  A    between atoms: N1_3  and  C2_4 
REMARK    2  A    between atoms: C2_4  and  C3_5 
REMARK    3  A    between atoms: N3_11  and  C8_12 
REMARK    4  A    between atoms: C13_19  and  N6_20 
REMARK    5  A    between atoms: N6_20  and  C14_21 
ROOT
HETATM    1  C8  UNL     1      24.672   2.210  52.381  1.00  0.00     0.037 A 
HETATM    2  C9  UNL     1      25.167   1.012  52.839  1.00  0.00     0.032 A 
HETATM    3  C10 UNL     1      24.421  -0.045  53.306  1.00  0.00     0.035 A 
HETATM    4  C11 UNL     1      23.050   0.093  53.324  1.00  0.00     0.072 A 
HETATM    5  N4  UNL     1      22.302  -0.928  53.777  1.00  0.00    -0.241 NA
HETATM    6  C12 UNL     1      20.963  -0.817  53.805  1.00  0.00     0.235 A 
HETATM    7  N5  UNL     1      20.420   0.330  53.371  1.00  0.00    -0.224 NA
HETATM    8  C13 UNL     1      21.129   1.373  52.912  1.00  0.00     0.138 A 
HETATM    9  C19 UNL     1      22.509   1.278  52.875  1.00  0.00     0.041 A 
HETATM   10  C20 UNL     1      23.298   2.286  52.426  1.00  0.00     0.047 A 
ENDROOT
BRANCH   1  11
HETATM   11  N3  UNL     1      25.396   3.318  51.895  1.00  0.00    -0.309 N 
HETATM   12  C1  UNL     1      25.646   3.693  50.557  1.00  0.00     0.320 C 
HETATM   13  O1  UNL     1      25.174   2.963  49.655  1.00  0.00    -0.247 OA
HETATM   14  N1  UNL     1      26.381   4.820  50.140  1.00  0.00    -0.341 N 
HETATM   15  H1  UNL     1      26.705   5.386  50.990  1.00  0.00     0.164 HD
HETATM   16  H14 UNL     1      25.816   3.968  52.582  1.00  0.00     0.170 HD
BRANCH  14  17
HETATM   17  C2  UNL     1      26.757   5.323  48.884  1.00  0.00     0.160 C 
BRANCH  17  18
HETATM   18  C3  UNL     1      26.890   6.785  48.658  1.00  0.00     0.238 C 
HETATM   19  C4  UNL     1      25.955   7.440  47.701  1.00  0.00     0.037 C 
HETATM   20  C5  UNL     1      26.199   8.930  47.689  1.00  0.00     0.004 C 
HETATM   21  C6  UNL     1      26.344   9.604  48.986  1.00  0.00     0.030 C 
HETATM   22  C7  UNL     1      26.945   8.755  50.074  1.00  0.00     0.270 C 
HETATM   23  N2  UNL     1      26.589   7.386  49.985  1.00  0.00     0.089 N 
HETATM   24  H13 UNL     1      27.137   6.861  50.697  1.00  0.00     0.316 HD
ENDBRANCH  17  18
ENDBRANCH  14  17
ENDBRANCH   1  11
BRANCH   8  25
HETATM   25  N6  UNL     1      20.445   2.531  52.482  1.00  0.00    -0.357 N 
HETATM   26  H18 UNL     1      20.192   3.370  53.041  1.00  0.00     0.162 HD
BRANCH  25  27
HETATM   27  C14 UNL     1      20.010   2.639  51.114  1.00  0.00     0.174 A 
HETATM   28  C15 UNL     1      20.884   3.576  50.326  1.00  0.00     0.036 A 
HETATM   29  C16 UNL     1      21.669   3.454  49.282  1.00  0.00     0.072 A 
HETATM   30 CL1  UNL     1      22.556   4.820  48.627  1.00  0.00    -0.081 Cl
HETATM   31  C17 UNL     1      21.887   2.186  48.561  1.00  0.00     0.144 A 
HETATM   32  F1  UNL     1      22.701   2.073  47.483  1.00  0.00    -0.204 F 
HETATM   33  C18 UNL     1      21.250   1.104  48.993  1.00  0.00     0.091 A 
HETATM   34  S1  UNL     1      20.128   0.969  50.380  1.00  0.00    -0.109 SA
ENDBRANCH  25  27
ENDBRANCH   8  25
TORSDOF 5
ENDMDL
MODEL 8
REMARK VINA RESULT:      -8.5      4.672      7.061
REMARK  5 active torsions:
REMARK  status: ('A' for Active; 'I' for Inactive)
REMARK       I    between atoms: C1_2  and  N1_3 
REMARK       I    between atoms: C1_2  and  N3_11 
REMARK    1  A    between atoms: N1_3  and  C2_4 
REMARK    2  A    between atoms: C2_4  and  C3_5 
REMARK    3  A    between atoms: N3_11  and  C8_12 
REMARK    4  A    between atoms: C13_19  and  N6_20 
REMARK    5  A    between atoms: N6_20  and  C14_21 
ROOT
HETATM    1  C8  UNL     1      21.320  -0.501  52.930  1.00  0.00     0.037 A 
HETATM    2  C9  UNL     1      20.182  -0.855  53.615  1.00  0.00     0.032 A 
HETATM    3  C10 UNL     1      18.888  -0.623  53.208  1.00  0.00     0.035 A 
HETATM    4  C11 UNL     1      18.698   0.024  52.006  1.00  0.00     0.072 A 
HETATM    5  N4  UNL     1      17.442   0.261  51.590  1.00  0.00    -0.241 NA
HETATM    6  C12 UNL     1      17.230   0.890  50.421  1.00  0.00     0.235 A 
HETATM    7  N5  UNL     1      18.304   1.262  49.706  1.00  0.00    -0.224 NA
HETATM    8  C13 UNL     1      19.573   1.045  50.085  1.00  0.00     0.138 A 
HETATM    9  C19 UNL     1      19.811   0.399  51.285  1.00  0.00     0.041 A 
HETATM   10  C20 UNL     1      21.062   0.141  51.739  1.00  0.00     0.047 A 
ENDROOT
BRANCH   1  11
HETATM   11  N3  UNL     1      22.661  -0.717  53.307  1.00  0.00    -0.309 N 
HETATM   12  C1  UNL     1      23.703   0.226  53.447  1.00  0.00     0.320 C 
HETATM   13  O1  UNL     1      23.431   1.426  53.212  1.00  0.00    -0.247 OA
HETATM   14  N1  UNL     1      25.028  -0.060  53.830  1.00  0.00    -0.341 N 
HETATM   15  H1  UNL     1      25.136  -1.105  54.037  1.00  0.00     0.164 HD
HETATM   16  H14 UNL     1      22.960  -1.684  53.517  1.00  0.00     0.170 HD
BRANCH  14  17
HETATM   17  C2  UNL     1      26.184   0.721  53.984  1.00  0.00     0.160 C 
BRANCH  17  18
HETATM   18  C3  UNL     1      27.511   0.212  53.556  1.00  0.00     0.238 C 
HETATM   19  C4  UNL     1      28.699   0.542  54.390  1.00  0.00     0.037 C 
HETATM   20  C5  UNL     1      29.922  -0.146  53.833  1.00  0.00     0.004 C 
HETATM   21  C6  UNL     1      29.793  -1.560  53.457  1.00  0.00     0.030 C 
HETATM   22  C7  UNL     1      28.424  -1.962  52.979  1.00  0.00     0.270 C 
HETATM   23  N2  UNL     1      27.372  -1.268  53.627  1.00  0.00     0.089 N 
HETATM   24  H13 UNL     1      26.478  -1.520  53.158  1.00  0.00     0.316 HD
ENDBRANCH  17  18
ENDBRANCH  14  17
ENDBRANCH   1  11
BRANCH   8  25
HETATM   25  N6  UNL     1      20.622   1.483  49.248  1.00  0.00    -0.357 N 
HETATM   26  H18 UNL     1      21.267   0.903  48.674  1.00  0.00     0.162 HD
BRANCH  25  27
HETATM   27  C14 UNL     1      20.898   2.889  49.119  1.00  0.00     0.174 A 
HETATM   28  C15 UNL     1      21.230   3.513  50.447  1.00  0.00     0.036 A 
HETATM   29  C16 UNL     1      22.280   4.116  50.952  1.00  0.00     0.072 A 
HETATM   30 CL1  UNL     1      22.292   4.731  52.596  1.00  0.00    -0.081 Cl
HETATM   31  C17 UNL     1      23.536   4.338  50.211  1.00  0.00     0.144 A 
HETATM   32  F1  UNL     1      24.614   4.962  50.744  1.00  0.00    -0.204 F 
HETATM   33  C18 UNL     1      23.608   3.902  48.959  1.00  0.00     0.091 A 
HETATM   34  S1  UNL     1      22.347   3.052  48.016  1.00  0.00    -0.109 SA
ENDBRANCH  25  27
ENDBRANCH   8  25
TORSDOF 5
ENDMDL
MODEL 9
REMARK VINA RESULT:      -8.5      3.479      5.102
REMARK  5 active torsions:
REMARK  status: ('A' for Active; 'I' for Inactive)
REMARK       I    between atoms: C1_2  and  N1_3 
REMARK       I    between atoms: C1_2  and  N3_11 
REMARK    1  A    between atoms: N1_3  and  C2_4 
REMARK    2  A    between atoms: C2_4  and  C3_5 
REMARK    3  A    between atoms: N3_11  and  C8_12 
REMARK    4  A    between atoms: C13_19  and  N6_20 
REMARK    5  A    between atoms: N6_20  and  C14_21 
ROOT
HETATM    1  C8  UNL     1      26.734   5.603  48.861  1.00  0.00     0.037 A 
HETATM    2  C9  UNL     1      26.037   6.638  48.286  1.00  0.00     0.032 A 
HETATM    3  C10 UNL     1      24.667   6.745  48.206  1.00  0.00     0.035 A 
HETATM    4  C11 UNL     1      23.911   5.728  48.748  1.00  0.00     0.072 A 
HETATM    5  N4  UNL     1      22.570   5.813  48.681  1.00  0.00    -0.241 NA
HETATM    6  C12 UNL     1      21.810   4.834  49.202  1.00  0.00     0.235 A 
HETATM    7  N5  UNL     1      22.434   3.795  49.777  1.00  0.00    -0.224 NA
HETATM    8  C13 UNL     1      23.767   3.671  49.865  1.00  0.00     0.138 A 
HETATM    9  C19 UNL     1      24.568   4.669  49.335  1.00  0.00     0.041 A 
HETATM   10  C20 UNL     1      25.922   4.621  49.382  1.00  0.00     0.047 A 
ENDROOT
BRANCH   1  11
HETATM   11  N3  UNL     1      28.132   5.451  48.965  1.00  0.00    -0.309 N 
HETATM   12  C1  UNL     1      29.147   6.044  48.181  1.00  0.00     0.320 C 
HETATM   13  O1  UNL     1      28.789   6.816  47.262  1.00  0.00    -0.247 OA
HETATM   14  N1  UNL     1      30.533   5.848  48.341  1.00  0.00    -0.341 N 
HETATM   15  H1  UNL     1      30.721   5.201  49.173  1.00  0.00     0.164 HD
HETATM   16  H14 UNL     1      28.503   4.828  49.702  1.00  0.00     0.170 HD
BRANCH  14  17
HETATM   17  C2  UNL     1      31.664   6.312  47.652  1.00  0.00     0.160 C 
BRANCH  17  18
HETATM   18  C3  UNL     1      32.868   5.457  47.500  1.00  0.00     0.238 C 
HETATM   19  C4  UNL     1      33.952   5.575  48.514  1.00  0.00     0.037 C 
HETATM   20  C5  UNL     1      35.032   4.559  48.228  1.00  0.00     0.004 C 
HETATM   21  C6  UNL     1      34.608   3.187  47.919  1.00  0.00     0.030 C 
HETATM   22  C7  UNL     1      33.276   3.080  47.226  1.00  0.00     0.270 C 
HETATM   23  N2  UNL     1      32.346   4.070  47.632  1.00  0.00     0.089 N 
HETATM   24  H13 UNL     1      31.505   3.993  47.025  1.00  0.00     0.316 HD
ENDBRANCH  17  18
ENDBRANCH  14  17
ENDBRANCH   1  11
BRANCH   8  25
HETATM   25  N6  UNL     1      24.310   2.531  50.495  1.00  0.00    -0.357 N 
HETATM   26  H18 UNL     1      24.645   1.652  50.050  1.00  0.00     0.162 HD
BRANCH  25  27
HETATM   27  C14 UNL     1      24.451   2.501  51.927  1.00  0.00     0.174 A 
HETATM   28  C15 UNL     1      23.576   1.448  52.549  1.00  0.00     0.036 A 
HETATM   29  C16 UNL     1      23.789   0.363  53.254  1.00  0.00     0.072 A 
HETATM   30 CL1  UNL     1      22.469  -0.646  53.823  1.00  0.00    -0.081 Cl
HETATM   31  C17 UNL     1      25.130  -0.117  53.639  1.00  0.00     0.144 A 
HETATM   32  F1  UNL     1      25.337  -1.241  54.369  1.00  0.00    -0.204 F 
HETATM   33  C18 UNL     1      26.183   0.591  53.248  1.00  0.00     0.091 A 
HETATM   34  S1  UNL     1      26.198   2.098  52.284  1.00  0.00    -0.109 SA
ENDBRANCH  25  27
ENDBRANCH   8  25
TORSDOF 5
ENDMDL
