MODEL 1
REMARK VINA RESULT:      -8.5      0.000      0.000
REMARK  5 active torsions:
REMARK  status: ('A' for Active; 'I' for Inactive)
REMARK    1  A    between atoms: C1_2  and  C2_3 
REMARK    2  A    between atoms: C1_2  and  C9_11 
REMARK    3  A    between atoms: C2_3  and  C3_4 
REMARK    4  A    between atoms: C3_4  and  N1_5 
REMARK    5  A    between atoms: C19_21  and  O2_22 
ROOT
HETATM    1  C9  UNL     1      25.929   2.485  51.503  1.00  0.00     0.006 C 
HETATM    2  C10 UNL     1      24.721   1.854  51.345  1.00  0.00    -0.007 C 
HETATM    3  C11 UNL     1      24.265   0.911  52.233  1.00  0.00     0.067 C 
HETATM    4  C12 UNL     1      23.339   0.320  53.089  1.00  0.00    -0.048 A 
HETATM    5  C13 UNL     1      22.023   0.545  52.940  1.00  0.00     0.008 A 
HETATM    6  C14 UNL     1      21.112  -0.012  53.795  1.00  0.00     0.001 A 
HETATM    7  C15 UNL     1      21.634  -0.799  54.792  1.00  0.00     0.001 A 
HETATM    8  C16 UNL     1      22.983  -1.027  54.941  1.00  0.00     0.007 A 
HETATM    9  C17 UNL     1      23.912  -0.495  54.115  1.00  0.00    -0.049 A 
HETATM   10  C18 UNL     1      25.359  -0.734  54.237  1.00  0.00     0.075 C 
HETATM   11  C19 UNL     1      26.359   0.279  54.574  1.00  0.00     0.145 C 
HETATM   12  C20 UNL     1      26.850   1.313  53.688  1.00  0.00     0.006 C 
HETATM   13  C21 UNL     1      26.751   2.092  52.644  1.00  0.00     0.013 C 
ENDROOT
BRANCH   1  14
HETATM   14  C1  UNL     1      26.004   3.373  50.384  1.00  0.00     0.161 C 
HETATM   15  O1  UNL     1      27.193   3.594  50.063  1.00  0.00    -0.292 OA
BRANCH  14  16
HETATM   16  C2  UNL     1      24.647   3.747  49.964  1.00  0.00     0.114 C 
BRANCH  16  17
HETATM   17  C3  UNL     1      24.302   5.178  49.882  1.00  0.00     0.280 C 
BRANCH  17  18
HETATM   18  N1  UNL     1      24.129   5.949  51.041  1.00  0.00     0.088 N 
HETATM   19  C4  UNL     1      24.004   7.352  50.979  1.00  0.00     0.272 C 
HETATM   20  C5  UNL     1      22.815   7.810  50.156  1.00  0.00     0.030 C 
HETATM   21  C6  UNL     1      21.578   7.247  50.849  1.00  0.00     0.003 C 
HETATM   22  C7  UNL     1      21.709   5.790  51.162  1.00  0.00     0.030 C 
HETATM   23  C8  UNL     1      23.013   5.416  51.841  1.00  0.00     0.272 C 
ENDBRANCH  17  18
ENDBRANCH  16  17
ENDBRANCH  14  16
ENDBRANCH   1  14
BRANCH  11  24
HETATM   24  O2  UNL     1      27.557  -0.553  54.689  1.00  0.00    -0.391 OA
HETATM   25  H25 UNL     1      28.164  -0.060  55.302  1.00  0.00     0.210 HD
ENDBRANCH  11  24
TORSDOF 5
ENDMDL
MODEL 2
REMARK VINA RESULT:      -8.5      2.978      5.990
REMARK  5 active torsions:
REMARK  status: ('A' for Active; 'I' for Inactive)
REMARK    1  A    between atoms: C1_2  and  C2_3 
REMARK    2  A    between atoms: C1_2  and  C9_11 
REMARK    3  A    between atoms: C2_3  and  C3_4 
REMARK    4  A    between atoms: C3_4  and  N1_5 
REMARK    5  A    between atoms: C19_21  and  O2_22 
ROOT
HETATM    1  C9  UNL     1      24.931   2.225  51.387  1.00  0.00     0.006 C 
HETATM    2  C10 UNL     1      24.657   1.619  52.586  1.00  0.00    -0.007 C 
HETATM    3  C11 UNL     1      23.394   1.194  52.921  1.00  0.00     0.067 C 
HETATM    4  C12 UNL     1      22.443   0.283  53.374  1.00  0.00    -0.048 A 
HETATM    5  C13 UNL     1      22.797  -0.747  54.161  1.00  0.00     0.008 A 
HETATM    6  C14 UNL     1      21.870  -1.659  54.587  1.00  0.00     0.001 A 
HETATM    7  C15 UNL     1      20.583  -1.445  54.158  1.00  0.00     0.001 A 
HETATM    8  C16 UNL     1      20.225  -0.388  53.352  1.00  0.00     0.007 A 
HETATM    9  C17 UNL     1      21.113   0.532  52.913  1.00  0.00    -0.049 A 
HETATM   10  C18 UNL     1      20.759   1.683  52.067  1.00  0.00     0.075 C 
HETATM   11  C19 UNL     1      21.205   1.889  50.688  1.00  0.00     0.145 C 
HETATM   12  C20 UNL     1      22.530   2.305  50.280  1.00  0.00     0.006 C 
HETATM   13  C21 UNL     1      23.814   2.444  50.471  1.00  0.00     0.013 C 
ENDROOT
BRANCH   1  14
HETATM   14  C1  UNL     1      26.334   2.493  51.447  1.00  0.00     0.161 C 
HETATM   15  O1  UNL     1      26.800   2.718  50.307  1.00  0.00    -0.292 OA
BRANCH  14  16
HETATM   16  C2  UNL     1      26.787   2.419  52.842  1.00  0.00     0.114 C 
BRANCH  16  17
HETATM   17  C3  UNL     1      27.889   1.500  53.179  1.00  0.00     0.280 C 
BRANCH  17  18
HETATM   18  N1  UNL     1      27.732   0.509  54.159  1.00  0.00     0.088 N 
HETATM   19  C4  UNL     1      26.845  -0.571  53.977  1.00  0.00     0.272 C 
HETATM   20  C5  UNL     1      27.180  -1.423  52.767  1.00  0.00     0.030 C 
HETATM   21  C6  UNL     1      28.575  -1.984  53.018  1.00  0.00     0.003 C 
HETATM   22  C7  UNL     1      29.550  -0.931  53.440  1.00  0.00     0.030 C 
HETATM   23  C8  UNL     1      29.047  -0.028  54.550  1.00  0.00     0.272 C 
ENDBRANCH  17  18
ENDBRANCH  16  17
ENDBRANCH  14  16
ENDBRANCH   1  14
BRANCH  11  24
HETATM   24  O2  UNL     1      20.438   3.083  50.332  1.00  0.00    -0.391 OA
HETATM   25  H25 UNL     1      21.106   3.814  50.257  1.00  0.00     0.210 HD
ENDBRANCH  11  24
TORSDOF 5
ENDMDL
MODEL 3
REMARK VINA RESULT:      -8.4      2.881      4.636
REMARK  5 active torsions:
REMARK  status: ('A' for Active; 'I' for Inactive)
REMARK    1  A    between atoms: C1_2  and  C2_3 
REMARK    2  A    between atoms: C1_2  and  C9_11 
REMARK    3  A    between atoms: C2_3  and  C3_4 
REMARK    4  A    between atoms: C3_4  and  N1_5 
REMARK    5  A    between atoms: C19_21  and  O2_22 
ROOT
HETATM    1  C9  UNL     1      20.992   2.391  52.425  1.00  0.00     0.006 C 
HETATM    2  C10 UNL     1      22.338   2.652  52.456  1.00  0.00    -0.007 C 
HETATM    3  C11 UNL     1      23.258   1.710  52.848  1.00  0.00     0.067 C 
HETATM    4  C12 UNL     1      24.416   0.945  52.732  1.00  0.00    -0.048 A 
HETATM    5  C13 UNL     1      25.444   1.364  51.977  1.00  0.00     0.008 A 
HETATM    6  C14 UNL     1      26.573   0.604  51.838  1.00  0.00     0.001 A 
HETATM    7  C15 UNL     1      26.572  -0.592  52.515  1.00  0.00     0.001 A 
HETATM    8  C16 UNL     1      25.517  -1.017  53.289  1.00  0.00     0.007 A 
HETATM    9  C17 UNL     1      24.387  -0.291  53.449  1.00  0.00    -0.049 A 
HETATM   10  C18 UNL     1      23.249  -0.710  54.283  1.00  0.00     0.075 C 
HETATM   11  C19 UNL     1      21.912  -1.041  53.787  1.00  0.00     0.145 C 
HETATM   12  C20 UNL     1      20.918  -0.092  53.332  1.00  0.00     0.006 C 
HETATM   13  C21 UNL     1      20.550   1.071  52.865  1.00  0.00     0.013 C 
ENDROOT
BRANCH   1  14
HETATM   14  C1  UNL     1      20.413   3.614  51.961  1.00  0.00     0.161 C 
HETATM   15  O1  UNL     1      19.170   3.610  52.108  1.00  0.00    -0.292 OA
BRANCH  14  16
HETATM   16  C2  UNL     1      21.473   4.496  51.454  1.00  0.00     0.114 C 
BRANCH  16  17
HETATM   17  C3  UNL     1      21.488   4.831  50.019  1.00  0.00     0.280 C 
BRANCH  17  18
HETATM   18  N1  UNL     1      22.666   4.737  49.265  1.00  0.00     0.088 N 
HETATM   19  C4  UNL     1      23.453   3.568  49.272  1.00  0.00     0.272 C 
HETATM   20  C5  UNL     1      22.706   2.342  48.779  1.00  0.00     0.030 C 
HETATM   21  C6  UNL     1      22.303   2.643  47.339  1.00  0.00     0.003 C 
HETATM   22  C7  UNL     1      21.651   3.981  47.193  1.00  0.00     0.030 C 
HETATM   23  C8  UNL     1      22.402   5.114  47.866  1.00  0.00     0.272 C 
ENDBRANCH  17  18
ENDBRANCH  16  17
ENDBRANCH  14  16
ENDBRANCH   1  14
BRANCH  11  24
HETATM   24  O2  UNL     1      21.276  -1.510  55.019  1.00  0.00    -0.391 OA
HETATM   25  H25 UNL     1      20.926  -0.694  55.464  1.00  0.00     0.210 HD
ENDBRANCH  11  24
TORSDOF 5
ENDMDL
MODEL 4
REMARK VINA RESULT:      -8.2      3.203      8.247
REMARK  5 active torsions:
REMARK  status: ('A' for Active; 'I' for Inactive)
REMARK    1  A    between atoms: C1_2  and  C2_3 
REMARK    2  A    between atoms: C1_2  and  C9_11 
REMARK    3  A    between atoms: C2_3  and  C3_4 
REMARK    4  A    between atoms: C3_4  and  N1_5 
REMARK    5  A    between atoms: C19_21  and  O2_22 
ROOT
HETATM    1  C9  UNL     1      25.275   3.229  50.987  1.00  0.00     0.006 C 
HETATM    2  C10 UNL     1      26.257   3.252  50.029  1.00  0.00    -0.007 C 
HETATM    3  C11 UNL     1      26.479   4.350  49.235  1.00  0.00     0.067 C 
HETATM    4  C12 UNL     1      27.247   5.343  48.631  1.00  0.00    -0.048 A 
HETATM    5  C13 UNL     1      28.567   5.172  48.444  1.00  0.00     0.008 A 
HETATM    6  C14 UNL     1      29.331   6.154  47.875  1.00  0.00     0.001 A 
HETATM    7  C15 UNL     1      28.661   7.300  47.521  1.00  0.00     0.001 A 
HETATM    8  C16 UNL     1      27.309   7.470  47.715  1.00  0.00     0.007 A 
HETATM    9  C17 UNL     1      26.523   6.521  48.272  1.00  0.00    -0.049 A 
HETATM   10  C18 UNL     1      25.073   6.666  48.476  1.00  0.00     0.075 C 
HETATM   11  C19 UNL     1      24.403   6.729  49.776  1.00  0.00     0.145 C 
HETATM   12  C20 UNL     1      24.171   5.611  50.665  1.00  0.00     0.006 C 
HETATM   13  C21 UNL     1      24.431   4.413  51.117  1.00  0.00     0.013 C 
ENDROOT
BRANCH   1  14
HETATM   14  C1  UNL     1      25.393   1.929  51.572  1.00  0.00     0.161 C 
HETATM   15  O1  UNL     1      24.274   1.486  51.917  1.00  0.00    -0.292 OA
BRANCH  14  16
HETATM   16  C2  UNL     1      26.805   1.522  51.580  1.00  0.00     0.114 C 
BRANCH  16  17
HETATM   17  C3  UNL     1      27.602   1.764  52.796  1.00  0.00     0.280 C 
BRANCH  17  18
HETATM   18  N1  UNL     1      27.500   0.919  53.910  1.00  0.00     0.088 N 
HETATM   19  C4  UNL     1      26.908  -0.357  53.814  1.00  0.00     0.272 C 
HETATM   20  C5  UNL     1      27.616  -1.271  52.831  1.00  0.00     0.030 C 
HETATM   21  C6  UNL     1      29.038  -1.438  53.357  1.00  0.00     0.003 C 
HETATM   22  C7  UNL     1      29.679  -0.132  53.704  1.00  0.00     0.030 C 
HETATM   23  C8  UNL     1      28.815   0.776  54.558  1.00  0.00     0.272 C 
ENDBRANCH  17  18
ENDBRANCH  16  17
ENDBRANCH  14  16
ENDBRANCH   1  14
BRANCH  11  24
HETATM   24  O2  UNL     1      23.030   7.015  49.357  1.00  0.00    -0.391 OA
HETATM   25  H25 UNL     1      22.891   7.980  49.548  1.00  0.00     0.210 HD
ENDBRANCH  11  24
TORSDOF 5
ENDMDL
MODEL 5
REMARK VINA RESULT:      -8.2      1.455      2.035
REMARK  5 active torsions:
REMARK  status: ('A' for Active; 'I' for Inactive)
REMARK    1  A    between atoms: C1_2  and  C2_3 
REMARK    2  A    between atoms: C1_2  and  C9_11 
REMARK    3  A    between atoms: C2_3  and  C3_4 
REMARK    4  A    between atoms: C3_4  and  N1_5 
REMARK    5  A    between atoms: C19_21  and  O2_22 
ROOT
HETATM    1  C9  UNL     1      25.942   2.508  51.614  1.00  0.00     0.006 C 
HETATM    2  C10 UNL     1      24.758   1.840  51.437  1.00  0.00    -0.007 C 
HETATM    3  C11 UNL     1      24.322   0.876  52.314  1.00  0.00     0.067 C 
HETATM    4  C12 UNL     1      23.406   0.250  53.155  1.00  0.00    -0.048 A 
HETATM    5  C13 UNL     1      22.085   0.433  52.991  1.00  0.00     0.008 A 
HETATM    6  C14 UNL     1      21.182  -0.159  53.831  1.00  0.00     0.001 A 
HETATM    7  C15 UNL     1      21.717  -0.935  54.829  1.00  0.00     0.001 A 
HETATM    8  C16 UNL     1      23.071  -1.120  54.993  1.00  0.00     0.007 A 
HETATM    9  C17 UNL     1      23.992  -0.552  54.182  1.00  0.00    -0.049 A 
HETATM   10  C18 UNL     1      25.444  -0.746  54.320  1.00  0.00     0.075 C 
HETATM   11  C19 UNL     1      26.407   0.297  54.676  1.00  0.00     0.145 C 
HETATM   12  C20 UNL     1      26.875   1.352  53.802  1.00  0.00     0.006 C 
HETATM   13  C21 UNL     1      26.763   2.135  52.762  1.00  0.00     0.013 C 
ENDROOT
BRANCH   1  14
HETATM   14  C1  UNL     1      26.002   3.406  50.502  1.00  0.00     0.161 C 
HETATM   15  O1  UNL     1      27.139   3.402  49.979  1.00  0.00    -0.292 OA
BRANCH  14  16
HETATM   16  C2  UNL     1      24.696   4.055  50.326  1.00  0.00     0.114 C 
BRANCH  16  17
HETATM   17  C3  UNL     1      24.563   5.110  49.306  1.00  0.00     0.280 C 
BRANCH  17  18
HETATM   18  N1  UNL     1      24.740   6.462  49.635  1.00  0.00     0.088 N 
HETATM   19  C4  UNL     1      26.024   7.035  49.725  1.00  0.00     0.272 C 
HETATM   20  C5  UNL     1      26.806   6.957  48.427  1.00  0.00     0.030 C 
HETATM   21  C6  UNL     1      26.000   7.744  47.399  1.00  0.00     0.003 C 
HETATM   22  C7  UNL     1      24.555   7.357  47.385  1.00  0.00     0.030 C 
HETATM   23  C8  UNL     1      23.912   7.308  48.758  1.00  0.00     0.272 C 
ENDBRANCH  17  18
ENDBRANCH  16  17
ENDBRANCH  14  16
ENDBRANCH   1  14
BRANCH  11  24
HETATM   24  O2  UNL     1      27.630  -0.497  54.800  1.00  0.00    -0.391 OA
HETATM   25  H25 UNL     1      28.376   0.139  54.638  1.00  0.00     0.210 HD
ENDBRANCH  11  24
TORSDOF 5
ENDMDL
MODEL 6
REMARK VINA RESULT:      -8.1      3.444      6.141
REMARK  5 active torsions:
REMARK  status: ('A' for Active; 'I' for Inactive)
REMARK    1  A    between atoms: C1_2  and  C2_3 
REMARK    2  A    between atoms: C1_2  and  C9_11 
REMARK    3  A    between atoms: C2_3  and  C3_4 
REMARK    4  A    between atoms: C3_4  and  N1_5 
REMARK    5  A    between atoms: C19_21  and  O2_22 
ROOT
HETATM    1  C9  UNL     1      23.116   1.332  51.948  1.00  0.00     0.006 C 
HETATM    2  C10 UNL     1      22.223   1.128  50.927  1.00  0.00    -0.007 C 
HETATM    3  C11 UNL     1      20.992   0.554  51.134  1.00  0.00     0.067 C 
HETATM    4  C12 UNL     1      19.606   0.460  51.037  1.00  0.00    -0.048 A 
HETATM    5  C13 UNL     1      18.941   1.088  50.053  1.00  0.00     0.008 A 
HETATM    6  C14 UNL     1      17.577   1.020  49.969  1.00  0.00     0.001 A 
HETATM    7  C15 UNL     1      16.957   0.279  50.945  1.00  0.00     0.001 A 
HETATM    8  C16 UNL     1      17.642  -0.363  51.951  1.00  0.00     0.007 A 
HETATM    9  C17 UNL     1      18.989  -0.319  52.064  1.00  0.00    -0.049 A 
HETATM   10  C18 UNL     1      19.752  -1.008  53.117  1.00  0.00     0.075 C 
HETATM   11  C19 UNL     1      20.526  -0.351  54.171  1.00  0.00     0.145 C 
HETATM   12  C20 UNL     1      21.810   0.296  54.001  1.00  0.00     0.006 C 
HETATM   13  C21 UNL     1      22.731   0.879  53.282  1.00  0.00     0.013 C 
ENDROOT
BRANCH   1  14
HETATM   14  C1  UNL     1      24.239   1.945  51.308  1.00  0.00     0.161 C 
HETATM   15  O1  UNL     1      23.917   2.434  50.203  1.00  0.00    -0.292 OA
BRANCH  14  16
HETATM   16  C2  UNL     1      25.425   1.805  52.163  1.00  0.00     0.114 C 
BRANCH  16  17
HETATM   17  C3  UNL     1      26.290   0.625  51.984  1.00  0.00     0.280 C 
BRANCH  17  18
HETATM   18  N1  UNL     1      26.259  -0.441  52.895  1.00  0.00     0.088 N 
HETATM   19  C4  UNL     1      27.250  -1.443  52.888  1.00  0.00     0.272 C 
HETATM   20  C5  UNL     1      28.647  -0.904  53.132  1.00  0.00     0.030 C 
HETATM   21  C6  UNL     1      28.619  -0.266  54.517  1.00  0.00     0.003 C 
HETATM   22  C7  UNL     1      27.457   0.658  54.699  1.00  0.00     0.030 C 
HETATM   23  C8  UNL     1      26.125   0.073  54.269  1.00  0.00     0.272 C 
ENDBRANCH  17  18
ENDBRANCH  16  17
ENDBRANCH  14  16
ENDBRANCH   1  14
BRANCH  11  24
HETATM   24  O2  UNL     1      20.923  -1.507  54.975  1.00  0.00    -0.391 OA
HETATM   25  H25 UNL     1      20.135  -1.718  55.543  1.00  0.00     0.210 HD
ENDBRANCH  11  24
TORSDOF 5
ENDMDL
MODEL 7
REMARK VINA RESULT:      -8.0      2.124      4.096
REMARK  5 active torsions:
REMARK  status: ('A' for Active; 'I' for Inactive)
REMARK    1  A    between atoms: C1_2  and  C2_3 
REMARK    2  A    between atoms: C1_2  and  C9_11 
REMARK    3  A    between atoms: C2_3  and  C3_4 
REMARK    4  A    between atoms: C3_4  and  N1_5 
REMARK    5  A    between atoms: C19_21  and  O2_22 
ROOT
HETATM    1  C9  UNL     1      23.259   1.718  52.442  1.00  0.00     0.006 C 
HETATM    2  C10 UNL     1      24.402   2.424  52.719  1.00  0.00    -0.007 C 
HETATM    3  C11 UNL     1      25.416   1.906  53.488  1.00  0.00     0.067 C 
HETATM    4  C12 UNL     1      26.734   1.574  53.789  1.00  0.00    -0.048 A 
HETATM    5  C13 UNL     1      27.757   2.227  53.213  1.00  0.00     0.008 A 
HETATM    6  C14 UNL     1      29.054   1.887  53.486  1.00  0.00     0.001 A 
HETATM    7  C15 UNL     1      29.223   0.852  54.372  1.00  0.00     0.001 A 
HETATM    8  C16 UNL     1      28.173   0.185  54.961  1.00  0.00     0.007 A 
HETATM    9  C17 UNL     1      26.880   0.495  54.715  1.00  0.00    -0.049 A 
HETATM   10  C18 UNL     1      25.735  -0.186  55.342  1.00  0.00     0.075 C 
HETATM   11  C19 UNL     1      24.750  -1.009  54.638  1.00  0.00     0.145 C 
HETATM   12  C20 UNL     1      23.685  -0.517  53.792  1.00  0.00     0.006 C 
HETATM   13  C21 UNL     1      23.130   0.388  53.030  1.00  0.00     0.013 C 
ENDROOT
BRANCH   1  14
HETATM   14  C1  UNL     1      22.493   2.607  51.624  1.00  0.00     0.161 C 
HETATM   15  O1  UNL     1      21.598   3.173  52.290  1.00  0.00    -0.292 OA
BRANCH  14  16
HETATM   16  C2  UNL     1      23.007   2.571  50.248  1.00  0.00     0.114 C 
BRANCH  16  17
HETATM   17  C3  UNL     1      23.140   3.841  49.511  1.00  0.00     0.280 C 
BRANCH  17  18
HETATM   18  N1  UNL     1      23.569   5.010  50.155  1.00  0.00     0.088 N 
HETATM   19  C4  UNL     1      24.934   5.247  50.417  1.00  0.00     0.272 C 
HETATM   20  C5  UNL     1      25.785   5.287  49.162  1.00  0.00     0.030 C 
HETATM   21  C6  UNL     1      25.249   6.444  48.324  1.00  0.00     0.003 C 
HETATM   22  C7  UNL     1      23.761   6.402  48.174  1.00  0.00     0.030 C 
HETATM   23  C8  UNL     1      23.012   6.193  49.477  1.00  0.00     0.272 C 
ENDBRANCH  17  18
ENDBRANCH  16  17
ENDBRANCH  14  16
ENDBRANCH   1  14
BRANCH  11  24
HETATM   24  O2  UNL     1      23.970  -1.519  55.766  1.00  0.00    -0.391 OA
HETATM   25  H25 UNL     1      23.232  -0.867  55.894  1.00  0.00     0.210 HD
ENDBRANCH  11  24
TORSDOF 5
ENDMDL
MODEL 8
REMARK VINA RESULT:      -8.0      2.946      7.902
REMARK  5 active torsions:
REMARK  status: ('A' for Active; 'I' for Inactive)
REMARK    1  A    between atoms: C1_2  and  C2_3 
REMARK    2  A    between atoms: C1_2  and  C9_11 
REMARK    3  A    between atoms: C2_3  and  C3_4 
REMARK    4  A    between atoms: C3_4  and  N1_5 
REMARK    5  A    between atoms: C19_21  and  O2_22 
ROOT
HETATM    1  C9  UNL     1      25.064   3.915  49.965  1.00  0.00     0.006 C 
HETATM    2  C10 UNL     1      24.431   5.087  49.638  1.00  0.00    -0.007 C 
HETATM    3  C11 UNL     1      25.062   6.093  48.948  1.00  0.00     0.067 C 
HETATM    4  C12 UNL     1      25.201   7.044  47.939  1.00  0.00    -0.048 A 
HETATM    5  C13 UNL     1      24.123   7.541  47.310  1.00  0.00     0.008 A 
HETATM    6  C14 UNL     1      24.255   8.456  46.301  1.00  0.00     0.001 A 
HETATM    7  C15 UNL     1      25.543   8.816  45.990  1.00  0.00     0.001 A 
HETATM    8  C16 UNL     1      26.645   8.304  46.637  1.00  0.00     0.007 A 
HETATM    9  C17 UNL     1      26.551   7.401  47.639  1.00  0.00    -0.049 A 
HETATM   10  C18 UNL     1      27.708   6.849  48.363  1.00  0.00     0.075 C 
HETATM   11  C19 UNL     1      28.139   5.450  48.330  1.00  0.00     0.145 C 
HETATM   12  C20 UNL     1      27.493   4.349  49.011  1.00  0.00     0.006 C 
HETATM   13  C21 UNL     1      26.467   3.778  49.583  1.00  0.00     0.013 C 
ENDROOT
BRANCH   1  14
HETATM   14  C1  UNL     1      24.064   3.163  50.657  1.00  0.00     0.161 C 
HETATM   15  O1  UNL     1      23.255   2.644  49.857  1.00  0.00    -0.292 OA
BRANCH  14  16
HETATM   16  C2  UNL     1      24.310   3.239  52.104  1.00  0.00     0.114 C 
BRANCH  16  17
HETATM   17  C3  UNL     1      24.444   1.983  52.864  1.00  0.00     0.280 C 
BRANCH  17  18
HETATM   18  N1  UNL     1      25.621   1.683  53.565  1.00  0.00     0.088 N 
HETATM   19  C4  UNL     1      25.771   0.469  54.265  1.00  0.00     0.272 C 
HETATM   20  C5  UNL     1      25.656  -0.753  53.373  1.00  0.00     0.030 C 
HETATM   21  C6  UNL     1      26.787  -0.641  52.355  1.00  0.00     0.003 C 
HETATM   22  C7  UNL     1      26.849   0.708  51.711  1.00  0.00     0.030 C 
HETATM   23  C8  UNL     1      26.791   1.866  52.690  1.00  0.00     0.272 C 
ENDBRANCH  17  18
ENDBRANCH  16  17
ENDBRANCH  14  16
ENDBRANCH   1  14
BRANCH  11  24
HETATM   24  O2  UNL     1      29.384   5.534  49.094  1.00  0.00    -0.391 OA
HETATM   25  H25 UNL     1      29.152   6.029  49.924  1.00  0.00     0.210 HD
ENDBRANCH  11  24
TORSDOF 5
ENDMDL
MODEL 9
REMARK VINA RESULT:      -7.9      3.014      5.394
REMARK  5 active torsions:
REMARK  status: ('A' for Active; 'I' for Inactive)
REMARK    1  A    between atoms: C1_2  and  C2_3 
REMARK    2  A    between atoms: C1_2  and  C9_11 
REMARK    3  A    between atoms: C2_3  and  C3_4 
REMARK    4  A    between atoms: C3_4  and  N1_5 
REMARK    5  A    between atoms: C19_21  and  O2_22 
ROOT
HETATM    1  C9  UNL     1      23.168   1.916  52.648  1.00  0.00     0.006 C 
HETATM    2  C10 UNL     1      24.326   2.590  52.940  1.00  0.00    -0.007 C 
HETATM    3  C11 UNL     1      25.355   2.009  53.641  1.00  0.00     0.067 C 
HETATM    4  C12 UNL     1      26.678   1.645  53.879  1.00  0.00    -0.048 A 
HETATM    5  C13 UNL     1      27.691   2.328  53.320  1.00  0.00     0.008 A 
HETATM    6  C14 UNL     1      28.991   1.957  53.530  1.00  0.00     0.001 A 
HETATM    7  C15 UNL     1      29.175   0.860  54.336  1.00  0.00     0.001 A 
HETATM    8  C16 UNL     1      28.134   0.164  54.907  1.00  0.00     0.007 A 
HETATM    9  C17 UNL     1      26.838   0.502  54.722  1.00  0.00    -0.049 A 
HETATM   10  C18 UNL     1      25.704  -0.211  55.333  1.00  0.00     0.075 C 
HETATM   11  C19 UNL     1      24.691  -0.973  54.602  1.00  0.00     0.145 C 
HETATM   12  C20 UNL     1      23.607  -0.412  53.824  1.00  0.00     0.006 C 
HETATM   13  C21 UNL     1      23.040   0.548  53.144  1.00  0.00     0.013 C 
ENDROOT
BRANCH   1  14
HETATM   14  C1  UNL     1      22.389   2.867  51.917  1.00  0.00     0.161 C 
HETATM   15  O1  UNL     1      23.036   3.338  50.956  1.00  0.00    -0.292 OA
BRANCH  14  16
HETATM   16  C2  UNL     1      21.061   2.990  52.535  1.00  0.00     0.114 C 
BRANCH  16  17
HETATM   17  C3  UNL     1      19.882   2.546  51.770  1.00  0.00     0.280 C 
BRANCH  17  18
HETATM   18  N1  UNL     1      19.961   1.468  50.878  1.00  0.00     0.088 N 
HETATM   19  C4  UNL     1      19.933   0.134  51.331  1.00  0.00     0.272 C 
HETATM   20  C5  UNL     1      18.661  -0.215  52.082  1.00  0.00     0.030 C 
HETATM   21  C6  UNL     1      17.518  -0.019  51.092  1.00  0.00     0.003 C 
HETATM   22  C7  UNL     1      17.590   1.297  50.385  1.00  0.00     0.030 C 
HETATM   23  C8  UNL     1      18.956   1.620  49.811  1.00  0.00     0.272 C 
ENDBRANCH  17  18
ENDBRANCH  16  17
ENDBRANCH  14  16
ENDBRANCH   1  14
BRANCH  11  24
HETATM   24  O2  UNL     1      23.938  -1.554  55.713  1.00  0.00    -0.391 OA
HETATM   25  H25 UNL     1      23.900  -2.529  55.526  1.00  0.00     0.210 HD
ENDBRANCH  11  24
TORSDOF 5
ENDMDL
