MODEL 1
REMARK VINA RESULT:      -9.7      0.000      0.000
REMARK  3 active torsions:
REMARK  status: ('A' for Active; 'I' for Inactive)
REMARK    1  A    between atoms: C2_2  and  C18_20 
REMARK    2  A    between atoms: C3_3  and  C4_4 
REMARK    3  A    between atoms: N2_23  and  C21_24 
ROOT
HETATM    1  C4  UNL     1      24.090   3.523  49.327  1.00  0.00     0.011 C 
HETATM    2  C5  UNL     1      23.790   2.474  50.089  1.00  0.00    -0.006 C 
HETATM    3  C6  UNL     1      24.657   1.808  51.071  1.00  0.00     0.057 C 
HETATM    4  C7  UNL     1      23.973   1.792  52.411  1.00  0.00    -0.000 C 
HETATM    5  C8  UNL     1      23.863   3.247  52.865  1.00  0.00     0.021 C 
HETATM    6  C9  UNL     1      24.782   1.075  53.465  1.00  0.00     0.021 C 
HETATM    7  C10 UNL     1      22.629   1.174  52.304  1.00  0.00     0.031 A 
HETATM    8  C11 UNL     1      21.919   1.210  51.175  1.00  0.00     0.022 A 
HETATM    9  C12 UNL     1      20.602   0.528  51.299  1.00  0.00     0.101 A 
HETATM   10  C13 UNL     1      20.577   0.044  52.688  1.00  0.00     0.015 A 
HETATM   11  C14 UNL     1      20.283  -0.497  53.860  1.00  0.00     0.024 A 
HETATM   12  C15 UNL     1      21.533  -0.125  54.563  1.00  0.00     0.110 A 
HETATM   13  C16 UNL     1      22.353  -1.355  54.903  1.00  0.00     0.037 C 
HETATM   14  N1  UNL     1      21.826   0.461  53.257  1.00  0.00    -0.344 N 
HETATM   15  C17 UNL     1      22.463   1.873  49.980  1.00  0.00     0.186 C 
HETATM   16  O1  UNL     1      21.805   1.924  48.883  1.00  0.00    -0.287 OA
ENDROOT
BRANCH   1  17
HETATM   17  C3  UNL     1      25.360   4.218  49.325  1.00  0.00     0.003 C 
HETATM   18  C2  UNL     1      25.507   5.468  48.918  1.00  0.00    -0.080 C 
HETATM   19  C1  UNL     1      24.307   6.194  48.437  1.00  0.00     0.044 C 
BRANCH  18  20
HETATM   20  C18 UNL     1      26.807   6.166  48.919  1.00  0.00     0.017 C 
HETATM   21  C19 UNL     1      27.888   5.146  48.563  1.00  0.00     0.039 C 
HETATM   22  C20 UNL     1      29.198   5.785  48.207  1.00  0.00     0.273 C 
HETATM   23  N2  UNL     1      29.248   7.177  48.524  1.00  0.00     0.097 N 
HETATM   24  C24 UNL     1      28.184   7.950  47.933  1.00  0.00     0.273 C 
HETATM   25  C25 UNL     1      26.880   7.220  47.845  1.00  0.00     0.039 C 
BRANCH  23  26
HETATM   26  C21 UNL     1      30.473   7.767  48.089  1.00  0.00     0.270 C 
HETATM   27  C22 UNL     1      31.671   6.883  47.923  1.00  0.00     0.205 C 
HETATM   28  O2  UNL     1      32.448   8.015  48.266  1.00  0.00    -0.387 OA
HETATM   29  C23 UNL     1      31.391   8.324  49.154  1.00  0.00     0.205 C 
ENDBRANCH  23  26
ENDBRANCH  18  20
ENDBRANCH   1  17
TORSDOF 3
ENDMDL
MODEL 2
REMARK VINA RESULT:      -9.1      2.337      9.931
REMARK  3 active torsions:
REMARK  status: ('A' for Active; 'I' for Inactive)
REMARK    1  A    between atoms: C2_2  and  C18_20 
REMARK    2  A    between atoms: C3_3  and  C4_4 
REMARK    3  A    between atoms: N2_23  and  C21_24 
ROOT
HETATM    1  C4  UNL     1      26.864   3.914  49.622  1.00  0.00     0.011 C 
HETATM    2  C5  UNL     1      26.715   5.026  48.906  1.00  0.00    -0.006 C 
HETATM    3  C6  UNL     1      25.455   5.675  48.520  1.00  0.00     0.057 C 
HETATM    4  C7  UNL     1      25.463   7.103  48.997  1.00  0.00    -0.000 C 
HETATM    5  C8  UNL     1      25.461   7.055  50.524  1.00  0.00     0.021 C 
HETATM    6  C9  UNL     1      24.218   7.855  48.592  1.00  0.00     0.021 C 
HETATM    7  C10 UNL     1      26.664   7.813  48.496  1.00  0.00     0.031 A 
HETATM    8  C11 UNL     1      27.805   7.177  48.226  1.00  0.00     0.022 A 
HETATM    9  C12 UNL     1      28.874   8.089  47.736  1.00  0.00     0.101 A 
HETATM   10  C13 UNL     1      28.239   9.417  47.731  1.00  0.00     0.015 A 
HETATM   11  C14 UNL     1      27.937  10.701  47.625  1.00  0.00     0.024 A 
HETATM   12  C15 UNL     1      26.536  10.609  48.095  1.00  0.00     0.110 A 
HETATM   13  C16 UNL     1      25.564  10.930  46.975  1.00  0.00     0.037 C 
HETATM   14  N1  UNL     1      26.901   9.198  48.200  1.00  0.00    -0.344 N 
HETATM   15  C17 UNL     1      27.903   5.721  48.418  1.00  0.00     0.186 C 
HETATM   16  O1  UNL     1      28.984   5.084  48.169  1.00  0.00    -0.287 OA
ENDROOT
BRANCH   1  17
HETATM   17  C3  UNL     1      25.784   3.120  50.167  1.00  0.00     0.003 C 
HETATM   18  C2  UNL     1      25.908   2.355  51.239  1.00  0.00    -0.080 C 
HETATM   19  C1  UNL     1      27.226   2.309  51.917  1.00  0.00     0.044 C 
BRANCH  18  20
HETATM   20  C18 UNL     1      24.799   1.549  51.785  1.00  0.00     0.017 C 
HETATM   21  C19 UNL     1      25.395   0.516  52.741  1.00  0.00     0.039 C 
HETATM   22  C20 UNL     1      24.361  -0.140  53.608  1.00  0.00     0.273 C 
HETATM   23  N2  UNL     1      23.023   0.133  53.189  1.00  0.00     0.097 N 
HETATM   24  C24 UNL     1      22.716   1.538  53.091  1.00  0.00     0.273 C 
HETATM   25  C25 UNL     1      23.862   2.379  52.624  1.00  0.00     0.039 C 
BRANCH  23  26
HETATM   26  C21 UNL     1      22.070  -0.434  54.089  1.00  0.00     0.270 C 
HETATM   27  C22 UNL     1      22.572  -1.264  55.230  1.00  0.00     0.205 C 
HETATM   28  O2  UNL     1      21.360  -1.987  55.126  1.00  0.00    -0.387 OA
HETATM   29  C23 UNL     1      21.498  -1.787  53.732  1.00  0.00     0.205 C 
ENDBRANCH  23  26
ENDBRANCH  18  20
ENDBRANCH   1  17
TORSDOF 3
ENDMDL
MODEL 3
REMARK VINA RESULT:      -9.1      2.518     10.391
REMARK  3 active torsions:
REMARK  status: ('A' for Active; 'I' for Inactive)
REMARK    1  A    between atoms: C2_2  and  C18_20 
REMARK    2  A    between atoms: C3_3  and  C4_4 
REMARK    3  A    between atoms: N2_23  and  C21_24 
ROOT
HETATM    1  C4  UNL     1      24.435   2.308  51.084  1.00  0.00     0.011 C 
HETATM    2  C5  UNL     1      24.710   3.127  50.072  1.00  0.00    -0.006 C 
HETATM    3  C6  UNL     1      23.751   3.809  49.192  1.00  0.00     0.057 C 
HETATM    4  C7  UNL     1      24.005   5.292  49.232  1.00  0.00    -0.000 C 
HETATM    5  C8  UNL     1      23.678   5.755  50.651  1.00  0.00     0.021 C 
HETATM    6  C9  UNL     1      23.089   6.061  48.310  1.00  0.00     0.021 C 
HETATM    7  C10 UNL     1      25.419   5.588  48.897  1.00  0.00     0.031 A 
HETATM    8  C11 UNL     1      26.403   4.720  49.138  1.00  0.00     0.022 A 
HETATM    9  C12 UNL     1      27.738   5.230  48.721  1.00  0.00     0.101 A 
HETATM   10  C13 UNL     1      27.457   6.565  48.171  1.00  0.00     0.015 A 
HETATM   11  C14 UNL     1      27.503   7.773  47.630  1.00  0.00     0.024 A 
HETATM   12  C15 UNL     1      26.054   8.073  47.707  1.00  0.00     0.110 A 
HETATM   13  C16 UNL     1      25.441   8.158  46.323  1.00  0.00     0.037 C 
HETATM   14  N1  UNL     1      26.039   6.738  48.300  1.00  0.00    -0.344 N 
HETATM   15  C17 UNL     1      26.105   3.416  49.750  1.00  0.00     0.186 C 
HETATM   16  O1  UNL     1      27.028   2.564  49.994  1.00  0.00    -0.287 OA
ENDROOT
BRANCH   1  17
HETATM   17  C3  UNL     1      23.107   1.928  51.516  1.00  0.00     0.003 C 
HETATM   18  C2  UNL     1      22.873   1.002  52.431  1.00  0.00    -0.080 C 
HETATM   19  C1  UNL     1      24.035   0.316  53.046  1.00  0.00     0.044 C 
BRANCH  18  20
HETATM   20  C18 UNL     1      21.514   0.623  52.862  1.00  0.00     0.017 C 
HETATM   21  C19 UNL     1      20.598   0.691  51.640  1.00  0.00     0.039 C 
HETATM   22  C20 UNL     1      19.276   0.016  51.864  1.00  0.00     0.273 C 
HETATM   23  N2  UNL     1      19.040  -0.314  53.234  1.00  0.00     0.097 N 
HETATM   24  C24 UNL     1      20.076  -1.123  53.828  1.00  0.00     0.273 C 
HETATM   25  C25 UNL     1      21.452  -0.807  53.331  1.00  0.00     0.039 C 
BRANCH  23  26
HETATM   26  C21 UNL     1      17.817  -1.032  53.393  1.00  0.00     0.270 C 
HETATM   27  C22 UNL     1      17.873  -2.525  53.487  1.00  0.00     0.205 C 
HETATM   28  O2  UNL     1      16.593  -2.527  52.884  1.00  0.00    -0.387 OA
HETATM   29  C23 UNL     1      17.074  -1.425  52.136  1.00  0.00     0.205 C 
ENDBRANCH  23  26
ENDBRANCH  18  20
ENDBRANCH   1  17
TORSDOF 3
ENDMDL
MODEL 4
REMARK VINA RESULT:      -9.0      1.163      1.585
REMARK  3 active torsions:
REMARK  status: ('A' for Active; 'I' for Inactive)
REMARK    1  A    between atoms: C2_2  and  C18_20 
REMARK    2  A    between atoms: C3_3  and  C4_4 
REMARK    3  A    between atoms: N2_23  and  C21_24 
ROOT
HETATM    1  C4  UNL     1      23.400   3.595  49.172  1.00  0.00     0.011 C 
HETATM    2  C5  UNL     1      23.294   2.545  49.982  1.00  0.00    -0.006 C 
HETATM    3  C6  UNL     1      24.315   2.019  50.898  1.00  0.00     0.057 C 
HETATM    4  C7  UNL     1      23.755   1.968  52.294  1.00  0.00    -0.000 C 
HETATM    5  C8  UNL     1      23.510   3.414  52.722  1.00  0.00     0.021 C 
HETATM    6  C9  UNL     1      24.732   1.388  53.289  1.00  0.00     0.021 C 
HETATM    7  C10 UNL     1      22.491   1.192  52.320  1.00  0.00     0.031 A 
HETATM    8  C11 UNL     1      21.688   1.106  51.258  1.00  0.00     0.022 A 
HETATM    9  C12 UNL     1      20.479   0.277  51.514  1.00  0.00     0.101 A 
HETATM   10  C13 UNL     1      20.631  -0.159  52.912  1.00  0.00     0.015 A 
HETATM   11  C14 UNL     1      20.505  -0.691  54.117  1.00  0.00     0.024 A 
HETATM   12  C15 UNL     1      21.756  -0.150  54.698  1.00  0.00     0.110 A 
HETATM   13  C16 UNL     1      22.744  -1.262  54.993  1.00  0.00     0.037 C 
HETATM   14  N1  UNL     1      21.865   0.422  53.357  1.00  0.00    -0.344 N 
HETATM   15  C17 UNL     1      22.045   1.787  50.004  1.00  0.00     0.186 C 
HETATM   16  O1  UNL     1      21.294   1.723  48.970  1.00  0.00    -0.287 OA
ENDROOT
BRANCH   1  17
HETATM   17  C3  UNL     1      24.571   4.434  49.040  1.00  0.00     0.003 C 
HETATM   18  C2  UNL     1      24.540   5.659  48.539  1.00  0.00    -0.080 C 
HETATM   19  C1  UNL     1      23.235   6.197  48.087  1.00  0.00     0.044 C 
BRANCH  18  20
HETATM   20  C18 UNL     1      25.742   6.505  48.410  1.00  0.00     0.017 C 
HETATM   21  C19 UNL     1      25.711   7.540  49.533  1.00  0.00     0.039 C 
HETATM   22  C20 UNL     1      27.025   8.241  49.717  1.00  0.00     0.273 C 
HETATM   23  N2  UNL     1      27.945   7.995  48.652  1.00  0.00     0.097 N 
HETATM   24  C24 UNL     1      28.199   6.597  48.409  1.00  0.00     0.273 C 
HETATM   25  C25 UNL     1      27.009   5.717  48.624  1.00  0.00     0.039 C 
BRANCH  23  26
HETATM   26  C21 UNL     1      29.210   8.605  48.905  1.00  0.00     0.270 C 
HETATM   27  C22 UNL     1      29.243  10.057  49.271  1.00  0.00     0.205 C 
HETATM   28  O2  UNL     1      30.510  10.100  48.643  1.00  0.00    -0.387 OA
HETATM   29  C23 UNL     1      29.953   9.182  47.721  1.00  0.00     0.205 C 
ENDBRANCH  23  26
ENDBRANCH  18  20
ENDBRANCH   1  17
TORSDOF 3
ENDMDL
MODEL 5
REMARK VINA RESULT:      -9.0      5.008      6.395
REMARK  3 active torsions:
REMARK  status: ('A' for Active; 'I' for Inactive)
REMARK    1  A    between atoms: C2_2  and  C18_20 
REMARK    2  A    between atoms: C3_3  and  C4_4 
REMARK    3  A    between atoms: N2_23  and  C21_24 
ROOT
HETATM    1  C4  UNL     1      22.378   1.951  50.257  1.00  0.00     0.011 C 
HETATM    2  C5  UNL     1      21.170   1.395  50.310  1.00  0.00    -0.006 C 
HETATM    3  C6  UNL     1      20.752   0.249  51.130  1.00  0.00     0.057 C 
HETATM    4  C7  UNL     1      19.576   0.647  51.980  1.00  0.00    -0.000 C 
HETATM    5  C8  UNL     1      20.081   1.704  52.961  1.00  0.00     0.021 C 
HETATM    6  C9  UNL     1      19.053  -0.496  52.816  1.00  0.00     0.021 C 
HETATM    7  C10 UNL     1      18.484   1.194  51.138  1.00  0.00     0.031 A 
HETATM    8  C11 UNL     1      18.721   1.800  49.973  1.00  0.00     0.022 A 
HETATM    9  C12 UNL     1      17.478   2.268  49.302  1.00  0.00     0.101 A 
HETATM   10  C13 UNL     1      16.400   1.865  50.220  1.00  0.00     0.015 A 
HETATM   11  C14 UNL     1      15.253   1.630  50.837  1.00  0.00     0.024 A 
HETATM   12  C15 UNL     1      15.811   0.944  52.026  1.00  0.00     0.110 A 
HETATM   13  C16 UNL     1      15.407  -0.518  52.051  1.00  0.00     0.037 C 
HETATM   14  N1  UNL     1      17.060   1.219  51.318  1.00  0.00    -0.344 N 
HETATM   15  C17 UNL     1      20.100   1.940  49.480  1.00  0.00     0.186 C 
HETATM   16  O1  UNL     1      20.358   2.517  48.367  1.00  0.00    -0.287 OA
ENDROOT
BRANCH   1  17
HETATM   17  C3  UNL     1      23.531   1.518  51.017  1.00  0.00     0.003 C 
HETATM   18  C2  UNL     1      24.020   2.188  52.049  1.00  0.00    -0.080 C 
HETATM   19  C1  UNL     1      23.349   3.449  52.445  1.00  0.00     0.044 C 
BRANCH  18  20
HETATM   20  C18 UNL     1      25.197   1.737  52.815  1.00  0.00     0.017 C 
HETATM   21  C19 UNL     1      25.018   0.250  53.119  1.00  0.00     0.039 C 
HETATM   22  C20 UNL     1      26.282  -0.404  53.597  1.00  0.00     0.273 C 
HETATM   23  N2  UNL     1      27.310   0.533  53.920  1.00  0.00     0.097 N 
HETATM   24  C24 UNL     1      27.638   1.436  52.844  1.00  0.00     0.273 C 
HETATM   25  C25 UNL     1      26.464   1.830  52.004  1.00  0.00     0.039 C 
BRANCH  23  26
HETATM   26  C21 UNL     1      28.522  -0.128  54.284  1.00  0.00     0.270 C 
HETATM   27  C22 UNL     1      29.808   0.368  53.701  1.00  0.00     0.205 C 
HETATM   28  O2  UNL     1      30.267  -0.968  53.791  1.00  0.00    -0.387 OA
HETATM   29  C23 UNL     1      28.938  -1.321  53.453  1.00  0.00     0.205 C 
ENDBRANCH  23  26
ENDBRANCH  18  20
ENDBRANCH   1  17
TORSDOF 3
ENDMDL
MODEL 6
REMARK VINA RESULT:      -8.9      2.764      3.909
REMARK  3 active torsions:
REMARK  status: ('A' for Active; 'I' for Inactive)
REMARK    1  A    between atoms: C2_2  and  C18_20 
REMARK    2  A    between atoms: C3_3  and  C4_4 
REMARK    3  A    between atoms: N2_23  and  C21_24 
ROOT
HETATM    1  C4  UNL     1      26.342   3.861  50.031  1.00  0.00     0.011 C 
HETATM    2  C5  UNL     1      25.573   3.338  50.984  1.00  0.00    -0.006 C 
HETATM    3  C6  UNL     1      24.299   3.865  51.490  1.00  0.00     0.057 C 
HETATM    4  C7  UNL     1      23.235   2.809  51.358  1.00  0.00    -0.000 C 
HETATM    5  C8  UNL     1      23.030   2.577  49.861  1.00  0.00     0.021 C 
HETATM    6  C9  UNL     1      21.902   3.258  51.907  1.00  0.00     0.021 C 
HETATM    7  C10 UNL     1      23.657   1.555  52.028  1.00  0.00     0.031 A 
HETATM    8  C11 UNL     1      24.941   1.218  52.160  1.00  0.00     0.022 A 
HETATM    9  C12 UNL     1      25.129  -0.080  52.865  1.00  0.00     0.101 A 
HETATM   10  C13 UNL     1      23.759  -0.525  53.168  1.00  0.00     0.015 A 
HETATM   11  C14 UNL     1      22.669  -1.162  53.565  1.00  0.00     0.024 A 
HETATM   12  C15 UNL     1      21.679  -0.179  53.065  1.00  0.00     0.110 A 
HETATM   13  C16 UNL     1      20.950   0.492  54.213  1.00  0.00     0.037 C 
HETATM   14  N1  UNL     1      22.903   0.498  52.641  1.00  0.00    -0.344 N 
HETATM   15  C17 UNL     1      25.995   2.102  51.638  1.00  0.00     0.186 C 
HETATM   16  O1  UNL     1      27.235   1.804  51.749  1.00  0.00    -0.287 OA
ENDROOT
BRANCH   1  17
HETATM   17  C3  UNL     1      26.056   5.077  49.301  1.00  0.00     0.003 C 
HETATM   18  C2  UNL     1      26.957   5.727  48.582  1.00  0.00    -0.080 C 
HETATM   19  C1  UNL     1      28.333   5.179  48.524  1.00  0.00     0.044 C 
BRANCH  18  20
HETATM   20  C18 UNL     1      26.653   6.966  47.842  1.00  0.00     0.017 C 
HETATM   21  C19 UNL     1      25.220   7.376  48.180  1.00  0.00     0.039 C 
HETATM   22  C20 UNL     1      24.901   8.782  47.763  1.00  0.00     0.273 C 
HETATM   23  N2  UNL     1      25.896   9.353  46.911  1.00  0.00     0.097 N 
HETATM   24  C24 UNL     1      27.226   9.328  47.466  1.00  0.00     0.273 C 
HETATM   25  C25 UNL     1      27.516   8.116  48.294  1.00  0.00     0.039 C 
BRANCH  23  26
HETATM   26  C21 UNL     1      25.602  10.716  46.609  1.00  0.00     0.270 C 
HETATM   27  C22 UNL     1      26.743  11.673  46.451  1.00  0.00     0.205 C 
HETATM   28  O2  UNL     1      25.863  12.671  46.936  1.00  0.00    -0.387 OA
HETATM   29  C23 UNL     1      25.357  11.648  47.774  1.00  0.00     0.205 C 
ENDBRANCH  23  26
ENDBRANCH  18  20
ENDBRANCH   1  17
TORSDOF 3
ENDMDL
MODEL 7
REMARK VINA RESULT:      -8.5      2.881      4.887
REMARK  3 active torsions:
REMARK  status: ('A' for Active; 'I' for Inactive)
REMARK    1  A    between atoms: C2_2  and  C18_20 
REMARK    2  A    between atoms: C3_3  and  C4_4 
REMARK    3  A    between atoms: N2_23  and  C21_24 
ROOT
HETATM    1  C4  UNL     1      22.328   1.040  52.497  1.00  0.00     0.011 C 
HETATM    2  C5  UNL     1      21.017   0.936  52.703  1.00  0.00    -0.006 C 
HETATM    3  C6  UNL     1      19.980   1.916  52.353  1.00  0.00     0.057 C 
HETATM    4  C7  UNL     1      18.946   1.256  51.481  1.00  0.00    -0.000 C 
HETATM    5  C8  UNL     1      19.643   0.895  50.170  1.00  0.00     0.021 C 
HETATM    6  C9  UNL     1      17.814   2.189  51.120  1.00  0.00     0.021 C 
HETATM    7  C10 UNL     1      18.405   0.043  52.139  1.00  0.00     0.031 A 
HETATM    8  C11 UNL     1      19.121  -0.672  53.009  1.00  0.00     0.022 A 
HETATM    9  C12 UNL     1      18.377  -1.846  53.543  1.00  0.00     0.101 A 
HETATM   10  C13 UNL     1      17.066  -1.773  52.878  1.00  0.00     0.015 A 
HETATM   11  C14 UNL     1      15.830  -1.957  52.442  1.00  0.00     0.024 A 
HETATM   12  C15 UNL     1      15.770  -0.787  51.535  1.00  0.00     0.110 A 
HETATM   13  C16 UNL     1      14.774   0.241  52.037  1.00  0.00     0.037 C 
HETATM   14  N1  UNL     1      17.131  -0.613  52.038  1.00  0.00    -0.344 N 
HETATM   15  C17 UNL     1      20.493  -0.264  53.350  1.00  0.00     0.186 C 
HETATM   16  O1  UNL     1      21.203  -0.930  54.180  1.00  0.00    -0.287 OA
ENDROOT
BRANCH   1  17
HETATM   17  C3  UNL     1      22.989   2.166  51.874  1.00  0.00     0.003 C 
HETATM   18  C2  UNL     1      24.291   2.212  51.642  1.00  0.00    -0.080 C 
HETATM   19  C1  UNL     1      25.116   1.047  52.045  1.00  0.00     0.044 C 
BRANCH  18  20
HETATM   20  C18 UNL     1      24.954   3.366  51.006  1.00  0.00     0.017 C 
HETATM   21  C19 UNL     1      26.244   2.868  50.355  1.00  0.00     0.039 C 
HETATM   22  C20 UNL     1      26.837   3.862  49.401  1.00  0.00     0.273 C 
HETATM   23  N2  UNL     1      26.236   5.155  49.493  1.00  0.00     0.097 N 
HETATM   24  C24 UNL     1      24.805   5.148  49.318  1.00  0.00     0.273 C 
HETATM   25  C25 UNL     1      24.130   3.937  49.881  1.00  0.00     0.039 C 
BRANCH  23  26
HETATM   26  C21 UNL     1      26.765   6.046  48.511  1.00  0.00     0.270 C 
HETATM   27  C22 UNL     1      28.247   6.074  48.297  1.00  0.00     0.205 C 
HETATM   28  O2  UNL     1      28.086   7.436  47.948  1.00  0.00    -0.387 OA
HETATM   29  C23 UNL     1      27.092   7.454  48.956  1.00  0.00     0.205 C 
ENDBRANCH  23  26
ENDBRANCH  18  20
ENDBRANCH   1  17
TORSDOF 3
ENDMDL
MODEL 8
REMARK VINA RESULT:      -8.4      2.041     10.391
REMARK  3 active torsions:
REMARK  status: ('A' for Active; 'I' for Inactive)
REMARK    1  A    between atoms: C2_2  and  C18_20 
REMARK    2  A    between atoms: C3_3  and  C4_4 
REMARK    3  A    between atoms: N2_23  and  C21_24 
ROOT
HETATM    1  C4  UNL     1      27.113   4.766  49.081  1.00  0.00     0.011 C 
HETATM    2  C5  UNL     1      27.528   5.880  48.484  1.00  0.00    -0.006 C 
HETATM    3  C6  UNL     1      26.697   6.974  47.962  1.00  0.00     0.057 C 
HETATM    4  C7  UNL     1      27.123   8.271  48.595  1.00  0.00    -0.000 C 
HETATM    5  C8  UNL     1      26.790   8.163  50.083  1.00  0.00     0.021 C 
HETATM    6  C9  UNL     1      26.347   9.454  48.069  1.00  0.00     0.021 C 
HETATM    7  C10 UNL     1      28.575   8.495  48.399  1.00  0.00     0.031 A 
HETATM    8  C11 UNL     1      29.437   7.486  48.261  1.00  0.00     0.022 A 
HETATM    9  C12 UNL     1      30.841   7.947  48.076  1.00  0.00     0.101 A 
HETATM   10  C13 UNL     1      30.745   9.415  48.114  1.00  0.00     0.015 A 
HETATM   11  C14 UNL     1      30.958  10.721  48.107  1.00  0.00     0.024 A 
HETATM   12  C15 UNL     1      29.554  11.146  48.310  1.00  0.00     0.110 A 
HETATM   13  C16 UNL     1      29.017  11.857  47.082  1.00  0.00     0.037 C 
HETATM   14  N1  UNL     1      29.353   9.699  48.312  1.00  0.00    -0.344 N 
HETATM   15  C17 UNL     1      28.960   6.095  48.297  1.00  0.00     0.186 C 
HETATM   16  O1  UNL     1      29.764   5.107  48.169  1.00  0.00    -0.287 OA
ENDROOT
BRANCH   1  17
HETATM   17  C3  UNL     1      25.731   4.417  49.332  1.00  0.00     0.003 C 
HETATM   18  C2  UNL     1      25.360   3.441  50.145  1.00  0.00    -0.080 C 
HETATM   19  C1  UNL     1      26.418   2.664  50.834  1.00  0.00     0.044 C 
BRANCH  18  20
HETATM   20  C18 UNL     1      23.947   3.094  50.392  1.00  0.00     0.017 C 
HETATM   21  C19 UNL     1      23.300   2.775  49.045  1.00  0.00     0.039 C 
HETATM   22  C20 UNL     1      21.971   2.092  49.184  1.00  0.00     0.273 C 
HETATM   23  N2  UNL     1      21.465   2.116  50.519  1.00  0.00     0.097 N 
HETATM   24  C24 UNL     1      22.370   1.565  51.498  1.00  0.00     0.273 C 
HETATM   25  C25 UNL     1      23.813   1.835  51.210  1.00  0.00     0.039 C 
BRANCH  23  26
HETATM   26  C21 UNL     1      20.246   1.381  50.628  1.00  0.00     0.270 C 
HETATM   27  C22 UNL     1      19.206   1.863  51.592  1.00  0.00     0.205 C 
HETATM   28  O2  UNL     1      18.830   0.505  51.734  1.00  0.00    -0.387 OA
HETATM   29  C23 UNL     1      20.214   0.233  51.612  1.00  0.00     0.205 C 
ENDBRANCH  23  26
ENDBRANCH  18  20
ENDBRANCH   1  17
TORSDOF 3
ENDMDL
MODEL 9
REMARK VINA RESULT:      -8.2      4.201     10.616
REMARK  3 active torsions:
REMARK  status: ('A' for Active; 'I' for Inactive)
REMARK    1  A    between atoms: C2_2  and  C18_20 
REMARK    2  A    between atoms: C3_3  and  C4_4 
REMARK    3  A    between atoms: N2_23  and  C21_24 
ROOT
HETATM    1  C4  UNL     1      28.267   5.446  48.523  1.00  0.00     0.011 C 
HETATM    2  C5  UNL     1      29.081   6.240  47.833  1.00  0.00    -0.006 C 
HETATM    3  C6  UNL     1      28.725   7.471  47.113  1.00  0.00     0.057 C 
HETATM    4  C7  UNL     1      29.574   8.606  47.618  1.00  0.00    -0.000 C 
HETATM    5  C8  UNL     1      29.174   8.840  49.074  1.00  0.00     0.021 C 
HETATM    6  C9  UNL     1      29.303   9.900  46.888  1.00  0.00     0.021 C 
HETATM    7  C10 UNL     1      31.014   8.266  47.519  1.00  0.00     0.031 A 
HETATM    8  C11 UNL     1      31.452   7.007  47.578  1.00  0.00     0.022 A 
HETATM    9  C12 UNL     1      32.932   6.904  47.457  1.00  0.00     0.101 A 
HETATM   10  C13 UNL     1      33.379   8.298  47.308  1.00  0.00     0.015 A 
HETATM   11  C14 UNL     1      34.055   9.427  47.160  1.00  0.00     0.024 A 
HETATM   12  C15 UNL     1      32.897  10.350  47.191  1.00  0.00     0.110 A 
HETATM   13  C16 UNL     1      32.700  11.021  45.845  1.00  0.00     0.037 C 
HETATM   14  N1  UNL     1      32.181   9.086  47.352  1.00  0.00    -0.344 N 
HETATM   15  C17 UNL     1      30.498   5.899  47.742  1.00  0.00     0.186 C 
HETATM   16  O1  UNL     1      30.889   4.682  47.803  1.00  0.00    -0.287 OA
ENDROOT
BRANCH   1  17
HETATM   17  C3  UNL     1      26.845   5.653  48.697  1.00  0.00     0.003 C 
HETATM   18  C2  UNL     1      26.024   4.729  49.169  1.00  0.00    -0.080 C 
HETATM   19  C1  UNL     1      26.592   3.410  49.537  1.00  0.00     0.044 C 
BRANCH  18  20
HETATM   20  C18 UNL     1      24.576   4.953  49.341  1.00  0.00     0.017 C 
HETATM   21  C19 UNL     1      24.348   5.489  50.754  1.00  0.00     0.039 C 
HETATM   22  C20 UNL     1      22.976   6.066  50.944  1.00  0.00     0.273 C 
HETATM   23  N2  UNL     1      22.087   5.765  49.868  1.00  0.00     0.097 N 
HETATM   24  C24 UNL     1      22.578   6.164  48.572  1.00  0.00     0.273 C 
HETATM   25  C25 UNL     1      24.060   6.026  48.416  1.00  0.00     0.039 C 
BRANCH  23  26
HETATM   26  C21 UNL     1      20.822   6.404  50.042  1.00  0.00     0.270 C 
HETATM   27  C22 UNL     1      20.029   6.760  48.822  1.00  0.00     0.205 C 
HETATM   28  O2  UNL     1      19.517   7.844  49.575  1.00  0.00    -0.387 OA
HETATM   29  C23 UNL     1      20.815   7.914  50.135  1.00  0.00     0.205 C 
ENDBRANCH  23  26
ENDBRANCH  18  20
ENDBRANCH   1  17
TORSDOF 3
ENDMDL
