MODEL 1
REMARK VINA RESULT:      -7.9      0.000      0.000
REMARK  6 active torsions:
REMARK  status: ('A' for Active; 'I' for Inactive)
REMARK    1  A    between atoms: C2_2  and  N1_3 
REMARK    2  A    between atoms: N1_3  and  C3_4 
REMARK    3  A    between atoms: N1_3  and  C5_6 
REMARK    4  A    between atoms: C5_6  and  C6_7 
REMARK    5  A    between atoms: C6_7  and  N2_8 
REMARK       I    between atoms: N2_8  and  C7_9 
REMARK    6  A    between atoms: C7_9  and  C8_11 
ROOT
HETATM    1  C8  UNL     1      25.275   2.641  52.122  1.00  0.00     0.240 C 
HETATM    2  C9  UNL     1      24.330   3.544  52.857  1.00  0.00     0.060 C 
HETATM    3  N3  UNL     1      26.312   2.222  53.070  1.00  0.00     0.106 N 
HETATM    4  C10 UNL     1      26.105   0.767  53.146  1.00  0.00     0.307 C 
HETATM    5  C11 UNL     1      24.631   0.564  52.930  1.00  0.00    -0.029 C 
HETATM    6  C12 UNL     1      23.841  -0.127  53.730  1.00  0.00     0.045 C 
HETATM    7  C13 UNL     1      24.187  -0.848  54.982  1.00  0.00     0.253 C 
HETATM    8  O2  UNL     1      25.351  -0.945  55.517  1.00  0.00    -0.268 OA
HETATM    9  N4  UNL     1      22.956  -1.432  55.504  1.00  0.00    -0.345 N 
HETATM   10  C14 UNL     1      22.346  -1.695  54.247  1.00  0.00     0.143 A 
HETATM   11  C15 UNL     1      20.910  -1.982  54.219  1.00  0.00     0.022 A 
HETATM   12  C16 UNL     1      20.283  -0.986  53.577  1.00  0.00     0.010 A 
HETATM   13 BR1  UNL     1      18.426  -0.739  53.186  1.00  0.00    -0.051 Br
HETATM   14  C17 UNL     1      21.225   0.077  53.167  1.00  0.00     0.029 A 
HETATM   15  C18 UNL     1      22.400  -0.331  53.587  1.00  0.00    -0.014 A 
HETATM   16  C19 UNL     1      24.653   1.326  51.686  1.00  0.00     0.061 C 
HETATM   17  C20 UNL     1      23.342   1.567  51.020  1.00  0.00     0.018 C 
HETATM   18  H19 UNL     1      26.205   2.686  53.986  1.00  0.00     0.317 HD
HETATM   19  H22 UNL     1      22.835  -1.508  56.553  1.00  0.00     0.163 HD
ENDROOT
BRANCH   1  20
HETATM   20  C7  UNL     1      25.910   3.398  51.033  1.00  0.00     0.257 C 
HETATM   21  N2  UNL     1      25.566   4.705  50.601  1.00  0.00    -0.357 N 
HETATM   22  H15 UNL     1      24.766   5.082  51.185  1.00  0.00     0.162 HD
HETATM   23  O1  UNL     1      26.841   2.776  50.465  1.00  0.00    -0.271 OA
BRANCH  21  24
HETATM   24  C6  UNL     1      26.181   5.463  49.528  1.00  0.00     0.152 C 
BRANCH  24  25
HETATM   25  C5  UNL     1      25.163   6.369  48.935  1.00  0.00     0.292 C 
BRANCH  25  26
HETATM   26  N1  UNL     1      25.458   7.766  48.944  1.00  0.00     0.089 N 
BRANCH  26  27
HETATM   27  C2  UNL     1      24.570   8.573  49.724  1.00  0.00     0.268 C 
HETATM   28  C1  UNL     1      23.559   7.842  50.536  1.00  0.00     0.037 C 
ENDBRANCH  26  27
BRANCH  26  29
HETATM   29  C3  UNL     1      26.844   7.899  49.347  1.00  0.00     0.268 C 
HETATM   30  C4  UNL     1      27.123   9.064  50.236  1.00  0.00     0.037 C 
ENDBRANCH  26  29
ENDBRANCH  25  26
ENDBRANCH  24  25
ENDBRANCH  21  24
ENDBRANCH   1  20
TORSDOF 6
ENDMDL
MODEL 2
REMARK VINA RESULT:      -7.8      1.069      1.751
REMARK  6 active torsions:
REMARK  status: ('A' for Active; 'I' for Inactive)
REMARK    1  A    between atoms: C2_2  and  N1_3 
REMARK    2  A    between atoms: N1_3  and  C3_4 
REMARK    3  A    between atoms: N1_3  and  C5_6 
REMARK    4  A    between atoms: C5_6  and  C6_7 
REMARK    5  A    between atoms: C6_7  and  N2_8 
REMARK       I    between atoms: N2_8  and  C7_9 
REMARK    6  A    between atoms: C7_9  and  C8_11 
ROOT
HETATM    1  C8  UNL     1      25.081   2.877  51.795  1.00  0.00     0.240 C 
HETATM    2  C9  UNL     1      24.143   3.742  52.581  1.00  0.00     0.060 C 
HETATM    3  N3  UNL     1      26.187   2.504  52.681  1.00  0.00     0.106 N 
HETATM    4  C10 UNL     1      26.046   1.042  52.770  1.00  0.00     0.307 C 
HETATM    5  C11 UNL     1      24.571   0.777  52.638  1.00  0.00    -0.029 C 
HETATM    6  C12 UNL     1      23.858   0.056  53.481  1.00  0.00     0.045 C 
HETATM    7  C13 UNL     1      24.304  -0.647  54.712  1.00  0.00     0.253 C 
HETATM    8  O2  UNL     1      25.499  -0.694  55.181  1.00  0.00    -0.268 OA
HETATM    9  N4  UNL     1      23.130  -1.280  55.304  1.00  0.00    -0.345 N 
HETATM   10  C14 UNL     1      22.461  -1.571  54.084  1.00  0.00     0.143 A 
HETATM   11  C15 UNL     1      21.039  -1.919  54.137  1.00  0.00     0.022 A 
HETATM   12  C16 UNL     1      20.336  -0.951  53.531  1.00  0.00     0.010 A 
HETATM   13 BR1  UNL     1      18.451  -0.782  53.247  1.00  0.00    -0.051 Br
HETATM   14  C17 UNL     1      21.207   0.149  53.068  1.00  0.00     0.029 A 
HETATM   15  C18 UNL     1      22.420  -0.209  53.421  1.00  0.00    -0.014 A 
HETATM   16  C19 UNL     1      24.491   1.536  51.394  1.00  0.00     0.061 C 
HETATM   17  C20 UNL     1      23.136   1.721  50.804  1.00  0.00     0.018 C 
HETATM   18  H19 UNL     1      26.113   2.965  53.603  1.00  0.00     0.317 HD
HETATM   19  H22 UNL     1      23.072  -1.358  56.357  1.00  0.00     0.163 HD
ENDROOT
BRANCH   1  20
HETATM   20  C7  UNL     1      25.621   3.657  50.671  1.00  0.00     0.257 C 
HETATM   21  N2  UNL     1      25.548   5.064  50.508  1.00  0.00    -0.357 N 
HETATM   22  H15 UNL     1      25.038   5.500  51.328  1.00  0.00     0.162 HD
HETATM   23  O1  UNL     1      26.191   2.955  49.800  1.00  0.00    -0.271 OA
BRANCH  21  24
HETATM   24  C6  UNL     1      26.072   5.847  49.405  1.00  0.00     0.152 C 
BRANCH  24  25
HETATM   25  C5  UNL     1      25.010   6.763  48.917  1.00  0.00     0.292 C 
BRANCH  25  26
HETATM   26  N1  UNL     1      23.658   6.375  49.164  1.00  0.00     0.089 N 
BRANCH  26  27
HETATM   27  C2  UNL     1      22.793   7.424  49.612  1.00  0.00     0.268 C 
HETATM   28  C1  UNL     1      21.922   7.104  50.776  1.00  0.00     0.037 C 
ENDBRANCH  26  27
BRANCH  26  29
HETATM   29  C3  UNL     1      23.181   5.726  47.959  1.00  0.00     0.268 C 
HETATM   30  C4  UNL     1      22.736   4.315  48.149  1.00  0.00     0.037 C 
ENDBRANCH  26  29
ENDBRANCH  25  26
ENDBRANCH  24  25
ENDBRANCH  21  24
ENDBRANCH   1  20
TORSDOF 6
ENDMDL
MODEL 3
REMARK VINA RESULT:      -7.8      1.083      1.628
REMARK  6 active torsions:
REMARK  status: ('A' for Active; 'I' for Inactive)
REMARK    1  A    between atoms: C2_2  and  N1_3 
REMARK    2  A    between atoms: N1_3  and  C3_4 
REMARK    3  A    between atoms: N1_3  and  C5_6 
REMARK    4  A    between atoms: C5_6  and  C6_7 
REMARK    5  A    between atoms: C6_7  and  N2_8 
REMARK       I    between atoms: N2_8  and  C7_9 
REMARK    6  A    between atoms: C7_9  and  C8_11 
ROOT
HETATM    1  C8  UNL     1      24.807   2.933  51.702  1.00  0.00     0.240 C 
HETATM    2  C9  UNL     1      23.860   3.757  52.522  1.00  0.00     0.060 C 
HETATM    3  N3  UNL     1      25.966   2.623  52.544  1.00  0.00     0.106 N 
HETATM    4  C10 UNL     1      25.902   1.157  52.647  1.00  0.00     0.307 C 
HETATM    5  C11 UNL     1      24.438   0.817  52.578  1.00  0.00    -0.029 C 
HETATM    6  C12 UNL     1      23.797   0.069  53.455  1.00  0.00     0.045 C 
HETATM    7  C13 UNL     1      24.329  -0.601  54.670  1.00  0.00     0.253 C 
HETATM    8  O2  UNL     1      25.542  -0.585  55.089  1.00  0.00    -0.268 OA
HETATM    9  N4  UNL     1      23.213  -1.287  55.315  1.00  0.00    -0.345 N 
HETATM   10  C14 UNL     1      22.510  -1.621  54.125  1.00  0.00     0.143 A 
HETATM   11  C15 UNL     1      21.110  -2.038  54.239  1.00  0.00     0.022 A 
HETATM   12  C16 UNL     1      20.335  -1.112  53.658  1.00  0.00     0.010 A 
HETATM   13 BR1  UNL     1      18.434  -1.039  53.451  1.00  0.00    -0.051 Br
HETATM   14  C17 UNL     1      21.130   0.027  53.152  1.00  0.00     0.029 A 
HETATM   15  C18 UNL     1      22.373  -0.268  53.457  1.00  0.00    -0.014 A 
HETATM   16  C19 UNL     1      24.269   1.561  51.334  1.00  0.00     0.061 C 
HETATM   17  C20 UNL     1      22.882   1.674  50.800  1.00  0.00     0.018 C 
HETATM   18  H19 UNL     1      25.907   3.087  53.465  1.00  0.00     0.317 HD
HETATM   19  H22 UNL     1      23.202  -1.359  56.370  1.00  0.00     0.163 HD
ENDROOT
BRANCH   1  20
HETATM   20  C7  UNL     1      25.260   3.730  50.552  1.00  0.00     0.257 C 
HETATM   21  N2  UNL     1      24.750   4.989  50.143  1.00  0.00    -0.357 N 
HETATM   22  H15 UNL     1      23.973   5.295  50.795  1.00  0.00     0.162 HD
HETATM   23  O1  UNL     1      26.193   3.193  49.905  1.00  0.00    -0.271 OA
BRANCH  21  24
HETATM   24  C6  UNL     1      25.184   5.785  49.011  1.00  0.00     0.152 C 
BRANCH  24  25
HETATM   25  C5  UNL     1      26.226   6.741  49.466  1.00  0.00     0.292 C 
BRANCH  25  26
HETATM   26  N1  UNL     1      27.291   7.018  48.556  1.00  0.00     0.089 N 
BRANCH  26  27
HETATM   27  C2  UNL     1      28.133   8.117  48.917  1.00  0.00     0.268 C 
HETATM   28  C1  UNL     1      27.552   9.107  49.864  1.00  0.00     0.037 C 
ENDBRANCH  26  27
BRANCH  26  29
HETATM   29  C3  UNL     1      28.023   5.779  48.378  1.00  0.00     0.268 C 
HETATM   30  C4  UNL     1      29.478   5.952  48.104  1.00  0.00     0.037 C 
ENDBRANCH  26  29
ENDBRANCH  25  26
ENDBRANCH  24  25
ENDBRANCH  21  24
ENDBRANCH   1  20
TORSDOF 6
ENDMDL
MODEL 4
REMARK VINA RESULT:      -7.3      3.172      4.749
REMARK  6 active torsions:
REMARK  status: ('A' for Active; 'I' for Inactive)
REMARK    1  A    between atoms: C2_2  and  N1_3 
REMARK    2  A    between atoms: N1_3  and  C3_4 
REMARK    3  A    between atoms: N1_3  and  C5_6 
REMARK    4  A    between atoms: C5_6  and  C6_7 
REMARK    5  A    between atoms: C6_7  and  N2_8 
REMARK       I    between atoms: N2_8  and  C7_9 
REMARK    6  A    between atoms: C7_9  and  C8_11 
ROOT
HETATM    1  C8  UNL     1      24.353   4.713  50.196  1.00  0.00     0.240 C 
HETATM    2  C9  UNL     1      23.699   5.186  51.459  1.00  0.00     0.060 C 
HETATM    3  N3  UNL     1      25.777   5.052  50.281  1.00  0.00     0.106 N 
HETATM    4  C10 UNL     1      26.421   3.729  50.268  1.00  0.00     0.307 C 
HETATM    5  C11 UNL     1      25.443   2.804  50.939  1.00  0.00    -0.029 C 
HETATM    6  C12 UNL     1      25.732   2.007  51.949  1.00  0.00     0.045 C 
HETATM    7  C13 UNL     1      27.033   1.822  52.645  1.00  0.00     0.253 C 
HETATM    8  O2  UNL     1      28.141   2.410  52.371  1.00  0.00    -0.268 OA
HETATM    9  N4  UNL     1      26.824   0.846  53.709  1.00  0.00    -0.345 N 
HETATM   10  C14 UNL     1      25.847   0.065  53.034  1.00  0.00     0.143 A 
HETATM   11  C15 UNL     1      25.042  -0.874  53.820  1.00  0.00     0.022 A 
HETATM   12  C16 UNL     1      23.767  -0.460  53.813  1.00  0.00     0.010 A 
HETATM   13 BR1  UNL     1      22.214  -1.220  54.632  1.00  0.00    -0.051 Br
HETATM   14  C17 UNL     1      23.609   0.810  53.074  1.00  0.00     0.029 A 
HETATM   15  C18 UNL     1      24.818   1.113  52.660  1.00  0.00    -0.014 A 
HETATM   16  C19 UNL     1      24.366   3.202  50.038  1.00  0.00     0.061 C 
HETATM   17  C20 UNL     1      23.014   2.640  50.315  1.00  0.00     0.018 C 
HETATM   18  H19 UNL     1      25.993   5.590  51.136  1.00  0.00     0.317 HD
HETATM   19  H22 UNL     1      27.378   0.945  54.605  1.00  0.00     0.163 HD
ENDROOT
BRANCH   1  20
HETATM   20  C7  UNL     1      23.764   5.432  49.056  1.00  0.00     0.257 C 
HETATM   21  N2  UNL     1      22.383   5.588  48.778  1.00  0.00    -0.357 N 
HETATM   22  H15 UNL     1      21.805   5.104  49.523  1.00  0.00     0.162 HD
HETATM   23  O1  UNL     1      24.618   5.937  48.286  1.00  0.00    -0.271 OA
BRANCH  21  24
HETATM   24  C6  UNL     1      21.788   6.291  47.658  1.00  0.00     0.152 C 
BRANCH  24  25
HETATM   25  C5  UNL     1      20.835   5.382  46.969  1.00  0.00     0.292 C 
BRANCH  25  26
HETATM   26  N1  UNL     1      21.119   3.984  47.027  1.00  0.00     0.089 N 
BRANCH  26  27
HETATM   27  C2  UNL     1      19.988   3.139  47.261  1.00  0.00     0.268 C 
HETATM   28  C1  UNL     1      19.729   2.766  48.679  1.00  0.00     0.037 C 
ENDBRANCH  26  27
BRANCH  26  29
HETATM   29  C3  UNL     1      21.832   3.650  45.809  1.00  0.00     0.268 C 
HETATM   30  C4  UNL     1      21.120   4.022  44.553  1.00  0.00     0.037 C 
ENDBRANCH  26  29
ENDBRANCH  25  26
ENDBRANCH  24  25
ENDBRANCH  21  24
ENDBRANCH   1  20
TORSDOF 6
ENDMDL
MODEL 5
REMARK VINA RESULT:      -7.2      3.049      4.139
REMARK  6 active torsions:
REMARK  status: ('A' for Active; 'I' for Inactive)
REMARK    1  A    between atoms: C2_2  and  N1_3 
REMARK    2  A    between atoms: N1_3  and  C3_4 
REMARK    3  A    between atoms: N1_3  and  C5_6 
REMARK    4  A    between atoms: C5_6  and  C6_7 
REMARK    5  A    between atoms: C6_7  and  N2_8 
REMARK       I    between atoms: N2_8  and  C7_9 
REMARK    6  A    between atoms: C7_9  and  C8_11 
ROOT
HETATM    1  C8  UNL     1      22.372   3.387  50.103  1.00  0.00     0.240 C 
HETATM    2  C9  UNL     1      22.843   2.359  49.118  1.00  0.00     0.060 C 
HETATM    3  N3  UNL     1      21.017   3.013  50.520  1.00  0.00     0.106 N 
HETATM    4  C10 UNL     1      21.188   2.749  51.957  1.00  0.00     0.307 C 
HETATM    5  C11 UNL     1      22.593   2.232  52.102  1.00  0.00    -0.029 C 
HETATM    6  C12 UNL     1      22.923   1.109  52.711  1.00  0.00     0.045 C 
HETATM    7  C13 UNL     1      22.039   0.121  53.381  1.00  0.00     0.253 C 
HETATM    8  O2  UNL     1      20.762   0.189  53.504  1.00  0.00    -0.268 OA
HETATM    9  N4  UNL     1      22.887  -0.958  53.877  1.00  0.00    -0.345 N 
HETATM   10  C14 UNL     1      24.023  -0.157  54.177  1.00  0.00     0.143 A 
HETATM   11  C15 UNL     1      25.307  -0.827  54.398  1.00  0.00     0.022 A 
HETATM   12  C16 UNL     1      26.146  -0.488  53.408  1.00  0.00     0.010 A 
HETATM   13 BR1  UNL     1      27.962  -1.000  53.095  1.00  0.00    -0.051 Br
HETATM   14  C17 UNL     1      25.491   0.389  52.414  1.00  0.00     0.029 A 
HETATM   15  C18 UNL     1      24.264   0.543  52.855  1.00  0.00    -0.014 A 
HETATM   16  C19 UNL     1      23.148   3.389  51.408  1.00  0.00     0.061 C 
HETATM   17  C20 UNL     1      24.614   3.376  51.141  1.00  0.00     0.018 C 
HETATM   18  H19 UNL     1      20.671   2.188  50.004  1.00  0.00     0.317 HD
HETATM   19  H22 UNL     1      22.500  -1.943  53.892  1.00  0.00     0.163 HD
ENDROOT
BRANCH   1  20
HETATM   20  C7  UNL     1      22.314   4.697  49.435  1.00  0.00     0.257 C 
HETATM   21  N2  UNL     1      23.143   5.140  48.372  1.00  0.00    -0.357 N 
HETATM   22  H15 UNL     1      23.833   4.380  48.108  1.00  0.00     0.162 HD
HETATM   23  O1  UNL     1      21.425   5.455  49.893  1.00  0.00    -0.271 OA
BRANCH  21  24
HETATM   24  C6  UNL     1      23.100   6.427  47.705  1.00  0.00     0.152 C 
BRANCH  24  25
HETATM   25  C5  UNL     1      24.419   7.092  47.856  1.00  0.00     0.292 C 
BRANCH  25  26
HETATM   26  N1  UNL     1      25.261   6.627  48.913  1.00  0.00     0.089 N 
BRANCH  26  27
HETATM   27  C2  UNL     1      26.615   6.353  48.540  1.00  0.00     0.268 C 
HETATM   28  C1  UNL     1      27.104   4.973  48.808  1.00  0.00     0.037 C 
ENDBRANCH  26  27
BRANCH  26  29
HETATM   29  C3  UNL     1      25.154   7.592  49.989  1.00  0.00     0.268 C 
HETATM   30  C4  UNL     1      24.425   7.100  51.193  1.00  0.00     0.037 C 
ENDBRANCH  26  29
ENDBRANCH  25  26
ENDBRANCH  24  25
ENDBRANCH  21  24
ENDBRANCH   1  20
TORSDOF 6
ENDMDL
MODEL 6
REMARK VINA RESULT:      -7.2      2.229      3.698
REMARK  6 active torsions:
REMARK  status: ('A' for Active; 'I' for Inactive)
REMARK    1  A    between atoms: C2_2  and  N1_3 
REMARK    2  A    between atoms: N1_3  and  C3_4 
REMARK    3  A    between atoms: N1_3  and  C5_6 
REMARK    4  A    between atoms: C5_6  and  C6_7 
REMARK    5  A    between atoms: C6_7  and  N2_8 
REMARK       I    between atoms: N2_8  and  C7_9 
REMARK    6  A    between atoms: C7_9  and  C8_11 
ROOT
HETATM    1  C8  UNL     1      24.090   5.125  50.350  1.00  0.00     0.240 C 
HETATM    2  C9  UNL     1      23.538   5.533  51.683  1.00  0.00     0.060 C 
HETATM    3  N3  UNL     1      25.534   5.377  50.374  1.00  0.00     0.106 N 
HETATM    4  C10 UNL     1      26.096   4.026  50.223  1.00  0.00     0.307 C 
HETATM    5  C11 UNL     1      25.103   3.107  50.881  1.00  0.00    -0.029 C 
HETATM    6  C12 UNL     1      25.401   2.217  51.808  1.00  0.00     0.045 C 
HETATM    7  C13 UNL     1      26.724   1.906  52.408  1.00  0.00     0.253 C 
HETATM    8  O2  UNL     1      27.849   2.451  52.113  1.00  0.00    -0.268 OA
HETATM    9  N4  UNL     1      26.517   0.863  53.406  1.00  0.00    -0.345 N 
HETATM   10  C14 UNL     1      25.459   0.192  52.734  1.00  0.00     0.143 A 
HETATM   11  C15 UNL     1      24.645  -0.759  53.495  1.00  0.00     0.022 A 
HETATM   12  C16 UNL     1      23.398  -0.276  53.597  1.00  0.00     0.010 A 
HETATM   13 BR1  UNL     1      21.850  -1.010  54.448  1.00  0.00    -0.051 Br
HETATM   14  C17 UNL     1      23.276   1.056  52.966  1.00  0.00     0.029 A 
HETATM   15  C18 UNL     1      24.475   1.322  52.503  1.00  0.00    -0.014 A 
HETATM   16  C19 UNL     1      24.004   3.633  50.079  1.00  0.00     0.061 C 
HETATM   17  C20 UNL     1      22.638   3.127  50.394  1.00  0.00     0.018 C 
HETATM   18  H19 UNL     1      25.830   5.833  51.253  1.00  0.00     0.317 HD
HETATM   19  H22 UNL     1      27.126   0.860  54.272  1.00  0.00     0.163 HD
ENDROOT
BRANCH   1  20
HETATM   20  C7  UNL     1      23.483   5.963  49.305  1.00  0.00     0.257 C 
HETATM   21  N2  UNL     1      23.982   6.172  47.994  1.00  0.00    -0.357 N 
HETATM   22  H15 UNL     1      24.881   5.627  47.856  1.00  0.00     0.162 HD
HETATM   23  O1  UNL     1      22.420   6.525  49.667  1.00  0.00    -0.271 OA
BRANCH  21  24
HETATM   24  C6  UNL     1      23.398   6.997  46.955  1.00  0.00     0.152 C 
BRANCH  24  25
HETATM   25  C5  UNL     1      23.993   8.356  47.026  1.00  0.00     0.292 C 
BRANCH  25  26
HETATM   26  N1  UNL     1      25.316   8.456  47.555  1.00  0.00     0.089 N 
BRANCH  26  27
HETATM   27  C2  UNL     1      26.346   8.679  46.587  1.00  0.00     0.268 C 
HETATM   28  C1  UNL     1      27.645   7.998  46.841  1.00  0.00     0.037 C 
ENDBRANCH  26  27
BRANCH  26  29
HETATM   29  C3  UNL     1      25.279   9.473  48.587  1.00  0.00     0.268 C 
HETATM   30  C4  UNL     1      25.594   8.977  49.957  1.00  0.00     0.037 C 
ENDBRANCH  26  29
ENDBRANCH  25  26
ENDBRANCH  24  25
ENDBRANCH  21  24
ENDBRANCH   1  20
TORSDOF 6
ENDMDL
MODEL 7
REMARK VINA RESULT:      -7.1      3.999      6.176
REMARK  6 active torsions:
REMARK  status: ('A' for Active; 'I' for Inactive)
REMARK    1  A    between atoms: C2_2  and  N1_3 
REMARK    2  A    between atoms: N1_3  and  C3_4 
REMARK    3  A    between atoms: N1_3  and  C5_6 
REMARK    4  A    between atoms: C5_6  and  C6_7 
REMARK    5  A    between atoms: C6_7  and  N2_8 
REMARK       I    between atoms: N2_8  and  C7_9 
REMARK    6  A    between atoms: C7_9  and  C8_11 
ROOT
HETATM    1  C8  UNL     1      22.606   1.920  51.970  1.00  0.00     0.240 C 
HETATM    2  C9  UNL     1      21.877   3.189  52.293  1.00  0.00     0.060 C 
HETATM    3  N3  UNL     1      22.524   1.050  53.148  1.00  0.00     0.106 N 
HETATM    4  C10 UNL     1      21.757  -0.099  52.642  1.00  0.00     0.307 C 
HETATM    5  C11 UNL     1      20.837   0.467  51.595  1.00  0.00    -0.029 C 
HETATM    6  C12 UNL     1      19.531   0.283  51.562  1.00  0.00     0.045 C 
HETATM    7  C13 UNL     1      18.677  -0.492  52.498  1.00  0.00     0.253 C 
HETATM    8  O2  UNL     1      19.068  -1.154  53.527  1.00  0.00    -0.268 OA
HETATM    9  N4  UNL     1      17.298  -0.365  52.039  1.00  0.00    -0.345 N 
HETATM   10  C14 UNL     1      17.587  -0.305  50.648  1.00  0.00     0.143 A 
HETATM   11  C15 UNL     1      16.540   0.172  49.741  1.00  0.00     0.022 A 
HETATM   12  C16 UNL     1      16.931   1.337  49.206  1.00  0.00     0.010 A 
HETATM   13 BR1  UNL     1      16.050   2.481  47.951  1.00  0.00    -0.051 Br
HETATM   14  C17 UNL     1      18.239   1.772  49.740  1.00  0.00     0.029 A 
HETATM   15  C18 UNL     1      18.586   0.833  50.590  1.00  0.00    -0.014 A 
HETATM   16  C19 UNL     1      21.946   1.091  50.882  1.00  0.00     0.061 C 
HETATM   17  C20 UNL     1      21.598   1.951  49.715  1.00  0.00     0.018 C 
HETATM   18  H19 UNL     1      22.057   1.521  53.940  1.00  0.00     0.317 HD
HETATM   19  H22 UNL     1      16.522  -0.351  52.759  1.00  0.00     0.163 HD
ENDROOT
BRANCH   1  20
HETATM   20  C7  UNL     1      24.020   2.234  51.715  1.00  0.00     0.257 C 
HETATM   21  N2  UNL     1      25.106   1.322  51.742  1.00  0.00    -0.357 N 
HETATM   22  H15 UNL     1      24.757   0.349  51.977  1.00  0.00     0.162 HD
HETATM   23  O1  UNL     1      24.226   3.444  51.452  1.00  0.00    -0.271 OA
BRANCH  21  24
HETATM   24  C6  UNL     1      26.504   1.616  51.495  1.00  0.00     0.152 C 
BRANCH  24  25
HETATM   25  C5  UNL     1      27.255   1.491  52.770  1.00  0.00     0.292 C 
BRANCH  25  26
HETATM   26  N1  UNL     1      27.919   0.249  53.010  1.00  0.00     0.089 N 
BRANCH  26  27
HETATM   27  C2  UNL     1      29.233   0.356  53.566  1.00  0.00     0.268 C 
HETATM   28  C1  UNL     1      30.000  -0.913  53.689  1.00  0.00     0.037 C 
ENDBRANCH  26  27
BRANCH  26  29
HETATM   29  C3  UNL     1      27.026  -0.554  53.821  1.00  0.00     0.268 C 
HETATM   30  C4  UNL     1      26.434   0.163  54.988  1.00  0.00     0.037 C 
ENDBRANCH  26  29
ENDBRANCH  25  26
ENDBRANCH  24  25
ENDBRANCH  21  24
ENDBRANCH   1  20
TORSDOF 6
ENDMDL
MODEL 8
REMARK VINA RESULT:      -7.0      3.329      4.661
REMARK  6 active torsions:
REMARK  status: ('A' for Active; 'I' for Inactive)
REMARK    1  A    between atoms: C2_2  and  N1_3 
REMARK    2  A    between atoms: N1_3  and  C3_4 
REMARK    3  A    between atoms: N1_3  and  C5_6 
REMARK    4  A    between atoms: C5_6  and  C6_7 
REMARK    5  A    between atoms: C6_7  and  N2_8 
REMARK       I    between atoms: N2_8  and  C7_9 
REMARK    6  A    between atoms: C7_9  and  C8_11 
ROOT
HETATM    1  C8  UNL     1      24.431   4.752  50.160  1.00  0.00     0.240 C 
HETATM    2  C9  UNL     1      23.767   5.232  51.415  1.00  0.00     0.060 C 
HETATM    3  N3  UNL     1      25.860   5.062  50.269  1.00  0.00     0.106 N 
HETATM    4  C10 UNL     1      26.478   3.727  50.261  1.00  0.00     0.307 C 
HETATM    5  C11 UNL     1      25.471   2.819  50.912  1.00  0.00    -0.029 C 
HETATM    6  C12 UNL     1      25.728   2.012  51.923  1.00  0.00     0.045 C 
HETATM    7  C13 UNL     1      27.013   1.798  52.638  1.00  0.00     0.253 C 
HETATM    8  O2  UNL     1      28.138   2.364  52.385  1.00  0.00    -0.268 OA
HETATM    9  N4  UNL     1      26.768   0.822  53.694  1.00  0.00    -0.345 N 
HETATM   10  C14 UNL     1      25.787   0.063  52.999  1.00  0.00     0.143 A 
HETATM   11  C15 UNL     1      24.951  -0.863  53.769  1.00  0.00     0.022 A 
HETATM   12  C16 UNL     1      23.685  -0.424  53.743  1.00  0.00     0.010 A 
HETATM   13 BR1  UNL     1      22.104  -1.156  54.533  1.00  0.00    -0.051 Br
HETATM   14  C17 UNL     1      23.564   0.853  53.008  1.00  0.00     0.029 A 
HETATM   15  C18 UNL     1      24.785   1.133  52.614  1.00  0.00    -0.014 A 
HETATM   16  C19 UNL     1      24.417   3.242  49.996  1.00  0.00     0.061 C 
HETATM   17  C20 UNL     1      23.050   2.706  50.248  1.00  0.00     0.018 C 
HETATM   18  H19 UNL     1      26.073   5.592  51.130  1.00  0.00     0.317 HD
HETATM   19  H22 UNL     1      27.310   0.905  54.599  1.00  0.00     0.163 HD
ENDROOT
BRANCH   1  20
HETATM   20  C7  UNL     1      23.876   5.488  49.014  1.00  0.00     0.257 C 
HETATM   21  N2  UNL     1      22.502   5.691  48.727  1.00  0.00    -0.357 N 
HETATM   22  H15 UNL     1      21.903   5.231  49.471  1.00  0.00     0.162 HD
HETATM   23  O1  UNL     1      24.752   5.960  48.248  1.00  0.00    -0.271 OA
BRANCH  21  24
HETATM   24  C6  UNL     1      21.939   6.411  47.601  1.00  0.00     0.152 C 
BRANCH  24  25
HETATM   25  C5  UNL     1      21.216   5.451  46.729  1.00  0.00     0.292 C 
BRANCH  25  26
HETATM   26  N1  UNL     1      21.806   5.157  45.462  1.00  0.00     0.089 N 
BRANCH  26  27
HETATM   27  C2  UNL     1      21.360   3.945  44.846  1.00  0.00     0.268 C 
HETATM   28  C1  UNL     1      20.600   4.095  43.575  1.00  0.00     0.037 C 
ENDBRANCH  26  27
BRANCH  26  29
HETATM   29  C3  UNL     1      21.607   6.324  44.625  1.00  0.00     0.268 C 
HETATM   30  C4  UNL     1      22.865   6.963  44.143  1.00  0.00     0.037 C 
ENDBRANCH  26  29
ENDBRANCH  25  26
ENDBRANCH  24  25
ENDBRANCH  21  24
ENDBRANCH   1  20
TORSDOF 6
ENDMDL
MODEL 9
REMARK VINA RESULT:      -6.9      3.699      8.502
REMARK  6 active torsions:
REMARK  status: ('A' for Active; 'I' for Inactive)
REMARK    1  A    between atoms: C2_2  and  N1_3 
REMARK    2  A    between atoms: N1_3  and  C3_4 
REMARK    3  A    between atoms: N1_3  and  C5_6 
REMARK    4  A    between atoms: C5_6  and  C6_7 
REMARK    5  A    between atoms: C6_7  and  N2_8 
REMARK       I    between atoms: N2_8  and  C7_9 
REMARK    6  A    between atoms: C7_9  and  C8_11 
ROOT
HETATM    1  C8  UNL     1      23.380   2.975  51.621  1.00  0.00     0.240 C 
HETATM    2  C9  UNL     1      24.213   3.752  52.595  1.00  0.00     0.060 C 
HETATM    3  N3  UNL     1      22.031   3.550  51.634  1.00  0.00     0.106 N 
HETATM    4  C10 UNL     1      21.888   4.058  50.261  1.00  0.00     0.307 C 
HETATM    5  C11 UNL     1      23.276   4.453  49.837  1.00  0.00    -0.029 C 
HETATM    6  C12 UNL     1      23.605   5.632  49.343  1.00  0.00     0.045 C 
HETATM    7  C13 UNL     1      22.734   6.809  49.088  1.00  0.00     0.253 C 
HETATM    8  O2  UNL     1      21.469   6.889  49.293  1.00  0.00    -0.268 OA
HETATM    9  N4  UNL     1      23.582   7.873  48.561  1.00  0.00    -0.345 N 
HETATM   10  C14 UNL     1      24.488   7.034  47.855  1.00  0.00     0.143 A 
HETATM   11  C15 UNL     1      25.763   7.605  47.413  1.00  0.00     0.022 A 
HETATM   12  C16 UNL     1      26.758   7.009  48.086  1.00  0.00     0.010 A 
HETATM   13 BR1  UNL     1      28.651   7.274  47.990  1.00  0.00    -0.051 Br
HETATM   14  C17 UNL     1      26.245   6.031  49.069  1.00  0.00     0.029 A 
HETATM   15  C18 UNL     1      24.938   6.081  48.945  1.00  0.00    -0.014 A 
HETATM   16  C19 UNL     1      23.811   3.139  50.174  1.00  0.00     0.061 C 
HETATM   17  C20 UNL     1      25.285   2.960  50.049  1.00  0.00     0.018 C 
HETATM   18  H19 UNL     1      21.939   4.295  52.344  1.00  0.00     0.317 HD
HETATM   19  H22 UNL     1      23.346   8.876  48.800  1.00  0.00     0.163 HD
ENDROOT
BRANCH   1  20
HETATM   20  C7  UNL     1      23.300   1.576  52.071  1.00  0.00     0.257 C 
HETATM   21  N2  UNL     1      24.125   0.953  53.041  1.00  0.00    -0.357 N 
HETATM   22  H15 UNL     1      24.832   1.647  53.417  1.00  0.00     0.162 HD
HETATM   23  O1  UNL     1      22.393   0.918  51.504  1.00  0.00    -0.271 OA
BRANCH  21  24
HETATM   24  C6  UNL     1      24.060  -0.424  53.493  1.00  0.00     0.152 C 
BRANCH  24  25
HETATM   25  C5  UNL     1      25.420  -0.863  53.896  1.00  0.00     0.292 C 
BRANCH  25  26
HETATM   26  N1  UNL     1      26.511  -0.027  53.509  1.00  0.00     0.089 N 
BRANCH  26  27
HETATM   27  C2  UNL     1      27.196   0.622  54.585  1.00  0.00     0.268 C 
HETATM   28  C1  UNL     1      28.595   0.179  54.836  1.00  0.00     0.037 C 
ENDBRANCH  26  27
BRANCH  26  29
HETATM   29  C3  UNL     1      27.389  -0.836  52.687  1.00  0.00     0.268 C 
HETATM   30  C4  UNL     1      26.913  -2.232  52.461  1.00  0.00     0.037 C 
ENDBRANCH  26  29
ENDBRANCH  25  26
ENDBRANCH  24  25
ENDBRANCH  21  24
ENDBRANCH   1  20
TORSDOF 6
ENDMDL
