MODEL 1
REMARK VINA RESULT:      -8.4      0.000      0.000
REMARK  2 active torsions:
REMARK  status: ('A' for Active; 'I' for Inactive)
REMARK    1  A    between atoms: O1_2  and  C2_3 
REMARK    2  A    between atoms: C14_18  and  P1_19 
ROOT
HETATM    1  C2  UNL     1      24.508   0.985  51.963  1.00  0.00     0.079 A 
HETATM    2  C3  UNL     1      23.222   0.707  52.105  1.00  0.00     0.047 A 
HETATM    3  C4  UNL     1      22.617  -0.207  53.050  1.00  0.00    -0.024 A 
HETATM    4  C5  UNL     1      21.344  -0.481  53.184  1.00  0.00     0.053 A 
HETATM    5  N1  UNL     1      20.621  -1.359  54.074  1.00  0.00    -0.354 N 
HETATM    6  C6  UNL     1      19.403  -0.988  53.490  1.00  0.00     0.047 A 
HETATM    7  C7  UNL     1      18.035  -1.161  53.498  1.00  0.00     0.033 A 
HETATM    8  C8  UNL     1      17.234  -0.473  52.615  1.00  0.00     0.046 A 
HETATM    9  C9  UNL     1      17.877   0.381  51.743  1.00  0.00     0.139 A 
HETATM   10  F1  UNL     1      17.091   1.060  50.874  1.00  0.00    -0.204 F 
HETATM   11  C10 UNL     1      19.252   0.515  51.781  1.00  0.00     0.087 A 
HETATM   12 CL1  UNL     1      19.911   1.618  50.630  1.00  0.00    -0.080 Cl
HETATM   13  C11 UNL     1      20.058  -0.153  52.641  1.00  0.00     0.043 A 
HETATM   14  C12 UNL     1      23.578  -0.897  53.951  1.00  0.00     0.069 A 
HETATM   15  C13 UNL     1      24.986  -0.518  53.712  1.00  0.00    -0.007 A 
HETATM   16  C14 UNL     1      25.471   0.323  52.832  1.00  0.00    -0.001 A 
HETATM   17  H5  UNL     1      20.888  -2.026  54.859  1.00  0.00     0.166 HD
ENDROOT
BRANCH   1  18
HETATM   18  O1  UNL     1      24.989   1.869  51.036  1.00  0.00    -0.355 OA
HETATM   19  C1  UNL     1      24.594   3.225  51.132  1.00  0.00     0.210 C 
ENDBRANCH   1  18
BRANCH  16  20
HETATM   20  P1  UNL     1      27.250   0.646  52.708  1.00  0.00    -0.073 P 
HETATM   21  C15 UNL     1      27.696   2.318  53.410  1.00  0.00     0.059 C 
HETATM   22  C16 UNL     1      28.670   1.981  54.551  1.00  0.00     0.118 C 
HETATM   23  N2  UNL     1      29.811   1.382  53.931  1.00  0.00    -0.420 N 
HETATM   24  C17 UNL     1      29.707  -0.012  53.648  1.00  0.00     0.123 C 
HETATM   25  H15 UNL     1      30.205   1.966  53.180  1.00  0.00     0.153 HD
HETATM   26  C18 UNL     1      28.293  -0.555  53.661  1.00  0.00     0.032 C 
HETATM   27  C19 UNL     1      28.314  -1.919  53.012  1.00  0.00     0.017 C 
ENDBRANCH  16  20
TORSDOF 2
ENDMDL
MODEL 2
REMARK VINA RESULT:      -7.9      4.430      9.500
REMARK  2 active torsions:
REMARK  status: ('A' for Active; 'I' for Inactive)
REMARK    1  A    between atoms: O1_2  and  C2_3 
REMARK    2  A    between atoms: C14_18  and  P1_19 
ROOT
HETATM    1  C2  UNL     1      18.147  -0.591  52.590  1.00  0.00     0.079 A 
HETATM    2  C3  UNL     1      19.453  -0.396  52.676  1.00  0.00     0.047 A 
HETATM    3  C4  UNL     1      20.290   0.372  51.781  1.00  0.00    -0.024 A 
HETATM    4  C5  UNL     1      21.583   0.559  51.868  1.00  0.00     0.053 A 
HETATM    5  N1  UNL     1      22.523   1.294  51.053  1.00  0.00    -0.354 N 
HETATM    6  C6  UNL     1      23.580   0.921  51.895  1.00  0.00     0.047 A 
HETATM    7  C7  UNL     1      24.935   1.016  52.133  1.00  0.00     0.033 A 
HETATM    8  C8  UNL     1      25.504   0.386  53.216  1.00  0.00     0.046 A 
HETATM    9  C9  UNL     1      24.647  -0.330  54.028  1.00  0.00     0.139 A 
HETATM   10  F1  UNL     1      25.203  -0.950  55.095  1.00  0.00    -0.204 F 
HETATM   11  C10 UNL     1      23.296  -0.390  53.739  1.00  0.00     0.087 A 
HETATM   12 CL1  UNL     1      22.354  -1.322  54.843  1.00  0.00    -0.080 Cl
HETATM   13  C11 UNL     1      22.717   0.223  52.679  1.00  0.00     0.043 A 
HETATM   14  C12 UNL     1      19.569   1.006  50.644  1.00  0.00     0.069 A 
HETATM   15  C13 UNL     1      18.118   0.729  50.639  1.00  0.00    -0.007 A 
HETATM   16  C14 UNL     1      17.416   0.017  51.487  1.00  0.00    -0.001 A 
HETATM   17  H5  UNL     1      22.457   1.883  50.169  1.00  0.00     0.166 HD
ENDROOT
BRANCH   1  18
HETATM   18  O1  UNL     1      17.436  -1.338  53.490  1.00  0.00    -0.355 OA
HETATM   19  C1  UNL     1      17.843  -2.674  53.723  1.00  0.00     0.210 C 
ENDBRANCH   1  18
BRANCH  16  20
HETATM   20  P1  UNL     1      15.627  -0.195  51.295  1.00  0.00    -0.073 P 
HETATM   21  C15 UNL     1      15.159  -1.997  51.155  1.00  0.00     0.059 C 
HETATM   22  C16 UNL     1      14.229  -2.223  52.357  1.00  0.00     0.118 C 
HETATM   23  N2  UNL     1      13.085  -1.394  52.131  1.00  0.00    -0.420 N 
HETATM   24  C17 UNL     1      13.216  -0.030  52.527  1.00  0.00     0.123 C 
HETATM   25  H15 UNL     1      12.654  -1.557  51.210  1.00  0.00     0.153 HD
HETATM   26  C18 UNL     1      14.643   0.433  52.737  1.00  0.00     0.032 C 
HETATM   27  C19 UNL     1      14.637   1.942  52.799  1.00  0.00     0.017 C 
ENDBRANCH  16  20
TORSDOF 2
ENDMDL
MODEL 3
REMARK VINA RESULT:      -7.8      2.409      3.731
REMARK  2 active torsions:
REMARK  status: ('A' for Active; 'I' for Inactive)
REMARK    1  A    between atoms: O1_2  and  C2_3 
REMARK    2  A    between atoms: C14_18  and  P1_19 
ROOT
HETATM    1  C2  UNL     1      22.307   0.042  53.188  1.00  0.00     0.079 A 
HETATM    2  C3  UNL     1      21.093  -0.044  52.668  1.00  0.00     0.047 A 
HETATM    3  C4  UNL     1      20.629   0.518  51.418  1.00  0.00    -0.024 A 
HETATM    4  C5  UNL     1      19.426   0.433  50.909  1.00  0.00     0.053 A 
HETATM    5  N1  UNL     1      18.842   0.940  49.689  1.00  0.00    -0.354 N 
HETATM    6  C6  UNL     1      17.604   0.372  50.017  1.00  0.00     0.047 A 
HETATM    7  C7  UNL     1      16.294   0.188  49.626  1.00  0.00     0.033 A 
HETATM    8  C8  UNL     1      15.419  -0.526  50.412  1.00  0.00     0.046 A 
HETATM    9  C9  UNL     1      15.929  -1.033  51.590  1.00  0.00     0.139 A 
HETATM   10  F1  UNL     1      15.071  -1.737  52.366  1.00  0.00    -0.204 F 
HETATM   11  C10 UNL     1      17.251  -0.817  51.931  1.00  0.00     0.087 A 
HETATM   12 CL1  UNL     1      17.742  -1.512  53.432  1.00  0.00    -0.080 Cl
HETATM   13  C11 UNL     1      18.128  -0.117  51.172  1.00  0.00     0.043 A 
HETATM   14  C12 UNL     1      21.659   1.271  50.654  1.00  0.00     0.069 A 
HETATM   15  C13 UNL     1      22.977   1.308  51.319  1.00  0.00    -0.007 A 
HETATM   16  C14 UNL     1      23.334   0.774  52.461  1.00  0.00    -0.001 A 
HETATM   17  H5  UNL     1      19.194   1.514  48.864  1.00  0.00     0.166 HD
ENDROOT
BRANCH   1  18
HETATM   18  O1  UNL     1      22.655  -0.525  54.384  1.00  0.00    -0.355 OA
HETATM   19  C1  UNL     1      21.887  -1.616  54.860  1.00  0.00     0.210 C 
ENDBRANCH   1  18
BRANCH  16  20
HETATM   20  P1  UNL     1      25.022   0.939  53.099  1.00  0.00    -0.073 P 
HETATM   21  C15 UNL     1      25.628  -0.654  53.862  1.00  0.00     0.059 C 
HETATM   22  C16 UNL     1      26.860  -1.013  53.016  1.00  0.00     0.118 C 
HETATM   23  N2  UNL     1      27.809   0.035  53.237  1.00  0.00    -0.420 N 
HETATM   24  C17 UNL     1      27.639   1.206  52.440  1.00  0.00     0.123 C 
HETATM   25  H15 UNL     1      27.997   0.194  54.237  1.00  0.00     0.153 HD
HETATM   26  C18 UNL     1      26.277   1.339  51.792  1.00  0.00     0.032 C 
HETATM   27  C19 UNL     1      26.135   2.757  51.294  1.00  0.00     0.017 C 
ENDBRANCH  16  20
TORSDOF 2
ENDMDL
MODEL 4
REMARK VINA RESULT:      -7.8      2.563      3.021
REMARK  2 active torsions:
REMARK  status: ('A' for Active; 'I' for Inactive)
REMARK    1  A    between atoms: O1_2  and  C2_3 
REMARK    2  A    between atoms: C14_18  and  P1_19 
ROOT
HETATM    1  C2  UNL     1      25.104   2.282  51.297  1.00  0.00     0.079 A 
HETATM    2  C3  UNL     1      23.828   2.624  51.227  1.00  0.00     0.047 A 
HETATM    3  C4  UNL     1      22.716   2.029  51.935  1.00  0.00    -0.024 A 
HETATM    4  C5  UNL     1      21.454   2.369  51.859  1.00  0.00     0.053 A 
HETATM    5  N1  UNL     1      20.264   1.863  52.504  1.00  0.00    -0.354 N 
HETATM    6  C6  UNL     1      19.471   2.800  51.828  1.00  0.00     0.047 A 
HETATM    7  C7  UNL     1      18.194   3.282  51.632  1.00  0.00     0.033 A 
HETATM    8  C8  UNL     1      17.963   4.326  50.766  1.00  0.00     0.046 A 
HETATM    9  C9  UNL     1      19.068   4.846  50.124  1.00  0.00     0.139 A 
HETATM   10  F1  UNL     1      18.844   5.875  49.273  1.00  0.00    -0.204 F 
HETATM   11  C10 UNL     1      20.326   4.322  50.361  1.00  0.00     0.087 A 
HETATM   12 CL1  UNL     1      21.608   5.075  49.486  1.00  0.00    -0.080 Cl
HETATM   13  C11 UNL     1      20.575   3.295  51.209  1.00  0.00     0.043 A 
HETATM   14  C12 UNL     1      23.083   0.906  52.840  1.00  0.00     0.069 A 
HETATM   15  C13 UNL     1      24.530   0.604  52.847  1.00  0.00    -0.007 A 
HETATM   16  C14 UNL     1      25.492   1.187  52.175  1.00  0.00    -0.001 A 
HETATM   17  H5  UNL     1      20.056   1.092  53.208  1.00  0.00     0.166 HD
ENDROOT
BRANCH   1  18
HETATM   18  O1  UNL     1      26.092   2.907  50.585  1.00  0.00    -0.355 OA
HETATM   19  C1  UNL     1      25.728   3.967  49.719  1.00  0.00     0.210 C 
ENDBRANCH   1  18
BRANCH  16  20
HETATM   20  P1  UNL     1      27.217   0.655  52.334  1.00  0.00    -0.073 P 
HETATM   21  C15 UNL     1      28.214   1.851  53.364  1.00  0.00     0.059 C 
HETATM   22  C16 UNL     1      28.699   0.994  54.544  1.00  0.00     0.118 C 
HETATM   23  N2  UNL     1      29.552  -0.006  53.980  1.00  0.00    -0.420 N 
HETATM   24  C17 UNL     1      28.898  -1.157  53.451  1.00  0.00     0.123 C 
HETATM   25  H15 UNL     1      30.300   0.396  53.396  1.00  0.00     0.153 HD
HETATM   26  C18 UNL     1      27.417  -0.979  53.191  1.00  0.00     0.032 C 
HETATM   27  C19 UNL     1      26.955  -2.127  52.325  1.00  0.00     0.017 C 
ENDBRANCH  16  20
TORSDOF 2
ENDMDL
MODEL 5
REMARK VINA RESULT:      -7.7      4.199      8.635
REMARK  2 active torsions:
REMARK  status: ('A' for Active; 'I' for Inactive)
REMARK    1  A    between atoms: O1_2  and  C2_3 
REMARK    2  A    between atoms: C14_18  and  P1_19 
ROOT
HETATM    1  C2  UNL     1      21.983   0.794  51.788  1.00  0.00     0.079 A 
HETATM    2  C3  UNL     1      23.236   0.931  52.188  1.00  0.00     0.047 A 
HETATM    3  C4  UNL     1      24.212   1.891  51.718  1.00  0.00    -0.024 A 
HETATM    4  C5  UNL     1      25.452   2.021  52.115  1.00  0.00     0.053 A 
HETATM    5  N1  UNL     1      26.513   2.924  51.733  1.00  0.00    -0.354 N 
HETATM    6  C6  UNL     1      27.388   2.321  52.645  1.00  0.00     0.047 A 
HETATM    7  C7  UNL     1      28.662   2.321  53.173  1.00  0.00     0.033 A 
HETATM    8  C8  UNL     1      29.019   1.416  54.147  1.00  0.00     0.046 A 
HETATM    9  C9  UNL     1      28.040   0.530  54.548  1.00  0.00     0.139 A 
HETATM   10  F1  UNL     1      28.388  -0.361  55.507  1.00  0.00    -0.204 F 
HETATM   11  C10 UNL     1      26.780   0.577  53.983  1.00  0.00     0.087 A 
HETATM   12 CL1  UNL     1      25.664  -0.593  54.586  1.00  0.00    -0.080 Cl
HETATM   13  C11 UNL     1      26.408   1.459  53.024  1.00  0.00     0.043 A 
HETATM   14  C12 UNL     1      23.716   2.816  50.664  1.00  0.00     0.069 A 
HETATM   15  C13 UNL     1      22.306   2.581  50.288  1.00  0.00    -0.007 A 
HETATM   16  C14 UNL     1      21.472   1.686  50.757  1.00  0.00    -0.001 A 
HETATM   17  H5  UNL     1      26.608   3.727  51.040  1.00  0.00     0.166 HD
ENDROOT
BRANCH   1  18
HETATM   18  O1  UNL     1      21.130  -0.149  52.293  1.00  0.00    -0.355 OA
HETATM   19  C1  UNL     1      21.205  -0.451  53.675  1.00  0.00     0.210 C 
ENDBRANCH   1  18
BRANCH  16  20
HETATM   20  P1  UNL     1      19.768   1.570  50.151  1.00  0.00    -0.073 P 
HETATM   21  C15 UNL     1      18.532   1.709  51.544  1.00  0.00     0.059 C 
HETATM   22  C16 UNL     1      17.709   2.953  51.175  1.00  0.00     0.118 C 
HETATM   23  N2  UNL     1      17.043   2.635  49.949  1.00  0.00    -0.420 N 
HETATM   24  C17 UNL     1      17.805   2.821  48.758  1.00  0.00     0.123 C 
HETATM   25  H15 UNL     1      16.505   1.759  50.008  1.00  0.00     0.153 HD
HETATM   26  C18 UNL     1      19.301   2.927  48.976  1.00  0.00     0.032 C 
HETATM   27  C19 UNL     1      19.977   2.765  47.635  1.00  0.00     0.017 C 
ENDBRANCH  16  20
TORSDOF 2
ENDMDL
MODEL 6
REMARK VINA RESULT:      -7.6      3.929      8.334
REMARK  2 active torsions:
REMARK  status: ('A' for Active; 'I' for Inactive)
REMARK    1  A    between atoms: O1_2  and  C2_3 
REMARK    2  A    between atoms: C14_18  and  P1_19 
ROOT
HETATM    1  C2  UNL     1      21.763   1.536  51.185  1.00  0.00     0.079 A 
HETATM    2  C3  UNL     1      22.931   1.350  51.778  1.00  0.00     0.047 A 
HETATM    3  C4  UNL     1      23.227   0.464  52.883  1.00  0.00    -0.024 A 
HETATM    4  C5  UNL     1      24.385   0.286  53.468  1.00  0.00     0.053 A 
HETATM    5  N1  UNL     1      24.808  -0.555  54.563  1.00  0.00    -0.354 N 
HETATM    6  C6  UNL     1      26.120  -0.076  54.456  1.00  0.00     0.047 A 
HETATM    7  C7  UNL     1      27.402  -0.143  54.958  1.00  0.00     0.033 A 
HETATM    8  C8  UNL     1      28.409   0.626  54.419  1.00  0.00     0.046 A 
HETATM    9  C9  UNL     1      28.056   1.448  53.368  1.00  0.00     0.139 A 
HETATM   10  F1  UNL     1      29.044   2.205  52.836  1.00  0.00    -0.204 F 
HETATM   11  C10 UNL     1      26.753   1.473  52.907  1.00  0.00     0.087 A 
HETATM   12 CL1  UNL     1      26.465   2.549  51.590  1.00  0.00    -0.080 Cl
HETATM   13  C11 UNL     1      25.748   0.725  53.423  1.00  0.00     0.043 A 
HETATM   14  C12 UNL     1      22.064  -0.315  53.386  1.00  0.00     0.069 A 
HETATM   15  C13 UNL     1      20.809  -0.036  52.657  1.00  0.00    -0.007 A 
HETATM   16  C14 UNL     1      20.607   0.787  51.657  1.00  0.00    -0.001 A 
HETATM   17  H5  UNL     1      24.330  -1.259  55.204  1.00  0.00     0.166 HD
ENDROOT
BRANCH   1  18
HETATM   18  O1  UNL     1      21.577   2.400  50.141  1.00  0.00    -0.355 OA
HETATM   19  C1  UNL     1      22.090   2.040  48.871  1.00  0.00     0.210 C 
ENDBRANCH   1  18
BRANCH  16  20
HETATM   20  P1  UNL     1      18.971   0.977  50.901  1.00  0.00    -0.073 P 
HETATM   21  C15 UNL     1      17.891  -0.514  51.213  1.00  0.00     0.059 C 
HETATM   22  C16 UNL     1      16.695   0.062  51.988  1.00  0.00     0.118 C 
HETATM   23  N2  UNL     1      16.044   0.968  51.092  1.00  0.00    -0.420 N 
HETATM   24  C17 UNL     1      16.596   2.282  51.024  1.00  0.00     0.123 C 
HETATM   25  H15 UNL     1      15.810   0.531  50.189  1.00  0.00     0.153 HD
HETATM   26  C18 UNL     1      18.000   2.407  51.577  1.00  0.00     0.032 C 
HETATM   27  C19 UNL     1      18.562   3.733  51.122  1.00  0.00     0.017 C 
ENDBRANCH  16  20
TORSDOF 2
ENDMDL
MODEL 7
REMARK VINA RESULT:      -7.6      3.750      5.496
REMARK  2 active torsions:
REMARK  status: ('A' for Active; 'I' for Inactive)
REMARK    1  A    between atoms: O1_2  and  C2_3 
REMARK    2  A    between atoms: C14_18  and  P1_19 
ROOT
HETATM    1  C2  UNL     1      23.021   3.952  50.056  1.00  0.00     0.079 A 
HETATM    2  C3  UNL     1      22.702   2.950  50.859  1.00  0.00     0.047 A 
HETATM    3  C4  UNL     1      23.583   2.204  51.730  1.00  0.00    -0.024 A 
HETATM    4  C5  UNL     1      23.262   1.211  52.521  1.00  0.00     0.053 A 
HETATM    5  N1  UNL     1      24.035   0.394  53.429  1.00  0.00    -0.354 N 
HETATM    6  C6  UNL     1      22.892  -0.334  53.783  1.00  0.00     0.047 A 
HETATM    7  C7  UNL     1      22.388  -1.360  54.556  1.00  0.00     0.033 A 
HETATM    8  C8  UNL     1      21.051  -1.684  54.508  1.00  0.00     0.046 A 
HETATM    9  C9  UNL     1      20.268  -0.931  53.656  1.00  0.00     0.139 A 
HETATM   10  F1  UNL     1      18.953  -1.247  53.607  1.00  0.00    -0.204 F 
HETATM   11  C10 UNL     1      20.829   0.085  52.905  1.00  0.00     0.087 A 
HETATM   12 CL1  UNL     1      19.726   0.935  51.886  1.00  0.00    -0.080 Cl
HETATM   13  C11 UNL     1      22.142   0.419  52.937  1.00  0.00     0.043 A 
HETATM   14  C12 UNL     1      25.005   2.639  51.698  1.00  0.00     0.069 A 
HETATM   15  C13 UNL     1      25.257   3.762  50.771  1.00  0.00    -0.007 A 
HETATM   16  C14 UNL     1      24.406   4.397  50.004  1.00  0.00    -0.001 A 
HETATM   17  H5  UNL     1      25.057   0.349  53.721  1.00  0.00     0.166 HD
ENDROOT
BRANCH   1  18
HETATM   18  O1  UNL     1      22.114   4.600  49.263  1.00  0.00    -0.355 OA
HETATM   19  C1  UNL     1      20.742   4.513  49.603  1.00  0.00     0.210 C 
ENDBRANCH   1  18
BRANCH  16  20
HETATM   20  P1  UNL     1      24.931   5.763  48.934  1.00  0.00    -0.073 P 
HETATM   21  C15 UNL     1      24.021   7.342  49.338  1.00  0.00     0.059 C 
HETATM   22  C16 UNL     1      25.142   8.312  49.742  1.00  0.00     0.118 C 
HETATM   23  N2  UNL     1      25.949   8.490  48.574  1.00  0.00    -0.420 N 
HETATM   24  C17 UNL     1      26.939   7.488  48.343  1.00  0.00     0.123 C 
HETATM   25  H15 UNL     1      25.399   8.777  47.753  1.00  0.00     0.153 HD
HETATM   26  C18 UNL     1      26.726   6.200  49.110  1.00  0.00     0.032 C 
HETATM   27  C19 UNL     1      27.622   5.146  48.505  1.00  0.00     0.017 C 
ENDBRANCH  16  20
TORSDOF 2
ENDMDL
MODEL 8
REMARK VINA RESULT:      -7.5      4.953      7.895
REMARK  2 active torsions:
REMARK  status: ('A' for Active; 'I' for Inactive)
REMARK    1  A    between atoms: O1_2  and  C2_3 
REMARK    2  A    between atoms: C14_18  and  P1_19 
ROOT
HETATM    1  C2  UNL     1      24.200   5.405  49.667  1.00  0.00     0.079 A 
HETATM    2  C3  UNL     1      24.376   4.293  50.362  1.00  0.00     0.047 A 
HETATM    3  C4  UNL     1      25.580   3.496  50.460  1.00  0.00    -0.024 A 
HETATM    4  C5  UNL     1      25.748   2.395  51.148  1.00  0.00     0.053 A 
HETATM    5  N1  UNL     1      26.881   1.517  51.328  1.00  0.00    -0.354 N 
HETATM    6  C6  UNL     1      26.132   0.684  52.169  1.00  0.00     0.047 A 
HETATM    7  C7  UNL     1      26.139  -0.458  52.942  1.00  0.00     0.033 A 
HETATM    8  C8  UNL     1      25.011  -0.851  53.625  1.00  0.00     0.046 A 
HETATM    9  C9  UNL     1      23.899  -0.045  53.486  1.00  0.00     0.139 A 
HETATM   10  F1  UNL     1      22.787  -0.429  54.158  1.00  0.00    -0.204 F 
HETATM   11  C10 UNL     1      23.951   1.089  52.697  1.00  0.00     0.087 A 
HETATM   12 CL1  UNL     1      22.484   1.994  52.621  1.00  0.00    -0.080 Cl
HETATM   13  C11 UNL     1      25.051   1.493  52.017  1.00  0.00     0.043 A 
HETATM   14  C12 UNL     1      26.735   4.014  49.679  1.00  0.00     0.069 A 
HETATM   15  C13 UNL     1      26.436   5.258  48.939  1.00  0.00    -0.007 A 
HETATM   16  C14 UNL     1      25.314   5.934  48.892  1.00  0.00    -0.001 A 
HETATM   17  H5  UNL     1      27.884   1.496  50.972  1.00  0.00     0.166 HD
ENDROOT
BRANCH   1  18
HETATM   18  O1  UNL     1      23.018   6.094  49.634  1.00  0.00    -0.355 OA
HETATM   19  C1  UNL     1      22.557   6.693  50.831  1.00  0.00     0.210 C 
ENDBRANCH   1  18
BRANCH  16  20
HETATM   20  P1  UNL     1      25.162   7.452  47.914  1.00  0.00    -0.073 P 
HETATM   21  C15 UNL     1      23.710   7.372  46.742  1.00  0.00     0.059 C 
HETATM   22  C16 UNL     1      22.822   8.545  47.186  1.00  0.00     0.118 C 
HETATM   23  N2  UNL     1      23.588   9.730  46.949  1.00  0.00    -0.420 N 
HETATM   24  C17 UNL     1      24.519  10.086  47.969  1.00  0.00     0.123 C 
HETATM   25  H15 UNL     1      23.935   9.788  45.981  1.00  0.00     0.153 HD
HETATM   26  C18 UNL     1      24.855   8.969  48.935  1.00  0.00     0.032 C 
HETATM   27  C19 UNL     1      26.083   9.381  49.712  1.00  0.00     0.017 C 
ENDBRANCH  16  20
TORSDOF 2
ENDMDL
MODEL 9
REMARK VINA RESULT:      -7.5      4.799      8.461
REMARK  2 active torsions:
REMARK  status: ('A' for Active; 'I' for Inactive)
REMARK    1  A    between atoms: O1_2  and  C2_3 
REMARK    2  A    between atoms: C14_18  and  P1_19 
ROOT
HETATM    1  C2  UNL     1      22.703   3.192  49.452  1.00  0.00     0.079 A 
HETATM    2  C3  UNL     1      23.503   2.675  50.370  1.00  0.00     0.047 A 
HETATM    3  C4  UNL     1      24.862   3.066  50.676  1.00  0.00    -0.024 A 
HETATM    4  C5  UNL     1      25.651   2.548  51.584  1.00  0.00     0.053 A 
HETATM    5  N1  UNL     1      27.007   2.842  51.984  1.00  0.00    -0.354 N 
HETATM    6  C6  UNL     1      26.966   1.831  52.953  1.00  0.00     0.047 A 
HETATM    7  C7  UNL     1      27.662   1.176  53.947  1.00  0.00     0.033 A 
HETATM    8  C8  UNL     1      27.078   0.150  54.655  1.00  0.00     0.046 A 
HETATM    9  C9  UNL     1      25.781  -0.170  54.310  1.00  0.00     0.139 A 
HETATM   10  F1  UNL     1      25.203  -1.179  55.005  1.00  0.00    -0.204 F 
HETATM   11  C10 UNL     1      25.132   0.522  53.304  1.00  0.00     0.087 A 
HETATM   12 CL1  UNL     1      23.516   0.007  52.988  1.00  0.00    -0.080 Cl
HETATM   13  C11 UNL     1      25.689   1.533  52.596  1.00  0.00     0.043 A 
HETATM   14  C12 UNL     1      25.390   4.182  49.847  1.00  0.00     0.069 A 
HETATM   15  C13 UNL     1      24.421   4.688  48.854  1.00  0.00    -0.007 A 
HETATM   16  C14 UNL     1      23.195   4.286  48.626  1.00  0.00    -0.001 A 
HETATM   17  H5  UNL     1      27.751   3.540  51.678  1.00  0.00     0.166 HD
ENDROOT
BRANCH   1  18
HETATM   18  O1  UNL     1      21.425   2.754  49.233  1.00  0.00    -0.355 OA
HETATM   19  C1  UNL     1      21.238   1.424  48.784  1.00  0.00     0.210 C 
ENDBRANCH   1  18
BRANCH  16  20
HETATM   20  P1  UNL     1      22.166   5.055  47.347  1.00  0.00    -0.073 P 
HETATM   21  C15 UNL     1      21.717   3.839  46.003  1.00  0.00     0.059 C 
HETATM   22  C16 UNL     1      20.182   3.796  46.053  1.00  0.00     0.118 C 
HETATM   23  N2  UNL     1      19.738   5.110  45.703  1.00  0.00    -0.420 N 
HETATM   24  C17 UNL     1      19.717   6.064  46.764  1.00  0.00     0.123 C 
HETATM   25  H15 UNL     1      20.136   5.437  44.811  1.00  0.00     0.153 HD
HETATM   26  C18 UNL     1      20.536   5.677  47.978  1.00  0.00     0.032 C 
HETATM   27  C19 UNL     1      20.700   6.908  48.838  1.00  0.00     0.017 C 
ENDBRANCH  16  20
TORSDOF 2
ENDMDL
