MODEL 1
REMARK VINA RESULT:      -8.9      0.000      0.000
REMARK  2 active torsions:
REMARK  status: ('A' for Active; 'I' for Inactive)
REMARK    1  A    between atoms: C6_9  and  N3_10 
REMARK    2  A    between atoms: N3_10  and  C7_11 
ROOT
HETATM    1  C1  UNL     1      17.757  -0.402  51.297  1.00  0.00     0.210 C 
HETATM    2  O1  UNL     1      18.992  -0.012  51.448  1.00  0.00    -0.353 OA
HETATM    3  C2  UNL     1      20.183   0.383  51.564  1.00  0.00     0.106 A 
HETATM    4  C3  UNL     1      20.777   1.186  50.581  1.00  0.00     0.072 A 
HETATM    5  C4  UNL     1      22.099   1.629  50.700  1.00  0.00     0.077 A 
HETATM    6  N1  UNL     1      22.657   2.396  49.754  1.00  0.00    -0.241 NA
HETATM    7  C5  UNL     1      23.921   2.837  49.837  1.00  0.00     0.236 A 
HETATM    8  N2  UNL     1      24.640   2.477  50.934  1.00  0.00    -0.223 NA
HETATM    9  C6  UNL     1      24.071   1.703  51.883  1.00  0.00     0.144 A 
HETATM   10  C14 UNL     1      22.797   1.245  51.824  1.00  0.00     0.075 A 
HETATM   11  C15 UNL     1      22.276   0.460  52.824  1.00  0.00     0.121 A 
HETATM   12  C16 UNL     1      20.966   0.041  52.672  1.00  0.00     0.136 A 
HETATM   13  O2  UNL     1      20.383  -0.760  53.659  1.00  0.00    -0.344 OA
HETATM   14  C17 UNL     1      21.044  -0.817  54.911  1.00  0.00     0.202 C 
HETATM   15  C18 UNL     1      22.561  -0.949  54.716  1.00  0.00     0.202 C 
HETATM   16  O3  UNL     1      23.051   0.121  53.922  1.00  0.00    -0.345 OA
ENDROOT
BRANCH   9  17
HETATM   17  N3  UNL     1      24.952   1.422  52.954  1.00  0.00    -0.343 N 
HETATM   18  H6  UNL     1      25.238   1.489  53.948  1.00  0.00     0.167 HD
BRANCH  17  19
HETATM   19  C7  UNL     1      26.143   0.644  52.768  1.00  0.00     0.014 C 
HETATM   20  C8  UNL     1      25.877  -0.652  52.780  1.00  0.00     0.028 C 
HETATM   21  C9  UNL     1      26.769  -1.821  52.629  1.00  0.00     0.046 C 
HETATM   22  C10 UNL     1      28.087  -1.830  52.875  1.00  0.00     0.137 C 
HETATM   23  F1  UNL     1      28.765  -2.991  52.686  1.00  0.00    -0.204 F 
HETATM   24  C11 UNL     1      28.929  -0.711  53.340  1.00  0.00     0.069 C 
HETATM   25 CL1  UNL     1      30.433  -1.126  54.135  1.00  0.00    -0.081 Cl
HETATM   26  C12 UNL     1      28.588   0.561  53.176  1.00  0.00     0.006 C 
HETATM   27  C13 UNL     1      27.478   1.320  52.593  1.00  0.00     0.086 C 
ENDBRANCH  17  19
ENDBRANCH   9  17
TORSDOF 2
ENDMDL
MODEL 2
REMARK VINA RESULT:      -8.9      2.084      3.621
REMARK  2 active torsions:
REMARK  status: ('A' for Active; 'I' for Inactive)
REMARK    1  A    between atoms: C6_9  and  N3_10 
REMARK    2  A    between atoms: N3_10  and  C7_11 
ROOT
HETATM    1  C1  UNL     1      16.711   0.637  49.988  1.00  0.00     0.210 C 
HETATM    2  O1  UNL     1      17.893   0.552  50.532  1.00  0.00    -0.353 OA
HETATM    3  C2  UNL     1      19.020   0.454  51.087  1.00  0.00     0.106 A 
HETATM    4  C3  UNL     1      19.154  -0.123  52.356  1.00  0.00     0.072 A 
HETATM    5  C4  UNL     1      20.401  -0.236  52.981  1.00  0.00     0.077 A 
HETATM    6  N1  UNL     1      20.517  -0.788  54.196  1.00  0.00    -0.241 NA
HETATM    7  C5  UNL     1      21.697  -0.912  54.822  1.00  0.00     0.236 A 
HETATM    8  N2  UNL     1      22.801  -0.449  54.176  1.00  0.00    -0.223 NA
HETATM    9  C6  UNL     1      22.676   0.107  52.951  1.00  0.00     0.144 A 
HETATM   10  C14 UNL     1      21.497   0.243  52.297  1.00  0.00     0.075 A 
HETATM   11  C15 UNL     1      21.437   0.819  51.051  1.00  0.00     0.121 A 
HETATM   12  C16 UNL     1      20.187   0.914  50.465  1.00  0.00     0.136 A 
HETATM   13  O2  UNL     1      20.066   1.491  49.197  1.00  0.00    -0.344 OA
HETATM   14  C17 UNL     1      21.256   1.637  48.443  1.00  0.00     0.202 C 
HETATM   15  C18 UNL     1      22.399   2.145  49.331  1.00  0.00     0.202 C 
HETATM   16  O3  UNL     1      22.592   1.275  50.435  1.00  0.00    -0.345 OA
ENDROOT
BRANCH   9  17
HETATM   17  N3  UNL     1      23.916   0.534  52.420  1.00  0.00    -0.343 N 
HETATM   18  H6  UNL     1      24.490   1.018  51.707  1.00  0.00     0.167 HD
BRANCH  17  19
HETATM   19  C7  UNL     1      25.159   0.234  53.071  1.00  0.00     0.014 C 
HETATM   20  C8  UNL     1      25.679   1.312  53.636  1.00  0.00     0.028 C 
HETATM   21  C9  UNL     1      26.927   1.491  54.407  1.00  0.00     0.046 C 
HETATM   22  C10 UNL     1      28.006   0.697  54.332  1.00  0.00     0.137 C 
HETATM   23  F1  UNL     1      29.077   1.001  55.110  1.00  0.00    -0.204 F 
HETATM   24  C11 UNL     1      28.195  -0.500  53.491  1.00  0.00     0.069 C 
HETATM   25 CL1  UNL     1      29.844  -0.975  53.143  1.00  0.00    -0.081 Cl
HETATM   26  C12 UNL     1      27.179  -1.205  53.008  1.00  0.00     0.006 C 
HETATM   27  C13 UNL     1      25.715  -1.167  53.050  1.00  0.00     0.086 C 
ENDBRANCH  17  19
ENDBRANCH   9  17
TORSDOF 2
ENDMDL
MODEL 3
REMARK VINA RESULT:      -8.7      4.407      6.259
REMARK  2 active torsions:
REMARK  status: ('A' for Active; 'I' for Inactive)
REMARK    1  A    between atoms: C6_9  and  N3_10 
REMARK    2  A    between atoms: N3_10  and  C7_11 
ROOT
HETATM    1  C1  UNL     1      21.197  -1.022  54.303  1.00  0.00     0.210 C 
HETATM    2  O1  UNL     1      22.082  -0.335  53.637  1.00  0.00    -0.353 OA
HETATM    3  C2  UNL     1      22.962   0.320  53.017  1.00  0.00     0.106 A 
HETATM    4  C3  UNL     1      24.274   0.407  53.501  1.00  0.00     0.072 A 
HETATM    5  C4  UNL     1      25.258   1.133  52.820  1.00  0.00     0.077 A 
HETATM    6  N1  UNL     1      26.509   1.209  53.293  1.00  0.00    -0.241 NA
HETATM    7  C5  UNL     1      27.476   1.896  52.665  1.00  0.00     0.236 A 
HETATM    8  N2  UNL     1      27.144   2.530  51.508  1.00  0.00    -0.223 NA
HETATM    9  C6  UNL     1      25.881   2.449  51.038  1.00  0.00     0.144 A 
HETATM   10  C14 UNL     1      24.887   1.762  51.652  1.00  0.00     0.075 A 
HETATM   11  C15 UNL     1      23.619   1.718  51.122  1.00  0.00     0.121 A 
HETATM   12  C16 UNL     1      22.673   0.991  51.823  1.00  0.00     0.136 A 
HETATM   13  O2  UNL     1      21.367   0.911  51.330  1.00  0.00    -0.344 OA
HETATM   14  C17 UNL     1      21.166   1.291  49.980  1.00  0.00     0.202 C 
HETATM   15  C18 UNL     1      21.955   2.566  49.655  1.00  0.00     0.202 C 
HETATM   16  O3  UNL     1      23.333   2.381  49.940  1.00  0.00    -0.345 OA
ENDROOT
BRANCH   9  17
HETATM   17  N3  UNL     1      25.705   3.161  49.829  1.00  0.00    -0.343 N 
HETATM   18  H6  UNL     1      25.395   3.230  48.842  1.00  0.00     0.167 HD
BRANCH  17  19
HETATM   19  C7  UNL     1      26.105   4.532  49.695  1.00  0.00     0.014 C 
HETATM   20  C8  UNL     1      25.254   5.343  50.302  1.00  0.00     0.028 C 
HETATM   21  C9  UNL     1      25.252   6.816  50.432  1.00  0.00     0.046 C 
HETATM   22  C10 UNL     1      25.871   7.670  49.604  1.00  0.00     0.137 C 
HETATM   23  F1  UNL     1      25.769   8.999  49.864  1.00  0.00    -0.204 F 
HETATM   24  C11 UNL     1      26.674   7.352  48.409  1.00  0.00     0.069 C 
HETATM   25 CL1  UNL     1      26.852   8.616  47.210  1.00  0.00    -0.081 Cl
HETATM   26  C12 UNL     1      27.249   6.169  48.223  1.00  0.00     0.006 C 
HETATM   27  C13 UNL     1      27.355   4.892  48.933  1.00  0.00     0.086 C 
ENDBRANCH  17  19
ENDBRANCH   9  17
TORSDOF 2
ENDMDL
MODEL 4
REMARK VINA RESULT:      -8.6      3.224      4.823
REMARK  2 active torsions:
REMARK  status: ('A' for Active; 'I' for Inactive)
REMARK    1  A    between atoms: C6_9  and  N3_10 
REMARK    2  A    between atoms: N3_10  and  C7_11 
ROOT
HETATM    1  C1  UNL     1      20.980   7.751  50.452  1.00  0.00     0.210 C 
HETATM    2  O1  UNL     1      21.523   6.588  50.678  1.00  0.00    -0.353 OA
HETATM    3  C2  UNL     1      22.018   5.453  50.914  1.00  0.00     0.106 A 
HETATM    4  C3  UNL     1      21.305   4.490  51.639  1.00  0.00     0.072 A 
HETATM    5  C4  UNL     1      21.847   3.227  51.907  1.00  0.00     0.077 A 
HETATM    6  N1  UNL     1      21.156   2.314  52.603  1.00  0.00    -0.241 NA
HETATM    7  C5  UNL     1      21.646   1.095  52.876  1.00  0.00     0.236 A 
HETATM    8  N2  UNL     1      22.893   0.804  52.417  1.00  0.00    -0.223 NA
HETATM    9  C6  UNL     1      23.583   1.729  51.717  1.00  0.00     0.144 A 
HETATM   10  C14 UNL     1      23.112   2.966  51.427  1.00  0.00     0.075 A 
HETATM   11  C15 UNL     1      23.864   3.865  50.709  1.00  0.00     0.121 A 
HETATM   12  C16 UNL     1      23.297   5.102  50.465  1.00  0.00     0.136 A 
HETATM   13  O2  UNL     1      24.016   6.056  49.739  1.00  0.00    -0.344 OA
HETATM   14  C17 UNL     1      25.138   5.593  49.008  1.00  0.00     0.202 C 
HETATM   15  C18 UNL     1      25.952   4.595  49.843  1.00  0.00     0.202 C 
HETATM   16  O3  UNL     1      25.130   3.518  50.264  1.00  0.00    -0.345 OA
ENDROOT
BRANCH   9  17
HETATM   17  N3  UNL     1      24.858   1.266  51.314  1.00  0.00    -0.343 N 
HETATM   18  H6  UNL     1      25.550   0.999  50.591  1.00  0.00     0.167 HD
BRANCH  17  19
HETATM   19  C7  UNL     1      25.877   0.936  52.268  1.00  0.00     0.014 C 
HETATM   20  C8  UNL     1      26.519   2.018  52.680  1.00  0.00     0.028 C 
HETATM   21  C9  UNL     1      27.629   2.172  53.644  1.00  0.00     0.046 C 
HETATM   22  C10 UNL     1      28.504   1.214  53.982  1.00  0.00     0.137 C 
HETATM   23  F1  UNL     1      29.469   1.520  54.886  1.00  0.00    -0.204 F 
HETATM   24  C11 UNL     1      28.562  -0.175  53.487  1.00  0.00     0.069 C 
HETATM   25 CL1  UNL     1      30.101  -1.001  53.617  1.00  0.00    -0.081 Cl
HETATM   26  C12 UNL     1      27.512  -0.795  52.962  1.00  0.00     0.006 C 
HETATM   27  C13 UNL     1      26.106  -0.496  52.677  1.00  0.00     0.086 C 
ENDBRANCH  17  19
ENDBRANCH   9  17
TORSDOF 2
ENDMDL
MODEL 5
REMARK VINA RESULT:      -8.6      4.274      6.182
REMARK  2 active torsions:
REMARK  status: ('A' for Active; 'I' for Inactive)
REMARK    1  A    between atoms: C6_9  and  N3_10 
REMARK    2  A    between atoms: N3_10  and  C7_11 
ROOT
HETATM    1  C1  UNL     1      23.049  -1.520  55.335  1.00  0.00     0.210 C 
HETATM    2  O1  UNL     1      23.400  -0.702  54.382  1.00  0.00    -0.353 OA
HETATM    3  C2  UNL     1      23.704   0.087  53.449  1.00  0.00     0.106 A 
HETATM    4  C3  UNL     1      22.753   0.492  52.504  1.00  0.00     0.072 A 
HETATM    5  C4  UNL     1      23.082   1.368  51.464  1.00  0.00     0.077 A 
HETATM    6  N1  UNL     1      22.163   1.748  50.565  1.00  0.00    -0.241 NA
HETATM    7  C5  UNL     1      22.446   2.586  49.556  1.00  0.00     0.236 A 
HETATM    8  N2  UNL     1      23.721   3.052  49.467  1.00  0.00    -0.223 NA
HETATM    9  C6  UNL     1      24.641   2.664  50.376  1.00  0.00     0.144 A 
HETATM   10  C14 UNL     1      24.382   1.820  51.404  1.00  0.00     0.075 A 
HETATM   11  C15 UNL     1      25.364   1.463  52.296  1.00  0.00     0.121 A 
HETATM   12  C16 UNL     1      25.002   0.595  53.311  1.00  0.00     0.136 A 
HETATM   13  O2  UNL     1      25.960   0.199  54.249  1.00  0.00    -0.344 OA
HETATM   14  C17 UNL     1      27.151   0.963  54.312  1.00  0.00     0.202 C 
HETATM   15  C18 UNL     1      27.655   1.293  52.900  1.00  0.00     0.202 C 
HETATM   16  O3  UNL     1      26.648   1.966  52.161  1.00  0.00    -0.345 OA
ENDROOT
BRANCH   9  17
HETATM   17  N3  UNL     1      25.912   3.239  50.140  1.00  0.00    -0.343 N 
HETATM   18  H6  UNL     1      26.947   3.198  50.119  1.00  0.00     0.167 HD
BRANCH  17  19
HETATM   19  C7  UNL     1      26.056   4.590  49.681  1.00  0.00     0.014 C 
HETATM   20  C8  UNL     1      27.133   4.729  48.924  1.00  0.00     0.028 C 
HETATM   21  C9  UNL     1      27.682   5.918  48.237  1.00  0.00     0.046 C 
HETATM   22  C10 UNL     1      27.449   7.192  48.583  1.00  0.00     0.137 C 
HETATM   23  F1  UNL     1      28.033   8.171  47.847  1.00  0.00    -0.204 F 
HETATM   24  C11 UNL     1      26.616   7.692  49.694  1.00  0.00     0.069 C 
HETATM   25 CL1  UNL     1      26.955   9.307  50.278  1.00  0.00    -0.081 Cl
HETATM   26  C12 UNL     1      25.647   6.971  50.245  1.00  0.00     0.006 C 
HETATM   27  C13 UNL     1      25.052   5.642  50.076  1.00  0.00     0.086 C 
ENDBRANCH  17  19
ENDBRANCH   9  17
TORSDOF 2
ENDMDL
MODEL 6
REMARK VINA RESULT:      -8.4      4.550      7.870
REMARK  2 active torsions:
REMARK  status: ('A' for Active; 'I' for Inactive)
REMARK    1  A    between atoms: C6_9  and  N3_10 
REMARK    2  A    between atoms: N3_10  and  C7_11 
ROOT
HETATM    1  C1  UNL     1      28.771  -0.889  53.294  1.00  0.00     0.210 C 
HETATM    2  O1  UNL     1      27.528  -0.498  53.249  1.00  0.00    -0.353 OA
HETATM    3  C2  UNL     1      26.319  -0.145  53.230  1.00  0.00     0.106 A 
HETATM    4  C3  UNL     1      25.362  -0.798  54.018  1.00  0.00     0.072 A 
HETATM    5  C4  UNL     1      24.016  -0.414  54.003  1.00  0.00     0.077 A 
HETATM    6  N1  UNL     1      23.110  -1.047  54.760  1.00  0.00    -0.241 NA
HETATM    7  C5  UNL     1      21.813  -0.704  54.769  1.00  0.00     0.236 A 
HETATM    8  N2  UNL     1      21.432   0.329  53.970  1.00  0.00    -0.223 NA
HETATM    9  C6  UNL     1      22.351   0.962  53.209  1.00  0.00     0.144 A 
HETATM   10  C14 UNL     1      23.666   0.636  53.182  1.00  0.00     0.075 A 
HETATM   11  C15 UNL     1      24.553   1.319  52.385  1.00  0.00     0.121 A 
HETATM   12  C16 UNL     1      25.874   0.911  52.425  1.00  0.00     0.136 A 
HETATM   13  O2  UNL     1      26.820   1.571  51.636  1.00  0.00    -0.344 OA
HETATM   14  C17 UNL     1      26.444   2.827  51.099  1.00  0.00     0.202 C 
HETATM   15  C18 UNL     1      25.006   2.777  50.565  1.00  0.00     0.202 C 
HETATM   16  O3  UNL     1      24.114   2.365  51.588  1.00  0.00    -0.345 OA
ENDROOT
BRANCH   9  17
HETATM   17  N3  UNL     1      21.791   2.009  52.441  1.00  0.00    -0.343 N 
HETATM   18  H6  UNL     1      21.803   2.971  52.055  1.00  0.00     0.167 HD
BRANCH  17  19
HETATM   19  C7  UNL     1      20.545   1.854  51.747  1.00  0.00     0.014 C 
HETATM   20  C8  UNL     1      19.713   2.844  52.027  1.00  0.00     0.028 C 
HETATM   21  C9  UNL     1      18.336   3.108  51.557  1.00  0.00     0.046 C 
HETATM   22  C10 UNL     1      17.485   2.184  51.087  1.00  0.00     0.137 C 
HETATM   23  F1  UNL     1      16.251   2.593  50.696  1.00  0.00    -0.204 F 
HETATM   24  C11 UNL     1      17.714   0.735  50.935  1.00  0.00     0.069 C 
HETATM   25 CL1  UNL     1      16.297  -0.293  50.878  1.00  0.00    -0.081 Cl
HETATM   26  C12 UNL     1      18.927   0.206  50.842  1.00  0.00     0.006 C 
HETATM   27  C13 UNL     1      20.317   0.671  50.841  1.00  0.00     0.086 C 
ENDBRANCH  17  19
ENDBRANCH   9  17
TORSDOF 2
ENDMDL
MODEL 7
REMARK VINA RESULT:      -8.3      2.789      4.440
REMARK  2 active torsions:
REMARK  status: ('A' for Active; 'I' for Inactive)
REMARK    1  A    between atoms: C6_9  and  N3_10 
REMARK    2  A    between atoms: N3_10  and  C7_11 
ROOT
HETATM    1  C1  UNL     1      21.565   3.561  46.109  1.00  0.00     0.210 C 
HETATM    2  O1  UNL     1      21.962   3.228  47.306  1.00  0.00    -0.353 OA
HETATM    3  C2  UNL     1      22.322   2.878  48.461  1.00  0.00     0.106 A 
HETATM    4  C3  UNL     1      21.738   1.775  49.098  1.00  0.00     0.072 A 
HETATM    5  C4  UNL     1      22.131   1.379  50.381  1.00  0.00     0.077 A 
HETATM    6  N1  UNL     1      21.565   0.323  50.981  1.00  0.00    -0.241 NA
HETATM    7  C5  UNL     1      21.918  -0.083  52.210  1.00  0.00     0.236 A 
HETATM    8  N2  UNL     1      22.890   0.624  52.848  1.00  0.00    -0.223 NA
HETATM    9  C6  UNL     1      23.455   1.687  52.238  1.00  0.00     0.144 A 
HETATM   10  C14 UNL     1      23.118   2.118  50.998  1.00  0.00     0.075 A 
HETATM   11  C15 UNL     1      23.731   3.208  50.431  1.00  0.00     0.121 A 
HETATM   12  C16 UNL     1      23.317   3.570  49.161  1.00  0.00     0.136 A 
HETATM   13  O2  UNL     1      23.907   4.672  48.535  1.00  0.00    -0.344 OA
HETATM   14  C17 UNL     1      25.122   5.150  49.087  1.00  0.00     0.202 C 
HETATM   15  C18 UNL     1      25.043   5.180  50.619  1.00  0.00     0.202 C 
HETATM   16  O3  UNL     1      24.716   3.895  51.123  1.00  0.00    -0.345 OA
ENDROOT
BRANCH   9  17
HETATM   17  N3  UNL     1      24.446   2.308  53.035  1.00  0.00    -0.343 N 
HETATM   18  H6  UNL     1      24.830   3.118  53.554  1.00  0.00     0.167 HD
BRANCH  17  19
HETATM   19  C7  UNL     1      25.625   1.607  53.455  1.00  0.00     0.014 C 
HETATM   20  C8  UNL     1      26.712   2.337  53.265  1.00  0.00     0.028 C 
HETATM   21  C9  UNL     1      28.134   2.041  53.541  1.00  0.00     0.046 C 
HETATM   22  C10 UNL     1      28.666   0.814  53.643  1.00  0.00     0.137 C 
HETATM   23  F1  UNL     1      29.995   0.714  53.900  1.00  0.00    -0.204 F 
HETATM   24  C11 UNL     1      27.981  -0.485  53.506  1.00  0.00     0.069 C 
HETATM   25 CL1  UNL     1      28.973  -1.868  53.092  1.00  0.00    -0.081 Cl
HETATM   26  C12 UNL     1      26.673  -0.630  53.684  1.00  0.00     0.006 C 
HETATM   27  C13 UNL     1      25.525   0.215  54.024  1.00  0.00     0.086 C 
ENDBRANCH  17  19
ENDBRANCH   9  17
TORSDOF 2
ENDMDL
MODEL 8
REMARK VINA RESULT:      -8.3      4.444      7.191
REMARK  2 active torsions:
REMARK  status: ('A' for Active; 'I' for Inactive)
REMARK    1  A    between atoms: C6_9  and  N3_10 
REMARK    2  A    between atoms: N3_10  and  C7_11 
ROOT
HETATM    1  C1  UNL     1      27.266   5.869  48.564  1.00  0.00     0.210 C 
HETATM    2  O1  UNL     1      26.617   5.049  49.342  1.00  0.00    -0.353 OA
HETATM    3  C2  UNL     1      26.018   4.234  50.093  1.00  0.00     0.106 A 
HETATM    4  C3  UNL     1      26.610   3.018  50.460  1.00  0.00     0.072 A 
HETATM    5  C4  UNL     1      25.952   2.106  51.293  1.00  0.00     0.077 A 
HETATM    6  N1  UNL     1      26.528   0.946  51.636  1.00  0.00    -0.241 NA
HETATM    7  C5  UNL     1      25.925   0.050  52.432  1.00  0.00     0.236 A 
HETATM    8  N2  UNL     1      24.682   0.357  52.893  1.00  0.00    -0.223 NA
HETATM    9  C6  UNL     1      24.108   1.528  52.542  1.00  0.00     0.144 A 
HETATM   10  C14 UNL     1      24.695   2.450  51.741  1.00  0.00     0.075 A 
HETATM   11  C15 UNL     1      24.057   3.624  51.420  1.00  0.00     0.121 A 
HETATM   12  C16 UNL     1      24.738   4.501  50.594  1.00  0.00     0.136 A 
HETATM   13  O2  UNL     1      24.138   5.711  50.235  1.00  0.00    -0.344 OA
HETATM   14  C17 UNL     1      23.019   6.124  51.001  1.00  0.00     0.202 C 
HETATM   15  C18 UNL     1      22.084   4.938  51.272  1.00  0.00     0.202 C 
HETATM   16  O3  UNL     1      22.791   3.889  51.916  1.00  0.00    -0.345 OA
ENDROOT
BRANCH   9  17
HETATM   17  N3  UNL     1      22.821   1.692  53.106  1.00  0.00    -0.343 N 
HETATM   18  H6  UNL     1      22.146   2.175  53.727  1.00  0.00     0.167 HD
BRANCH  17  19
HETATM   19  C7  UNL     1      21.730   0.826  52.761  1.00  0.00     0.014 C 
HETATM   20  C8  UNL     1      21.068   1.283  51.710  1.00  0.00     0.028 C 
HETATM   21  C9  UNL     1      19.890   0.739  51.002  1.00  0.00     0.046 C 
HETATM   22  C10 UNL     1      18.984  -0.099  51.529  1.00  0.00     0.137 C 
HETATM   23  F1  UNL     1      17.956  -0.506  50.741  1.00  0.00    -0.204 F 
HETATM   24  C11 UNL     1      18.952  -0.656  52.894  1.00  0.00     0.069 C 
HETATM   25 CL1  UNL     1      17.402  -1.210  53.491  1.00  0.00    -0.081 Cl
HETATM   26  C12 UNL     1      20.034  -0.745  53.659  1.00  0.00     0.006 C 
HETATM   27  C13 UNL     1      21.459  -0.420  53.564  1.00  0.00     0.086 C 
ENDBRANCH  17  19
ENDBRANCH   9  17
TORSDOF 2
ENDMDL
MODEL 9
REMARK VINA RESULT:      -8.1      4.665      7.381
REMARK  2 active torsions:
REMARK  status: ('A' for Active; 'I' for Inactive)
REMARK    1  A    between atoms: C6_9  and  N3_10 
REMARK    2  A    between atoms: N3_10  and  C7_11 
ROOT
HETATM    1  C1  UNL     1      28.306  -0.047  54.867  1.00  0.00     0.210 C 
HETATM    2  O1  UNL     1      27.493   0.491  54.001  1.00  0.00    -0.353 OA
HETATM    3  C2  UNL     1      26.736   1.029  53.151  1.00  0.00     0.106 A 
HETATM    4  C3  UNL     1      27.233   1.946  52.216  1.00  0.00     0.072 A 
HETATM    5  C4  UNL     1      26.399   2.550  51.268  1.00  0.00     0.077 A 
HETATM    6  N1  UNL     1      26.887   3.426  50.379  1.00  0.00    -0.241 NA
HETATM    7  C5  UNL     1      26.116   4.022  49.457  1.00  0.00     0.236 A 
HETATM    8  N2  UNL     1      24.792   3.706  49.449  1.00  0.00    -0.223 NA
HETATM    9  C6  UNL     1      24.308   2.823  50.348  1.00  0.00     0.144 A 
HETATM   10  C14 UNL     1      25.065   2.207  51.288  1.00  0.00     0.075 A 
HETATM   11  C15 UNL     1      24.512   1.316  52.176  1.00  0.00     0.121 A 
HETATM   12  C16 UNL     1      25.367   0.740  53.099  1.00  0.00     0.136 A 
HETATM   13  O2  UNL     1      24.859  -0.175  54.027  1.00  0.00    -0.344 OA
HETATM   14  C17 UNL     1      23.576  -0.715  53.759  1.00  0.00     0.202 C 
HETATM   15  C18 UNL     1      22.621   0.381  53.269  1.00  0.00     0.202 C 
HETATM   16  O3  UNL     1      23.157   1.029  52.126  1.00  0.00    -0.345 OA
ENDROOT
BRANCH   9  17
HETATM   17  N3  UNL     1      22.918   2.606  50.202  1.00  0.00    -0.343 N 
HETATM   18  H6  UNL     1      22.096   1.992  50.061  1.00  0.00     0.167 HD
BRANCH  17  19
HETATM   19  C7  UNL     1      21.977   3.689  50.240  1.00  0.00     0.014 C 
HETATM   20  C8  UNL     1      21.195   3.684  49.173  1.00  0.00     0.028 C 
HETATM   21  C9  UNL     1      20.094   4.590  48.780  1.00  0.00     0.046 C 
HETATM   22  C10 UNL     1      19.938   5.852  49.205  1.00  0.00     0.137 C 
HETATM   23  F1  UNL     1      18.869   6.552  48.746  1.00  0.00    -0.204 F 
HETATM   24  C11 UNL     1      20.798   6.609  50.134  1.00  0.00     0.069 C 
HETATM   25 CL1  UNL     1      20.717   8.356  50.048  1.00  0.00    -0.081 Cl
HETATM   26  C12 UNL     1      21.607   6.019  51.005  1.00  0.00     0.006 C 
HETATM   27  C13 UNL     1      21.970   4.654  51.397  1.00  0.00     0.086 C 
ENDBRANCH  17  19
ENDBRANCH   9  17
TORSDOF 2
ENDMDL
