MODEL 1
REMARK VINA RESULT:      -7.1      0.000      0.000
REMARK  5 active torsions:
REMARK  status: ('A' for Active; 'I' for Inactive)
REMARK    1  A    between atoms: C3_3  and  S1_4 
REMARK    2  A    between atoms: S1_4  and  C4_5 
REMARK    3  A    between atoms: C6_7  and  N1_9 
REMARK    4  A    between atoms: N1_9  and  C8_10 
REMARK    5  A    between atoms: C13_17  and  N4_18 
REMARK       I    between atoms: N4_18  and  C14_19 
ROOT
HETATM    1  C1  UNL     1      22.291   6.506  44.609  1.00  0.00     0.027 C 
HETATM    2  C2  UNL     1      22.011   5.613  45.320  1.00  0.00    -0.029 C 
HETATM    3  C3  UNL     1      21.710   4.611  46.140  1.00  0.00    -0.040 C 
ENDROOT
BRANCH   3   4
HETATM    4  S1  UNL     1      21.394   3.513  47.063  1.00  0.00    -0.162 SA
BRANCH   4   5
HETATM    5  C4  UNL     1      21.010   2.196  48.128  1.00  0.00     0.197 C 
HETATM    6  C5  UNL     1      21.967   2.246  48.994  1.00  0.00     0.052 A 
HETATM    7  C6  UNL     1      22.884   2.032  50.108  1.00  0.00    -0.005 A 
HETATM    8  C7  UNL     1      23.286   3.085  49.327  1.00  0.00     0.064 A 
BRANCH   7   9
HETATM    9  N1  UNL     1      23.809   1.894  51.149  1.00  0.00    -0.347 N 
HETATM   10  H6  UNL     1      24.666   2.525  51.046  1.00  0.00     0.167 HD
BRANCH   9  11
HETATM   11  C8  UNL     1      23.455   0.930  52.169  1.00  0.00     0.141 A 
HETATM   12  N2  UNL     1      22.194   0.492  52.068  1.00  0.00    -0.224 NA
HETATM   13  C9  UNL     1      21.655  -0.420  52.891  1.00  0.00     0.236 A 
HETATM   14  N3  UNL     1      22.460  -0.912  53.878  1.00  0.00    -0.241 NA
HETATM   15  C10 UNL     1      23.704  -0.464  53.963  1.00  0.00     0.072 A 
HETATM   16  C11 UNL     1      24.475  -0.987  54.987  1.00  0.00     0.035 A 
HETATM   17  C17 UNL     1      24.303   0.466  53.150  1.00  0.00     0.041 A 
HETATM   18  C12 UNL     1      25.777  -0.557  55.133  1.00  0.00     0.032 A 
HETATM   19  C13 UNL     1      26.276   0.376  54.262  1.00  0.00     0.035 A 
HETATM   20  C16 UNL     1      25.584   0.953  53.215  1.00  0.00     0.047 A 
BRANCH  19  21
HETATM   21  N4  UNL     1      27.618   0.819  54.435  1.00  0.00    -0.327 N 
HETATM   22  C14 UNL     1      28.406  -0.257  53.919  1.00  0.00     0.218 C 
HETATM   23  C15 UNL     1      29.860  -0.481  53.781  1.00  0.00     0.117 C 
HETATM   24  O1  UNL     1      27.820  -1.295  53.455  1.00  0.00    -0.274 OA
HETATM   25  H10 UNL     1      28.249   1.576  54.768  1.00  0.00     0.169 HD
ENDBRANCH  19  21
ENDBRANCH   9  11
ENDBRANCH   7   9
ENDBRANCH   4   5
ENDBRANCH   3   4
TORSDOF 5
ENDMDL
MODEL 2
REMARK VINA RESULT:      -6.8      1.784      1.914
REMARK  5 active torsions:
REMARK  status: ('A' for Active; 'I' for Inactive)
REMARK    1  A    between atoms: C3_3  and  S1_4 
REMARK    2  A    between atoms: S1_4  and  C4_5 
REMARK    3  A    between atoms: C6_7  and  N1_9 
REMARK    4  A    between atoms: N1_9  and  C8_10 
REMARK    5  A    between atoms: C13_17  and  N4_18 
REMARK       I    between atoms: N4_18  and  C14_19 
ROOT
HETATM    1  C1  UNL     1      23.612   7.933  45.713  1.00  0.00     0.027 C 
HETATM    2  C2  UNL     1      23.452   7.509  46.798  1.00  0.00    -0.029 C 
HETATM    3  C3  UNL     1      23.274   7.006  48.016  1.00  0.00    -0.040 C 
ENDROOT
BRANCH   3   4
HETATM    4  S1  UNL     1      23.080   6.428  49.352  1.00  0.00    -0.162 SA
BRANCH   4   5
HETATM    5  C4  UNL     1      22.862   5.716  50.920  1.00  0.00     0.197 C 
HETATM    6  C5  UNL     1      23.468   4.582  50.801  1.00  0.00     0.052 A 
HETATM    7  C6  UNL     1      24.052   3.259  50.993  1.00  0.00    -0.005 A 
HETATM    8  C7  UNL     1      24.271   3.721  49.720  1.00  0.00     0.064 A 
BRANCH   7   9
HETATM    9  N1  UNL     1      24.641   1.993  51.096  1.00  0.00    -0.347 N 
HETATM   10  H6  UNL     1      25.478   1.857  50.445  1.00  0.00     0.167 HD
BRANCH   9  11
HETATM   11  C8  UNL     1      24.021   1.098  52.049  1.00  0.00     0.141 A 
HETATM   12  N2  UNL     1      22.737   0.838  51.774  1.00  0.00    -0.224 NA
HETATM   13  C9  UNL     1      21.970   0.018  52.507  1.00  0.00     0.236 A 
HETATM   14  N3  UNL     1      22.557  -0.571  53.589  1.00  0.00    -0.241 NA
HETATM   15  C10 UNL     1      23.828  -0.300  53.846  1.00  0.00     0.072 A 
HETATM   16  C11 UNL     1      24.372  -0.916  54.961  1.00  0.00     0.035 A 
HETATM   17  C17 UNL     1      24.655   0.529  53.132  1.00  0.00     0.041 A 
HETATM   18  C12 UNL     1      25.690  -0.669  55.286  1.00  0.00     0.032 A 
HETATM   19  C13 UNL     1      26.427   0.178  54.500  1.00  0.00     0.035 A 
HETATM   20  C16 UNL     1      25.971   0.834  53.374  1.00  0.00     0.047 A 
BRANCH  19  21
HETATM   21  N4  UNL     1      27.782   0.431  54.858  1.00  0.00    -0.327 N 
HETATM   22  C14 UNL     1      28.529  -0.488  54.057  1.00  0.00     0.218 C 
HETATM   23  C15 UNL     1      29.970  -0.776  53.913  1.00  0.00     0.117 C 
HETATM   24  O1  UNL     1      27.907  -1.275  53.264  1.00  0.00    -0.274 OA
HETATM   25  H10 UNL     1      28.438   0.991  55.440  1.00  0.00     0.169 HD
ENDBRANCH  19  21
ENDBRANCH   9  11
ENDBRANCH   7   9
ENDBRANCH   4   5
ENDBRANCH   3   4
TORSDOF 5
ENDMDL
MODEL 3
REMARK VINA RESULT:      -6.6      3.286      3.818
REMARK  5 active torsions:
REMARK  status: ('A' for Active; 'I' for Inactive)
REMARK    1  A    between atoms: C3_3  and  S1_4 
REMARK    2  A    between atoms: S1_4  and  C4_5 
REMARK    3  A    between atoms: C6_7  and  N1_9 
REMARK    4  A    between atoms: N1_9  and  C8_10 
REMARK    5  A    between atoms: C13_17  and  N4_18 
REMARK       I    between atoms: N4_18  and  C14_19 
ROOT
HETATM    1  C1  UNL     1      26.902  10.503  46.749  1.00  0.00     0.027 C 
HETATM    2  C2  UNL     1      26.336   9.885  47.573  1.00  0.00    -0.029 C 
HETATM    3  C3  UNL     1      25.693   9.207  48.519  1.00  0.00    -0.040 C 
ENDROOT
BRANCH   3   4
HETATM    4  S1  UNL     1      24.980   8.479  49.577  1.00  0.00    -0.162 SA
BRANCH   4   5
HETATM    5  C4  UNL     1      24.157   7.634  50.850  1.00  0.00     0.197 C 
HETATM    6  C5  UNL     1      24.437   6.399  50.596  1.00  0.00     0.052 A 
HETATM    7  C6  UNL     1      24.561   4.946  50.588  1.00  0.00    -0.005 A 
HETATM    8  C7  UNL     1      25.236   5.509  49.537  1.00  0.00     0.064 A 
BRANCH   7   9
HETATM    9  N1  UNL     1      24.728   3.558  50.511  1.00  0.00    -0.347 N 
HETATM   10  H6  UNL     1      25.517   3.259  49.854  1.00  0.00     0.167 HD
BRANCH   9  11
HETATM   11  C8  UNL     1      23.815   2.778  51.318  1.00  0.00     0.141 A 
HETATM   12  N2  UNL     1      22.555   3.227  51.276  1.00  0.00    -0.224 NA
HETATM   13  C9  UNL     1      21.536   2.648  51.927  1.00  0.00     0.236 A 
HETATM   14  N3  UNL     1      21.829   1.539  52.668  1.00  0.00    -0.241 NA
HETATM   15  C10 UNL     1      23.082   1.111  52.699  1.00  0.00     0.072 A 
HETATM   16  C11 UNL     1      23.327  -0.012  53.473  1.00  0.00     0.035 A 
HETATM   17  C17 UNL     1      24.159   1.665  52.054  1.00  0.00     0.041 A 
HETATM   18  C12 UNL     1      24.614  -0.503  53.551  1.00  0.00     0.032 A 
HETATM   19  C13 UNL     1      25.616   0.129  52.863  1.00  0.00     0.035 A 
HETATM   20  C16 UNL     1      25.467   1.250  52.070  1.00  0.00     0.047 A 
BRANCH  19  21
HETATM   21  N4  UNL     1      26.940  -0.384  52.966  1.00  0.00    -0.327 N 
HETATM   22  C14 UNL     1      27.510   0.347  54.055  1.00  0.00     0.218 C 
HETATM   23  C15 UNL     1      28.835   0.333  54.709  1.00  0.00     0.117 C 
HETATM   24  O1  UNL     1      26.802   1.224  54.659  1.00  0.00    -0.274 OA
HETATM   25  H10 UNL     1      27.647  -1.051  52.594  1.00  0.00     0.169 HD
ENDBRANCH  19  21
ENDBRANCH   9  11
ENDBRANCH   7   9
ENDBRANCH   4   5
ENDBRANCH   3   4
TORSDOF 5
ENDMDL
MODEL 4
REMARK VINA RESULT:      -6.5      3.254      3.645
REMARK  5 active torsions:
REMARK  status: ('A' for Active; 'I' for Inactive)
REMARK    1  A    between atoms: C3_3  and  S1_4 
REMARK    2  A    between atoms: S1_4  and  C4_5 
REMARK    3  A    between atoms: C6_7  and  N1_9 
REMARK    4  A    between atoms: N1_9  and  C8_10 
REMARK    5  A    between atoms: C13_17  and  N4_18 
REMARK       I    between atoms: N4_18  and  C14_19 
ROOT
HETATM    1  C1  UNL     1      27.542   9.682  50.170  1.00  0.00     0.027 C 
HETATM    2  C2  UNL     1      26.791   8.829  49.870  1.00  0.00    -0.029 C 
HETATM    3  C3  UNL     1      25.935   7.863  49.554  1.00  0.00    -0.040 C 
ENDROOT
BRANCH   3   4
HETATM    4  S1  UNL     1      24.982   6.793  49.229  1.00  0.00    -0.162 SA
BRANCH   4   5
HETATM    5  C4  UNL     1      23.880   5.506  48.852  1.00  0.00     0.197 C 
HETATM    6  C5  UNL     1      23.489   5.119  50.021  1.00  0.00     0.052 A 
HETATM    7  C6  UNL     1      22.861   4.457  51.159  1.00  0.00    -0.005 A 
HETATM    8  C7  UNL     1      23.718   5.445  51.568  1.00  0.00     0.064 A 
BRANCH   7   9
HETATM    9  N1  UNL     1      22.302   3.875  52.302  1.00  0.00    -0.347 N 
HETATM   10  H6  UNL     1      21.950   4.588  53.017  1.00  0.00     0.167 HD
BRANCH   9  11
HETATM   11  C8  UNL     1      22.299   2.428  52.322  1.00  0.00     0.141 A 
HETATM   12  N2  UNL     1      21.219   1.891  51.743  1.00  0.00    -0.224 NA
HETATM   13  C9  UNL     1      21.015   0.571  51.626  1.00  0.00     0.236 A 
HETATM   14  N3  UNL     1      21.979  -0.249  52.137  1.00  0.00    -0.241 NA
HETATM   15  C10 UNL     1      23.041   0.301  52.708  1.00  0.00     0.072 A 
HETATM   16  C11 UNL     1      23.984  -0.576  53.219  1.00  0.00     0.035 A 
HETATM   17  C17 UNL     1      23.297   1.641  52.854  1.00  0.00     0.041 A 
HETATM   18  C12 UNL     1      25.110  -0.065  53.832  1.00  0.00     0.032 A 
HETATM   19  C13 UNL     1      25.266   1.293  53.922  1.00  0.00     0.035 A 
HETATM   20  C16 UNL     1      24.382   2.240  53.445  1.00  0.00     0.047 A 
BRANCH  19  21
HETATM   21  N4  UNL     1      26.427   1.802  54.570  1.00  0.00    -0.327 N 
HETATM   22  C14 UNL     1      27.377   1.950  53.511  1.00  0.00     0.218 C 
HETATM   23  C15 UNL     1      28.776   2.422  53.456  1.00  0.00     0.117 C 
HETATM   24  O1  UNL     1      27.041   1.630  52.320  1.00  0.00    -0.274 OA
HETATM   25  H10 UNL     1      26.862   2.106  55.465  1.00  0.00     0.169 HD
ENDBRANCH  19  21
ENDBRANCH   9  11
ENDBRANCH   7   9
ENDBRANCH   4   5
ENDBRANCH   3   4
TORSDOF 5
ENDMDL
MODEL 5
REMARK VINA RESULT:      -6.4      8.804     11.754
REMARK  5 active torsions:
REMARK  status: ('A' for Active; 'I' for Inactive)
REMARK    1  A    between atoms: C3_3  and  S1_4 
REMARK    2  A    between atoms: S1_4  and  C4_5 
REMARK    3  A    between atoms: C6_7  and  N1_9 
REMARK    4  A    between atoms: N1_9  and  C8_10 
REMARK    5  A    between atoms: C13_17  and  N4_18 
REMARK       I    between atoms: N4_18  and  C14_19 
ROOT
HETATM    1  C1  UNL     1      32.405   1.357  46.791  1.00  0.00     0.027 C 
HETATM    2  C2  UNL     1      32.725   2.441  47.113  1.00  0.00    -0.029 C 
HETATM    3  C3  UNL     1      33.109   3.657  47.486  1.00  0.00    -0.040 C 
ENDROOT
BRANCH   3   4
HETATM    4  S1  UNL     1      33.554   4.993  47.906  1.00  0.00    -0.162 SA
BRANCH   4   5
HETATM    5  C4  UNL     1      34.068   6.583  48.375  1.00  0.00     0.197 C 
HETATM    6  C5  UNL     1      32.980   7.107  48.834  1.00  0.00     0.052 A 
HETATM    7  C6  UNL     1      31.954   7.972  49.405  1.00  0.00    -0.005 A 
HETATM    8  C7  UNL     1      31.440   6.748  49.060  1.00  0.00     0.064 A 
BRANCH   7   9
HETATM    9  N1  UNL     1      30.913   8.738  49.943  1.00  0.00    -0.347 N 
HETATM   10  H6  UNL     1      30.767   8.584  50.991  1.00  0.00     0.167 HD
BRANCH   9  11
HETATM   11  C8  UNL     1      30.220   9.589  49.001  1.00  0.00     0.141 A 
HETATM   12  N2  UNL     1      31.037  10.183  48.123  1.00  0.00    -0.224 NA
HETATM   13  C9  UNL     1      30.614  10.997  47.145  1.00  0.00     0.236 A 
HETATM   14  N3  UNL     1      29.269  11.217  47.064  1.00  0.00    -0.241 NA
HETATM   15  C10 UNL     1      28.476  10.622  47.944  1.00  0.00     0.072 A 
HETATM   16  C11 UNL     1      27.122  10.886  47.825  1.00  0.00     0.035 A 
HETATM   17  C17 UNL     1      28.857   9.783  48.961  1.00  0.00     0.041 A 
HETATM   18  C12 UNL     1      26.245  10.301  48.715  1.00  0.00     0.032 A 
HETATM   19  C13 UNL     1      26.734   9.477  49.694  1.00  0.00     0.035 A 
HETATM   20  C16 UNL     1      28.063   9.157  49.889  1.00  0.00     0.047 A 
BRANCH  19  21
HETATM   21  N4  UNL     1      25.815   8.893  50.612  1.00  0.00    -0.327 N 
HETATM   22  C14 UNL     1      25.609   7.572  50.102  1.00  0.00     0.218 C 
HETATM   23  C15 UNL     1      24.790   6.426  50.545  1.00  0.00     0.117 C 
HETATM   24  O1  UNL     1      26.219   7.210  49.038  1.00  0.00    -0.274 OA
HETATM   25  H10 UNL     1      25.249   9.019  51.475  1.00  0.00     0.169 HD
ENDBRANCH  19  21
ENDBRANCH   9  11
ENDBRANCH   7   9
ENDBRANCH   4   5
ENDBRANCH   3   4
TORSDOF 5
ENDMDL
MODEL 6
REMARK VINA RESULT:      -6.4      3.216      3.355
REMARK  5 active torsions:
REMARK  status: ('A' for Active; 'I' for Inactive)
REMARK    1  A    between atoms: C3_3  and  S1_4 
REMARK    2  A    between atoms: S1_4  and  C4_5 
REMARK    3  A    between atoms: C6_7  and  N1_9 
REMARK    4  A    between atoms: N1_9  and  C8_10 
REMARK    5  A    between atoms: C13_17  and  N4_18 
REMARK       I    between atoms: N4_18  and  C14_19 
ROOT
HETATM    1  C1  UNL     1      20.091  11.349  49.563  1.00  0.00     0.027 C 
HETATM    2  C2  UNL     1      20.088  10.174  49.515  1.00  0.00    -0.029 C 
HETATM    3  C3  UNL     1      20.078   8.847  49.437  1.00  0.00    -0.040 C 
ENDROOT
BRANCH   3   4
HETATM    4  S1  UNL     1      20.058   7.382  49.327  1.00  0.00    -0.162 SA
BRANCH   4   5
HETATM    5  C4  UNL     1      20.055   5.654  49.171  1.00  0.00     0.197 C 
HETATM    6  C5  UNL     1      21.008   5.297  49.967  1.00  0.00     0.052 A 
HETATM    7  C6  UNL     1      21.997   4.578  50.762  1.00  0.00    -0.005 A 
HETATM    8  C7  UNL     1      22.095   5.932  50.951  1.00  0.00     0.064 A 
BRANCH   7   9
HETATM    9  N1  UNL     1      22.973   3.963  51.555  1.00  0.00    -0.347 N 
HETATM   10  H6  UNL     1      23.904   4.488  51.570  1.00  0.00     0.167 HD
BRANCH   9  11
HETATM   11  C8  UNL     1      22.562   2.737  52.204  1.00  0.00     0.141 A 
HETATM   12  N2  UNL     1      21.252   2.694  52.473  1.00  0.00    -0.224 NA
HETATM   13  C9  UNL     1      20.644   1.648  53.051  1.00  0.00     0.236 A 
HETATM   14  N3  UNL     1      21.430   0.580  53.374  1.00  0.00    -0.241 NA
HETATM   15  C10 UNL     1      22.726   0.642  53.102  1.00  0.00     0.072 A 
HETATM   16  C11 UNL     1      23.480  -0.463  53.459  1.00  0.00     0.035 A 
HETATM   17  C17 UNL     1      23.396   1.686  52.514  1.00  0.00     0.041 A 
HETATM   18  C12 UNL     1      24.837  -0.457  53.207  1.00  0.00     0.032 A 
HETATM   19  C13 UNL     1      25.404   0.639  52.613  1.00  0.00     0.035 A 
HETATM   20  C16 UNL     1      24.734   1.783  52.225  1.00  0.00     0.047 A 
BRANCH  19  21
HETATM   21  N4  UNL     1      26.807   0.633  52.374  1.00  0.00    -0.327 N 
HETATM   22  C14 UNL     1      27.372   1.051  53.620  1.00  0.00     0.218 C 
HETATM   23  C15 UNL     1      28.756   1.265  54.090  1.00  0.00     0.117 C 
HETATM   24  O1  UNL     1      26.595   1.321  54.599  1.00  0.00    -0.274 OA
HETATM   25  H10 UNL     1      27.574   0.455  51.693  1.00  0.00     0.169 HD
ENDBRANCH  19  21
ENDBRANCH   9  11
ENDBRANCH   7   9
ENDBRANCH   4   5
ENDBRANCH   3   4
TORSDOF 5
ENDMDL
MODEL 7
REMARK VINA RESULT:      -6.0      3.816      4.451
REMARK  5 active torsions:
REMARK  status: ('A' for Active; 'I' for Inactive)
REMARK    1  A    between atoms: C3_3  and  S1_4 
REMARK    2  A    between atoms: S1_4  and  C4_5 
REMARK    3  A    between atoms: C6_7  and  N1_9 
REMARK    4  A    between atoms: N1_9  and  C8_10 
REMARK    5  A    between atoms: C13_17  and  N4_18 
REMARK       I    between atoms: N4_18  and  C14_19 
ROOT
HETATM    1  C1  UNL     1      19.501  12.471  48.821  1.00  0.00     0.027 C 
HETATM    2  C2  UNL     1      20.183  11.515  48.768  1.00  0.00    -0.029 C 
HETATM    3  C3  UNL     1      20.936  10.423  48.693  1.00  0.00    -0.040 C 
ENDROOT
BRANCH   3   4
HETATM    4  S1  UNL     1      21.752   9.205  48.596  1.00  0.00    -0.162 SA
BRANCH   4   5
HETATM    5  C4  UNL     1      22.709   7.764  48.448  1.00  0.00     0.197 C 
HETATM    6  C5  UNL     1      22.552   7.202  49.600  1.00  0.00     0.052 A 
HETATM    7  C6  UNL     1      22.582   6.329  50.768  1.00  0.00    -0.005 A 
HETATM    8  C7  UNL     1      21.810   7.439  50.996  1.00  0.00     0.064 A 
BRANCH   7   9
HETATM    9  N1  UNL     1      22.559   5.545  51.928  1.00  0.00    -0.347 N 
HETATM   10  H6  UNL     1      22.750   6.100  52.822  1.00  0.00     0.167 HD
BRANCH   9  11
HETATM   11  C8  UNL     1      22.289   4.139  51.720  1.00  0.00     0.141 A 
HETATM   12  N2  UNL     1      21.192   3.913  50.989  1.00  0.00    -0.224 NA
HETATM   13  C9  UNL     1      20.761   2.688  50.652  1.00  0.00     0.236 A 
HETATM   14  N3  UNL     1      21.503   1.631  51.094  1.00  0.00    -0.241 NA
HETATM   15  C10 UNL     1      22.585   1.875  51.819  1.00  0.00     0.072 A 
HETATM   16  C11 UNL     1      23.296   0.768  52.250  1.00  0.00     0.035 A 
HETATM   17  C17 UNL     1      23.068   3.105  52.191  1.00  0.00     0.041 A 
HETATM   18  C12 UNL     1      24.429   0.956  53.014  1.00  0.00     0.032 A 
HETATM   19  C13 UNL     1      24.823   2.230  53.327  1.00  0.00     0.035 A 
HETATM   20  C16 UNL     1      24.179   3.390  52.943  1.00  0.00     0.047 A 
BRANCH  19  21
HETATM   21  N4  UNL     1      25.987   2.404  54.128  1.00  0.00    -0.327 N 
HETATM   22  C14 UNL     1      27.067   2.301  53.195  1.00  0.00     0.218 C 
HETATM   23  C15 UNL     1      28.536   2.382  53.324  1.00  0.00     0.117 C 
HETATM   24  O1  UNL     1      26.808   2.093  51.959  1.00  0.00    -0.274 OA
HETATM   25  H10 UNL     1      26.372   2.573  55.079  1.00  0.00     0.169 HD
ENDBRANCH  19  21
ENDBRANCH   9  11
ENDBRANCH   7   9
ENDBRANCH   4   5
ENDBRANCH   3   4
TORSDOF 5
ENDMDL
MODEL 8
REMARK VINA RESULT:      -5.8      8.380     11.042
REMARK  5 active torsions:
REMARK  status: ('A' for Active; 'I' for Inactive)
REMARK    1  A    between atoms: C3_3  and  S1_4 
REMARK    2  A    between atoms: S1_4  and  C4_5 
REMARK    3  A    between atoms: C6_7  and  N1_9 
REMARK    4  A    between atoms: N1_9  and  C8_10 
REMARK    5  A    between atoms: C13_17  and  N4_18 
REMARK       I    between atoms: N4_18  and  C14_19 
ROOT
HETATM    1  C1  UNL     1      34.230   3.287  46.344  1.00  0.00     0.027 C 
HETATM    2  C2  UNL     1      33.947   4.400  46.592  1.00  0.00    -0.029 C 
HETATM    3  C3  UNL     1      33.647   5.662  46.886  1.00  0.00    -0.040 C 
ENDROOT
BRANCH   3   4
HETATM    4  S1  UNL     1      33.337   7.058  47.223  1.00  0.00    -0.162 SA
BRANCH   4   5
HETATM    5  C4  UNL     1      32.983   8.716  47.592  1.00  0.00     0.197 C 
HETATM    6  C5  UNL     1      31.887   8.627  48.270  1.00  0.00     0.052 A 
HETATM    7  C6  UNL     1      30.677   8.868  49.047  1.00  0.00    -0.005 A 
HETATM    8  C7  UNL     1      30.853   7.531  48.802  1.00  0.00     0.064 A 
BRANCH   7   9
HETATM    9  N1  UNL     1      29.502   9.016  49.794  1.00  0.00    -0.347 N 
HETATM   10  H6  UNL     1      29.584   8.651  50.795  1.00  0.00     0.167 HD
BRANCH   9  11
HETATM   11  C8  UNL     1      28.393   9.623  49.091  1.00  0.00     0.141 A 
HETATM   12  N2  UNL     1      28.771  10.564  48.217  1.00  0.00    -0.224 NA
HETATM   13  C9  UNL     1      27.917  11.244  47.439  1.00  0.00     0.236 A 
HETATM   14  N3  UNL     1      26.592  10.940  47.565  1.00  0.00    -0.241 NA
HETATM   15  C10 UNL     1      26.237  10.007  48.437  1.00  0.00     0.072 A 
HETATM   16  C11 UNL     1      24.881   9.743  48.534  1.00  0.00     0.035 A 
HETATM   17  C17 UNL     1      27.068   9.284  49.256  1.00  0.00     0.041 A 
HETATM   18  C12 UNL     1      24.447   8.787  49.428  1.00  0.00     0.032 A 
HETATM   19  C13 UNL     1      25.366   8.122  50.197  1.00  0.00     0.035 A 
HETATM   20  C16 UNL     1      26.732   8.318  50.170  1.00  0.00     0.047 A 
BRANCH  19  21
HETATM   21  N4  UNL     1      24.898   7.148  51.125  1.00  0.00    -0.327 N 
HETATM   22  C14 UNL     1      24.794   5.952  50.346  1.00  0.00     0.218 C 
HETATM   23  C15 UNL     1      24.379   4.569  50.655  1.00  0.00     0.117 C 
HETATM   24  O1  UNL     1      25.104   5.985  49.106  1.00  0.00    -0.274 OA
HETATM   25  H10 UNL     1      24.611   6.945  52.104  1.00  0.00     0.169 HD
ENDBRANCH  19  21
ENDBRANCH   9  11
ENDBRANCH   7   9
ENDBRANCH   4   5
ENDBRANCH   3   4
TORSDOF 5
ENDMDL
MODEL 9
REMARK VINA RESULT:      -5.8      2.975      4.996
REMARK  5 active torsions:
REMARK  status: ('A' for Active; 'I' for Inactive)
REMARK    1  A    between atoms: C3_3  and  S1_4 
REMARK    2  A    between atoms: S1_4  and  C4_5 
REMARK    3  A    between atoms: C6_7  and  N1_9 
REMARK    4  A    between atoms: N1_9  and  C8_10 
REMARK    5  A    between atoms: C13_17  and  N4_18 
REMARK       I    between atoms: N4_18  and  C14_19 
ROOT
HETATM    1  C1  UNL     1      20.952   4.812  44.473  1.00  0.00     0.027 C 
HETATM    2  C2  UNL     1      21.534   5.155  45.434  1.00  0.00    -0.029 C 
HETATM    3  C3  UNL     1      22.211   5.527  46.516  1.00  0.00    -0.040 C 
ENDROOT
BRANCH   3   4
HETATM    4  S1  UNL     1      22.977   5.923  47.706  1.00  0.00    -0.162 SA
BRANCH   4   5
HETATM    5  C4  UNL     1      23.885   6.357  49.120  1.00  0.00     0.197 C 
HETATM    6  C5  UNL     1      23.381   5.588  50.026  1.00  0.00     0.052 A 
HETATM    7  C6  UNL     1      23.039   4.877  51.253  1.00  0.00    -0.005 A 
HETATM    8  C7  UNL     1      22.256   4.467  50.205  1.00  0.00     0.064 A 
BRANCH   7   9
HETATM    9  N1  UNL     1      22.653   4.151  52.386  1.00  0.00    -0.347 N 
HETATM   10  H6  UNL     1      21.872   4.618  52.947  1.00  0.00     0.167 HD
BRANCH   9  11
HETATM   11  C8  UNL     1      23.370   2.913  52.603  1.00  0.00     0.141 A 
HETATM   12  N2  UNL     1      24.700   3.057  52.558  1.00  0.00    -0.224 NA
HETATM   13  C9  UNL     1      25.564   2.051  52.754  1.00  0.00     0.236 A 
HETATM   14  N3  UNL     1      25.030   0.821  53.011  1.00  0.00    -0.241 NA
HETATM   15  C10 UNL     1      23.712   0.698  53.049  1.00  0.00     0.072 A 
HETATM   16  C11 UNL     1      23.222  -0.572  53.303  1.00  0.00     0.035 A 
HETATM   17  C17 UNL     1      22.785   1.692  52.856  1.00  0.00     0.041 A 
HETATM   18  C12 UNL     1      21.857  -0.767  53.349  1.00  0.00     0.032 A 
HETATM   19  C13 UNL     1      21.021   0.299  53.143  1.00  0.00     0.035 A 
HETATM   20  C16 UNL     1      21.416   1.596  52.884  1.00  0.00     0.047 A 
BRANCH  19  21
HETATM   21  N4  UNL     1      19.614   0.077  53.181  1.00  0.00    -0.327 N 
HETATM   22  C14 UNL     1      19.234   0.036  51.803  1.00  0.00     0.218 C 
HETATM   23  C15 UNL     1      17.945  -0.158  51.107  1.00  0.00     0.117 C 
HETATM   24  O1  UNL     1      20.128   0.191  50.902  1.00  0.00    -0.274 OA
HETATM   25  H10 UNL     1      18.772  -0.066  53.774  1.00  0.00     0.169 HD
ENDBRANCH  19  21
ENDBRANCH   9  11
ENDBRANCH   7   9
ENDBRANCH   4   5
ENDBRANCH   3   4
TORSDOF 5
ENDMDL
