MODEL 1
REMARK VINA RESULT:      -6.7      0.000      0.000
REMARK  7 active torsions:
REMARK  status: ('A' for Active; 'I' for Inactive)
REMARK    1  A    between atoms: C3_4  and  C4_5 
REMARK    2  A    between atoms: C4_5  and  O2_6 
REMARK    3  A    between atoms: C6_8  and  C7_9 
REMARK    4  A    between atoms: C7_9  and  O3_10 
REMARK    5  A    between atoms: C9_13  and  C10_14 
REMARK    6  A    between atoms: C11_15  and  N1_16 
REMARK    7  A    between atoms: C17_22  and  N2_23 
ROOT
HETATM    1  C10 UNL     1      21.937   1.859  52.188  1.00  0.00     0.019 A 
HETATM    2  C11 UNL     1      21.318   2.264  51.095  1.00  0.00     0.044 A 
HETATM    3  C18 UNL     1      19.912   2.598  51.274  1.00  0.00     0.154 A 
HETATM    4  C19 UNL     1      19.450   3.935  50.823  1.00  0.00     0.041 C 
HETATM    5  N3  UNL     1      19.709   2.347  52.673  1.00  0.00    -0.290 NA
HETATM    6  C20 UNL     1      20.816   1.946  53.161  1.00  0.00     0.123 A 
ENDROOT
BRANCH   1   7
HETATM    7  C9  UNL     1      23.157   1.390  52.836  1.00  0.00     0.214 C 
HETATM    8  C2  UNL     1      23.260   0.006  53.227  1.00  0.00     0.071 C 
HETATM    9  C1  UNL     1      22.475  -1.031  53.057  1.00  0.00     0.049 C 
HETATM   10  O1  UNL     1      24.424  -0.319  53.929  1.00  0.00    -0.343 OA
HETATM   11  C3  UNL     1      25.485   0.672  53.798  1.00  0.00     0.183 C 
HETATM   12  C6  UNL     1      25.399   0.967  52.292  1.00  0.00     0.178 C 
HETATM   13  O4  UNL     1      24.245   1.679  52.006  1.00  0.00    -0.364 OA
BRANCH  11  14
HETATM   14  C4  UNL     1      26.760  -0.025  54.098  1.00  0.00     0.202 C 
BRANCH  14  15
HETATM   15  O2  UNL     1      27.574   0.617  54.998  1.00  0.00    -0.393 OA
HETATM   16  C5  UNL     1      28.896   0.625  54.638  1.00  0.00     0.201 C 
ENDBRANCH  14  15
ENDBRANCH  11  14
BRANCH  12  17
HETATM   17  C7  UNL     1      26.548   1.763  51.774  1.00  0.00     0.201 C 
BRANCH  17  18
HETATM   18  O3  UNL     1      26.060   2.924  51.189  1.00  0.00    -0.393 OA
HETATM   19  C8  UNL     1      26.612   3.276  49.994  1.00  0.00     0.201 C 
ENDBRANCH  17  18
ENDBRANCH  12  17
ENDBRANCH   1   7
BRANCH   2  20
HETATM   20  N1  UNL     1      21.856   2.401  49.809  1.00  0.00    -0.348 N 
HETATM   21  C12 UNL     1      21.589   1.428  48.769  1.00  0.00     0.152 C 
HETATM   22  C13 UNL     1      21.722   2.061  47.408  1.00  0.00    -0.005 C 
HETATM   23  C14 UNL     1      21.950   3.366  47.147  1.00  0.00    -0.082 C 
HETATM   24  C15 UNL     1      22.065   3.880  45.753  1.00  0.00     0.043 C 
HETATM   25  C16 UNL     1      22.092   4.324  48.309  1.00  0.00     0.090 C 
HETATM   26  C17 UNL     1      22.713   3.527  49.406  1.00  0.00     0.323 C 
BRANCH  26  27
HETATM   27  N2  UNL     1      23.229   4.270  50.508  1.00  0.00     0.101 N 
HETATM   28  H25 UNL     1      24.241   4.413  50.482  1.00  0.00     0.315 HD
HETATM   29  H26 UNL     1      22.699   5.161  50.669  1.00  0.00     0.315 HD
ENDBRANCH  26  27
ENDBRANCH   2  20
TORSDOF 7
ENDMDL
MODEL 2
REMARK VINA RESULT:      -6.6      1.737      4.182
REMARK  7 active torsions:
REMARK  status: ('A' for Active; 'I' for Inactive)
REMARK    1  A    between atoms: C3_4  and  C4_5 
REMARK    2  A    between atoms: C4_5  and  O2_6 
REMARK    3  A    between atoms: C6_8  and  C7_9 
REMARK    4  A    between atoms: C7_9  and  O3_10 
REMARK    5  A    between atoms: C9_13  and  C10_14 
REMARK    6  A    between atoms: C11_15  and  N1_16 
REMARK    7  A    between atoms: C17_22  and  N2_23 
ROOT
HETATM    1  C10 UNL     1      23.016   2.567  50.513  1.00  0.00     0.019 A 
HETATM    2  C11 UNL     1      21.763   2.766  50.145  1.00  0.00     0.044 A 
HETATM    3  C18 UNL     1      21.598   3.330  48.813  1.00  0.00     0.154 A 
HETATM    4  C19 UNL     1      20.710   2.617  47.860  1.00  0.00     0.041 C 
HETATM    5  N3  UNL     1      22.954   3.467  48.363  1.00  0.00    -0.290 NA
HETATM    6  C20 UNL     1      23.717   3.050  49.294  1.00  0.00     0.123 A 
ENDROOT
BRANCH   1   7
HETATM    7  C9  UNL     1      23.968   2.114  51.520  1.00  0.00     0.214 C 
HETATM    8  C2  UNL     1      24.332   3.002  52.597  1.00  0.00     0.071 C 
HETATM    9  C1  UNL     1      23.916   4.195  52.950  1.00  0.00     0.049 C 
HETATM   10  O1  UNL     1      25.326   2.512  53.449  1.00  0.00    -0.343 OA
HETATM   11  C3  UNL     1      25.529   1.072  53.347  1.00  0.00     0.183 C 
HETATM   12  C6  UNL     1      24.070   0.592  53.301  1.00  0.00     0.178 C 
HETATM   13  O4  UNL     1      23.490   0.930  52.089  1.00  0.00    -0.364 OA
BRANCH  11  14
HETATM   14  C4  UNL     1      26.157   0.639  54.620  1.00  0.00     0.202 C 
BRANCH  14  15
HETATM   15  O2  UNL     1      27.426   1.120  54.834  1.00  0.00    -0.393 OA
HETATM   16  C5  UNL     1      28.407   0.178  54.673  1.00  0.00     0.201 C 
ENDBRANCH  14  15
ENDBRANCH  11  14
BRANCH  12  17
HETATM   17  C7  UNL     1      23.922  -0.883  53.466  1.00  0.00     0.201 C 
BRANCH  17  18
HETATM   18  O3  UNL     1      22.619  -1.239  53.145  1.00  0.00    -0.393 OA
HETATM   19  C8  UNL     1      21.780  -1.466  54.194  1.00  0.00     0.201 C 
ENDBRANCH  17  18
ENDBRANCH  12  17
ENDBRANCH   1   7
BRANCH   2  20
HETATM   20  N1  UNL     1      20.604   2.500  50.884  1.00  0.00    -0.348 N 
HETATM   21  C12 UNL     1      19.799   3.569  51.441  1.00  0.00     0.152 C 
HETATM   22  C13 UNL     1      18.374   3.117  51.623  1.00  0.00    -0.005 C 
HETATM   23  C14 UNL     1      17.851   1.933  51.238  1.00  0.00    -0.082 C 
HETATM   24  C15 UNL     1      16.419   1.593  51.474  1.00  0.00     0.043 C 
HETATM   25  C16 UNL     1      18.751   0.931  50.551  1.00  0.00     0.090 C 
HETATM   26  C17 UNL     1      20.104   1.141  51.144  1.00  0.00     0.323 C 
BRANCH  26  27
HETATM   27  N2  UNL     1      21.068   0.123  50.888  1.00  0.00     0.101 N 
HETATM   28  H25 UNL     1      21.369  -0.390  51.720  1.00  0.00     0.315 HD
HETATM   29  H26 UNL     1      20.777  -0.512  50.105  1.00  0.00     0.315 HD
ENDBRANCH  26  27
ENDBRANCH   2  20
TORSDOF 7
ENDMDL
MODEL 3
REMARK VINA RESULT:      -6.5      2.745      5.549
REMARK  7 active torsions:
REMARK  status: ('A' for Active; 'I' for Inactive)
REMARK    1  A    between atoms: C3_4  and  C4_5 
REMARK    2  A    between atoms: C4_5  and  O2_6 
REMARK    3  A    between atoms: C6_8  and  C7_9 
REMARK    4  A    between atoms: C7_9  and  O3_10 
REMARK    5  A    between atoms: C9_13  and  C10_14 
REMARK    6  A    between atoms: C11_15  and  N1_16 
REMARK    7  A    between atoms: C17_22  and  N2_23 
ROOT
HETATM    1  C10 UNL     1      23.527   1.851  52.007  1.00  0.00     0.019 A 
HETATM    2  C11 UNL     1      24.214   2.851  51.486  1.00  0.00     0.044 A 
HETATM    3  C18 UNL     1      25.661   2.690  51.529  1.00  0.00     0.154 A 
HETATM    4  C19 UNL     1      26.415   2.829  50.258  1.00  0.00     0.041 C 
HETATM    5  N3  UNL     1      25.812   1.412  52.165  1.00  0.00    -0.290 NA
HETATM    6  C20 UNL     1      24.646   0.964  52.421  1.00  0.00     0.123 A 
ENDROOT
BRANCH   1   7
HETATM    7  C9  UNL     1      22.238   1.259  52.343  1.00  0.00     0.214 C 
HETATM    8  C2  UNL     1      21.310   0.942  51.284  1.00  0.00     0.071 C 
HETATM    9  C1  UNL     1      21.393   1.004  49.976  1.00  0.00     0.049 C 
HETATM   10  O1  UNL     1      20.066   0.474  51.716  1.00  0.00    -0.343 OA
HETATM   11  C3  UNL     1      20.059   0.016  53.099  1.00  0.00     0.183 C 
HETATM   12  C6  UNL     1      21.377  -0.775  53.133  1.00  0.00     0.178 C 
HETATM   13  O4  UNL     1      22.459   0.089  53.076  1.00  0.00    -0.364 OA
BRANCH  11  14
HETATM   14  C4  UNL     1      18.914  -0.917  53.234  1.00  0.00     0.202 C 
BRANCH  14  15
HETATM   15  O2  UNL     1      18.020  -0.893  52.192  1.00  0.00    -0.393 OA
HETATM   16  C5  UNL     1      16.715  -1.040  52.580  1.00  0.00     0.201 C 
ENDBRANCH  14  15
ENDBRANCH  11  14
BRANCH  12  17
HETATM   17  C7  UNL     1      21.541  -1.609  54.358  1.00  0.00     0.201 C 
BRANCH  17  18
HETATM   18  O3  UNL     1      22.292  -0.897  55.284  1.00  0.00    -0.393 OA
HETATM   19  C8  UNL     1      23.435  -1.495  55.722  1.00  0.00     0.201 C 
ENDBRANCH  17  18
ENDBRANCH  12  17
ENDBRANCH   1   7
BRANCH   2  20
HETATM   20  N1  UNL     1      23.711   4.025  50.911  1.00  0.00    -0.348 N 
HETATM   21  C12 UNL     1      23.473   4.129  49.486  1.00  0.00     0.152 C 
HETATM   22  C13 UNL     1      22.413   5.161  49.201  1.00  0.00    -0.005 C 
HETATM   23  C14 UNL     1      21.685   5.839  50.115  1.00  0.00    -0.082 C 
HETATM   24  C15 UNL     1      20.660   6.842  49.714  1.00  0.00     0.043 C 
HETATM   25  C16 UNL     1      21.927   5.565  51.582  1.00  0.00     0.090 C 
HETATM   26  C17 UNL     1      23.376   5.228  51.690  1.00  0.00     0.323 C 
BRANCH  26  27
HETATM   27  N2  UNL     1      23.925   5.224  53.005  1.00  0.00     0.101 N 
HETATM   28  H25 UNL     1      24.036   6.153  53.418  1.00  0.00     0.315 HD
HETATM   29  H26 UNL     1      23.426   4.556  53.642  1.00  0.00     0.315 HD
ENDBRANCH  26  27
ENDBRANCH   2  20
TORSDOF 7
ENDMDL
MODEL 4
REMARK VINA RESULT:      -6.4      2.581      3.935
REMARK  7 active torsions:
REMARK  status: ('A' for Active; 'I' for Inactive)
REMARK    1  A    between atoms: C3_4  and  C4_5 
REMARK    2  A    between atoms: C4_5  and  O2_6 
REMARK    3  A    between atoms: C6_8  and  C7_9 
REMARK    4  A    between atoms: C7_9  and  O3_10 
REMARK    5  A    between atoms: C9_13  and  C10_14 
REMARK    6  A    between atoms: C11_15  and  N1_16 
REMARK    7  A    between atoms: C17_22  and  N2_23 
ROOT
HETATM    1  C10 UNL     1      22.006   4.205  51.067  1.00  0.00     0.019 A 
HETATM    2  C11 UNL     1      22.384   5.284  50.406  1.00  0.00     0.044 A 
HETATM    3  C18 UNL     1      21.300   6.170  50.006  1.00  0.00     0.154 A 
HETATM    4  C19 UNL     1      21.390   7.601  50.395  1.00  0.00     0.041 C 
HETATM    5  N3  UNL     1      20.142   5.494  50.519  1.00  0.00    -0.290 NA
HETATM    6  C20 UNL     1      20.536   4.427  51.093  1.00  0.00     0.123 A 
ENDROOT
BRANCH   1   7
HETATM    7  C9  UNL     1      22.361   2.963  51.743  1.00  0.00     0.214 C 
HETATM    8  C2  UNL     1      22.266   1.716  51.024  1.00  0.00     0.071 C 
HETATM    9  C1  UNL     1      21.979   1.424  49.778  1.00  0.00     0.049 C 
HETATM   10  O1  UNL     1      22.529   0.577  51.790  1.00  0.00    -0.343 OA
HETATM   11  C3  UNL     1      23.226   0.858  53.039  1.00  0.00     0.183 C 
HETATM   12  C6  UNL     1      24.274   1.869  52.547  1.00  0.00     0.178 C 
HETATM   13  O4  UNL     1      23.667   3.074  52.229  1.00  0.00    -0.364 OA
BRANCH  11  14
HETATM   14  C4  UNL     1      23.899  -0.401  53.443  1.00  0.00     0.202 C 
BRANCH  14  15
HETATM   15  O2  UNL     1      23.507  -0.904  54.660  1.00  0.00    -0.393 OA
HETATM   16  C5  UNL     1      22.148  -0.936  54.831  1.00  0.00     0.201 C 
ENDBRANCH  14  15
ENDBRANCH  11  14
BRANCH  12  17
HETATM   17  C7  UNL     1      25.338   2.161  53.549  1.00  0.00     0.201 C 
BRANCH  17  18
HETATM   18  O3  UNL     1      26.557   2.256  52.890  1.00  0.00    -0.393 OA
HETATM   19  C8  UNL     1      26.741   1.413  51.836  1.00  0.00     0.201 C 
ENDBRANCH  17  18
ENDBRANCH  12  17
ENDBRANCH   1   7
BRANCH   2  20
HETATM   20  N1  UNL     1      23.687   5.658  50.054  1.00  0.00    -0.348 N 
HETATM   21  C12 UNL     1      24.221   5.390  48.733  1.00  0.00     0.152 C 
HETATM   22  C13 UNL     1      25.313   6.372  48.397  1.00  0.00    -0.005 C 
HETATM   23  C14 UNL     1      25.699   7.432  49.140  1.00  0.00    -0.082 C 
HETATM   24  C15 UNL     1      26.798   8.337  48.705  1.00  0.00     0.043 C 
HETATM   25  C16 UNL     1      24.990   7.695  50.450  1.00  0.00     0.090 C 
HETATM   26  C17 UNL     1      24.606   6.351  50.970  1.00  0.00     0.323 C 
BRANCH  26  27
HETATM   27  N2  UNL     1      24.194   6.299  52.334  1.00  0.00     0.101 N 
HETATM   28  H25 UNL     1      24.204   5.361  52.741  1.00  0.00     0.315 HD
HETATM   29  H26 UNL     1      24.696   7.003  52.928  1.00  0.00     0.315 HD
ENDBRANCH  26  27
ENDBRANCH   2  20
TORSDOF 7
ENDMDL
MODEL 5
REMARK VINA RESULT:      -6.1      5.093      8.253
REMARK  7 active torsions:
REMARK  status: ('A' for Active; 'I' for Inactive)
REMARK    1  A    between atoms: C3_4  and  C4_5 
REMARK    2  A    between atoms: C4_5  and  O2_6 
REMARK    3  A    between atoms: C6_8  and  C7_9 
REMARK    4  A    between atoms: C7_9  and  O3_10 
REMARK    5  A    between atoms: C9_13  and  C10_14 
REMARK    6  A    between atoms: C11_15  and  N1_16 
REMARK    7  A    between atoms: C17_22  and  N2_23 
ROOT
HETATM    1  C10 UNL     1      26.888   7.805  49.296  1.00  0.00     0.019 A 
HETATM    2  C11 UNL     1      27.914   8.338  48.657  1.00  0.00     0.044 A 
HETATM    3  C18 UNL     1      28.393   9.597  49.209  1.00  0.00     0.154 A 
HETATM    4  C19 UNL     1      29.834   9.705  49.548  1.00  0.00     0.041 C 
HETATM    5  N3  UNL     1      27.511   9.803  50.323  1.00  0.00    -0.290 NA
HETATM    6  C20 UNL     1      26.696   8.824  50.361  1.00  0.00     0.123 A 
ENDROOT
BRANCH   1   7
HETATM    7  C9  UNL     1      25.912   6.728  49.419  1.00  0.00     0.214 C 
HETATM    8  C2  UNL     1      24.810   6.665  48.490  1.00  0.00     0.071 C 
HETATM    9  C1  UNL     1      24.496   7.369  47.428  1.00  0.00     0.049 C 
HETATM   10  O1  UNL     1      23.877   5.659  48.756  1.00  0.00    -0.343 OA
HETATM   11  C3  UNL     1      24.371   4.624  49.655  1.00  0.00     0.183 C 
HETATM   12  C6  UNL     1      25.781   4.411  49.081  1.00  0.00     0.178 C 
HETATM   13  O4  UNL     1      26.585   5.504  49.363  1.00  0.00    -0.364 OA
BRANCH  11  14
HETATM   14  C4  UNL     1      23.545   3.416  49.409  1.00  0.00     0.202 C 
BRANCH  14  15
HETATM   15  O2  UNL     1      22.832   2.970  50.495  1.00  0.00    -0.393 OA
HETATM   16  C5  UNL     1      23.019   1.640  50.769  1.00  0.00     0.201 C 
ENDBRANCH  14  15
ENDBRANCH  11  14
BRANCH  12  17
HETATM   17  C7  UNL     1      26.470   3.205  49.622  1.00  0.00     0.201 C 
BRANCH  17  18
HETATM   18  O3  UNL     1      26.498   3.292  51.008  1.00  0.00    -0.393 OA
HETATM   19  C8  UNL     1      26.700   2.126  51.682  1.00  0.00     0.201 C 
ENDBRANCH  17  18
ENDBRANCH  12  17
ENDBRANCH   1   7
BRANCH   2  20
HETATM   20  N1  UNL     1      28.573   7.833  47.529  1.00  0.00    -0.348 N 
HETATM   21  C12 UNL     1      28.339   8.379  46.208  1.00  0.00     0.152 C 
HETATM   22  C13 UNL     1      29.533   8.142  45.320  1.00  0.00    -0.005 C 
HETATM   23  C14 UNL     1      30.715   7.602  45.689  1.00  0.00    -0.082 C 
HETATM   24  C15 UNL     1      31.829   7.415  44.718  1.00  0.00     0.043 C 
HETATM   25  C16 UNL     1      30.900   7.176  47.128  1.00  0.00     0.090 C 
HETATM   26  C17 UNL     1      29.551   6.735  47.588  1.00  0.00     0.323 C 
BRANCH  26  27
HETATM   27  N2  UNL     1      29.512   6.005  48.811  1.00  0.00     0.101 N 
HETATM   28  H25 UNL     1      29.105   5.070  48.730  1.00  0.00     0.315 HD
HETATM   29  H26 UNL     1      30.440   6.000  49.301  1.00  0.00     0.315 HD
ENDBRANCH  26  27
ENDBRANCH   2  20
TORSDOF 7
ENDMDL
MODEL 6
REMARK VINA RESULT:      -6.1      6.934     10.036
REMARK  7 active torsions:
REMARK  status: ('A' for Active; 'I' for Inactive)
REMARK    1  A    between atoms: C3_4  and  C4_5 
REMARK    2  A    between atoms: C4_5  and  O2_6 
REMARK    3  A    between atoms: C6_8  and  C7_9 
REMARK    4  A    between atoms: C7_9  and  O3_10 
REMARK    5  A    between atoms: C9_13  and  C10_14 
REMARK    6  A    between atoms: C11_15  and  N1_16 
REMARK    7  A    between atoms: C17_22  and  N2_23 
ROOT
HETATM    1  C10 UNL     1      28.280   7.093  48.182  1.00  0.00     0.019 A 
HETATM    2  C11 UNL     1      27.058   6.675  48.455  1.00  0.00     0.044 A 
HETATM    3  C18 UNL     1      26.929   5.237  48.644  1.00  0.00     0.154 A 
HETATM    4  C19 UNL     1      26.294   4.754  49.897  1.00  0.00     0.041 C 
HETATM    5  N3  UNL     1      28.276   4.777  48.453  1.00  0.00    -0.290 NA
HETATM    6  C20 UNL     1      29.002   5.793  48.202  1.00  0.00     0.123 A 
ENDROOT
BRANCH   1   7
HETATM    7  C9  UNL     1      29.191   8.193  47.885  1.00  0.00     0.214 C 
HETATM    8  C2  UNL     1      29.419   8.567  46.510  1.00  0.00     0.071 C 
HETATM    9  C1  UNL     1      28.901   8.161  45.376  1.00  0.00     0.049 C 
HETATM   10  O1  UNL     1      30.384   9.563  46.328  1.00  0.00    -0.343 OA
HETATM   11  C3  UNL     1      30.690  10.312  47.539  1.00  0.00     0.183 C 
HETATM   12  C6  UNL     1      29.273  10.527  48.094  1.00  0.00     0.178 C 
HETATM   13  O4  UNL     1      28.755   9.332  48.568  1.00  0.00    -0.364 OA
BRANCH  11  14
HETATM   14  C4  UNL     1      31.258  11.612  47.104  1.00  0.00     0.202 C 
BRANCH  14  15
HETATM   15  O2  UNL     1      31.086  11.904  45.773  1.00  0.00    -0.393 OA
HETATM   16  C5  UNL     1      30.304  13.006  45.547  1.00  0.00     0.201 C 
ENDBRANCH  14  15
ENDBRANCH  11  14
BRANCH  12  17
HETATM   17  C7  UNL     1      29.214  11.509  49.215  1.00  0.00     0.201 C 
BRANCH  17  18
HETATM   18  O3  UNL     1      27.977  12.141  49.190  1.00  0.00    -0.393 OA
HETATM   19  C8  UNL     1      27.911  13.311  48.495  1.00  0.00     0.201 C 
ENDBRANCH  17  18
ENDBRANCH  12  17
ENDBRANCH   1   7
BRANCH   2  20
HETATM   20  N1  UNL     1      25.897   7.450  48.576  1.00  0.00    -0.348 N 
HETATM   21  C12 UNL     1      24.924   7.529  47.505  1.00  0.00     0.152 C 
HETATM   22  C13 UNL     1      23.562   7.865  48.054  1.00  0.00    -0.005 C 
HETATM   23  C14 UNL     1      23.226   7.980  49.357  1.00  0.00    -0.082 C 
HETATM   24  C15 UNL     1      21.840   8.320  49.783  1.00  0.00     0.043 C 
HETATM   25  C16 UNL     1      24.294   7.755  50.404  1.00  0.00     0.090 C 
HETATM   26  C17 UNL     1      25.565   8.226  49.781  1.00  0.00     0.323 C 
BRANCH  26  27
HETATM   27  N2  UNL     1      26.670   8.404  50.664  1.00  0.00     0.101 N 
HETATM   28  H25 UNL     1      26.495   9.057  51.431  1.00  0.00     0.315 HD
HETATM   29  H26 UNL     1      27.066   7.490  50.994  1.00  0.00     0.315 HD
ENDBRANCH  26  27
ENDBRANCH   2  20
TORSDOF 7
ENDMDL
MODEL 7
REMARK VINA RESULT:      -6.1      3.032      5.791
REMARK  7 active torsions:
REMARK  status: ('A' for Active; 'I' for Inactive)
REMARK    1  A    between atoms: C3_4  and  C4_5 
REMARK    2  A    between atoms: C4_5  and  O2_6 
REMARK    3  A    between atoms: C6_8  and  C7_9 
REMARK    4  A    between atoms: C7_9  and  O3_10 
REMARK    5  A    between atoms: C9_13  and  C10_14 
REMARK    6  A    between atoms: C11_15  and  N1_16 
REMARK    7  A    between atoms: C17_22  and  N2_23 
ROOT
HETATM    1  C10 UNL     1      23.959   3.006  51.872  1.00  0.00     0.019 A 
HETATM    2  C11 UNL     1      23.087   2.015  51.827  1.00  0.00     0.044 A 
HETATM    3  C18 UNL     1      23.425   0.863  52.650  1.00  0.00     0.154 A 
HETATM    4  C19 UNL     1      22.410   0.379  53.620  1.00  0.00     0.041 C 
HETATM    5  N3  UNL     1      24.666   1.262  53.249  1.00  0.00    -0.290 NA
HETATM    6  C20 UNL     1      24.949   2.428  52.820  1.00  0.00     0.123 A 
ENDROOT
BRANCH   1   7
HETATM    7  C9  UNL     1      24.368   4.336  51.435  1.00  0.00     0.214 C 
HETATM    8  C2  UNL     1      25.284   4.464  50.328  1.00  0.00     0.071 C 
HETATM    9  C1  UNL     1      25.824   3.592  49.510  1.00  0.00     0.049 C 
HETATM   10  O1  UNL     1      25.691   5.773  50.054  1.00  0.00    -0.343 OA
HETATM   11  C3  UNL     1      24.836   6.791  50.651  1.00  0.00     0.183 C 
HETATM   12  C6  UNL     1      23.450   6.199  50.345  1.00  0.00     0.178 C 
HETATM   13  O4  UNL     1      23.223   5.077  51.126  1.00  0.00    -0.364 OA
BRANCH  11  14
HETATM   14  C4  UNL     1      25.034   8.031  49.862  1.00  0.00     0.202 C 
BRANCH  14  15
HETATM   15  O2  UNL     1      25.651   7.854  48.647  1.00  0.00    -0.393 OA
HETATM   16  C5  UNL     1      24.899   8.273  47.581  1.00  0.00     0.201 C 
ENDBRANCH  14  15
ENDBRANCH  11  14
BRANCH  12  17
HETATM   17  C7  UNL     1      22.329   7.148  50.598  1.00  0.00     0.201 C 
BRANCH  17  18
HETATM   18  O3  UNL     1      21.166   6.418  50.809  1.00  0.00    -0.393 OA
HETATM   19  C8  UNL     1      20.258   6.420  49.793  1.00  0.00     0.201 C 
ENDBRANCH  17  18
ENDBRANCH  12  17
ENDBRANCH   1   7
BRANCH   2  20
HETATM   20  N1  UNL     1      21.900   1.955  51.086  1.00  0.00    -0.348 N 
HETATM   21  C12 UNL     1      21.794   1.143  49.891  1.00  0.00     0.152 C 
HETATM   22  C13 UNL     1      20.360   0.752  49.644  1.00  0.00    -0.005 C 
HETATM   23  C14 UNL     1      19.307   1.007  50.451  1.00  0.00    -0.082 C 
HETATM   24  C15 UNL     1      17.926   0.571  50.101  1.00  0.00     0.043 C 
HETATM   25  C16 UNL     1      19.547   1.759  51.741  1.00  0.00     0.090 C 
HETATM   26  C17 UNL     1      20.678   2.688  51.454  1.00  0.00     0.323 C 
BRANCH  26  27
HETATM   27  N2  UNL     1      20.903   3.720  52.411  1.00  0.00     0.101 N 
HETATM   28  H25 UNL     1      20.229   3.734  53.181  1.00  0.00     0.315 HD
HETATM   29  H26 UNL     1      21.897   3.743  52.745  1.00  0.00     0.315 HD
ENDBRANCH  26  27
ENDBRANCH   2  20
TORSDOF 7
ENDMDL
MODEL 8
REMARK VINA RESULT:      -6.1      3.221      5.997
REMARK  7 active torsions:
REMARK  status: ('A' for Active; 'I' for Inactive)
REMARK    1  A    between atoms: C3_4  and  C4_5 
REMARK    2  A    between atoms: C4_5  and  O2_6 
REMARK    3  A    between atoms: C6_8  and  C7_9 
REMARK    4  A    between atoms: C7_9  and  O3_10 
REMARK    5  A    between atoms: C9_13  and  C10_14 
REMARK    6  A    between atoms: C11_15  and  N1_16 
REMARK    7  A    between atoms: C17_22  and  N2_23 
ROOT
HETATM    1  C10 UNL     1      22.621   0.832  52.272  1.00  0.00     0.019 A 
HETATM    2  C11 UNL     1      23.537   1.768  52.105  1.00  0.00     0.044 A 
HETATM    3  C18 UNL     1      24.858   1.434  52.621  1.00  0.00     0.154 A 
HETATM    4  C19 UNL     1      26.015   1.546  51.698  1.00  0.00     0.041 C 
HETATM    5  N3  UNL     1      24.657   0.117  53.155  1.00  0.00    -0.290 NA
HETATM    6  C20 UNL     1      23.439  -0.201  52.961  1.00  0.00     0.123 A 
ENDROOT
BRANCH   1   7
HETATM    7  C9  UNL     1      21.246   0.380  52.098  1.00  0.00     0.214 C 
HETATM    8  C2  UNL     1      20.410   0.198  53.259  1.00  0.00     0.071 C 
HETATM    9  C1  UNL     1      20.595   0.431  54.537  1.00  0.00     0.049 C 
HETATM   10  O1  UNL     1      19.145  -0.333  52.993  1.00  0.00    -0.343 OA
HETATM   11  C3  UNL     1      18.750  -0.236  51.594  1.00  0.00     0.183 C 
HETATM   12  C6  UNL     1      19.205   1.199  51.280  1.00  0.00     0.178 C 
HETATM   13  O4  UNL     1      20.589   1.266  51.238  1.00  0.00    -0.364 OA
BRANCH  11  14
HETATM   14  C4  UNL     1      17.269  -0.308  51.563  1.00  0.00     0.202 C 
BRANCH  14  15
HETATM   15  O2  UNL     1      16.670  -0.475  52.787  1.00  0.00    -0.393 OA
HETATM   16  C5  UNL     1      15.360  -0.078  52.820  1.00  0.00     0.201 C 
ENDBRANCH  14  15
ENDBRANCH  11  14
BRANCH  12  17
HETATM   17  C7  UNL     1      18.698   1.713  49.976  1.00  0.00     0.201 C 
BRANCH  17  18
HETATM   18  O3  UNL     1      19.781   1.966  49.144  1.00  0.00    -0.393 OA
HETATM   19  C8  UNL     1      19.577   2.870  48.146  1.00  0.00     0.201 C 
ENDBRANCH  17  18
ENDBRANCH  12  17
ENDBRANCH   1   7
BRANCH   2  20
HETATM   20  N1  UNL     1      23.378   3.021  51.499  1.00  0.00    -0.348 N 
HETATM   21  C12 UNL     1      23.401   4.245  52.274  1.00  0.00     0.152 C 
HETATM   22  C13 UNL     1      23.825   5.406  51.414  1.00  0.00    -0.005 C 
HETATM   23  C14 UNL     1      24.240   5.347  50.130  1.00  0.00    -0.082 C 
HETATM   24  C15 UNL     1      24.636   6.568  49.375  1.00  0.00     0.043 C 
HETATM   25  C16 UNL     1      24.297   3.998  49.448  1.00  0.00     0.090 C 
HETATM   26  C17 UNL     1      23.189   3.202  50.051  1.00  0.00     0.323 C 
BRANCH  26  27
HETATM   27  N2  UNL     1      22.836   2.000  49.371  1.00  0.00     0.101 N 
HETATM   28  H25 UNL     1      23.533   1.678  48.696  1.00  0.00     0.315 HD
HETATM   29  H26 UNL     1      22.534   1.243  50.032  1.00  0.00     0.315 HD
ENDBRANCH  26  27
ENDBRANCH   2  20
TORSDOF 7
ENDMDL
MODEL 9
REMARK VINA RESULT:      -6.0      2.149      3.812
REMARK  7 active torsions:
REMARK  status: ('A' for Active; 'I' for Inactive)
REMARK    1  A    between atoms: C3_4  and  C4_5 
REMARK    2  A    between atoms: C4_5  and  O2_6 
REMARK    3  A    between atoms: C6_8  and  C7_9 
REMARK    4  A    between atoms: C7_9  and  O3_10 
REMARK    5  A    between atoms: C9_13  and  C10_14 
REMARK    6  A    between atoms: C11_15  and  N1_16 
REMARK    7  A    between atoms: C17_22  and  N2_23 
ROOT
HETATM    1  C10 UNL     1      22.308   2.884  51.093  1.00  0.00     0.019 A 
HETATM    2  C11 UNL     1      21.876   3.943  50.432  1.00  0.00     0.044 A 
HETATM    3  C18 UNL     1      20.521   3.829  49.910  1.00  0.00     0.154 A 
HETATM    4  C19 UNL     1      19.550   4.898  50.257  1.00  0.00     0.041 C 
HETATM    5  N3  UNL     1      20.131   2.518  50.343  1.00  0.00    -0.290 NA
HETATM    6  C20 UNL     1      21.109   2.012  50.985  1.00  0.00     0.123 A 
ENDROOT
BRANCH   1   7
HETATM    7  C9  UNL     1      23.371   2.222  51.840  1.00  0.00     0.214 C 
HETATM    8  C2  UNL     1      24.075   2.954  52.864  1.00  0.00     0.071 C 
HETATM    9  C1  UNL     1      23.920   4.154  53.370  1.00  0.00     0.049 C 
HETATM   10  O1  UNL     1      25.141   2.264  53.448  1.00  0.00    -0.343 OA
HETATM   11  C3  UNL     1      25.106   0.826  53.218  1.00  0.00     0.183 C 
HETATM   12  C6  UNL     1      23.614   0.545  53.461  1.00  0.00     0.178 C 
HETATM   13  O4  UNL     1      22.853   1.064  52.427  1.00  0.00    -0.364 OA
BRANCH  11  14
HETATM   14  C4  UNL     1      25.914   0.201  54.295  1.00  0.00     0.202 C 
BRANCH  14  15
HETATM   15  O2  UNL     1      26.982   0.948  54.726  1.00  0.00    -0.393 OA
HETATM   16  C5  UNL     1      28.172   0.269  54.711  1.00  0.00     0.201 C 
ENDBRANCH  14  15
ENDBRANCH  11  14
BRANCH  12  17
HETATM   17  C7  UNL     1      23.290  -0.907  53.564  1.00  0.00     0.201 C 
BRANCH  17  18
HETATM   18  O3  UNL     1      22.457  -1.101  54.658  1.00  0.00    -0.393 OA
HETATM   19  C8  UNL     1      21.191  -1.525  54.385  1.00  0.00     0.201 C 
ENDBRANCH  17  18
ENDBRANCH  12  17
ENDBRANCH   1   7
BRANCH   2  20
HETATM   20  N1  UNL     1      22.568   5.134  50.182  1.00  0.00    -0.348 N 
HETATM   21  C12 UNL     1      22.530   6.242  51.115  1.00  0.00     0.152 C 
HETATM   22  C13 UNL     1      23.761   7.098  50.969  1.00  0.00    -0.005 C 
HETATM   23  C14 UNL     1      24.825   6.848  50.174  1.00  0.00    -0.082 C 
HETATM   24  C15 UNL     1      25.991   7.772  50.110  1.00  0.00     0.043 C 
HETATM   25  C16 UNL     1      24.819   5.594  49.328  1.00  0.00     0.090 C 
HETATM   26  C17 UNL     1      23.388   5.357  48.980  1.00  0.00     0.323 C 
BRANCH  26  27
HETATM   27  N2  UNL     1      23.141   4.412  47.942  1.00  0.00     0.101 N 
HETATM   28  H25 UNL     1      22.475   3.677  48.191  1.00  0.00     0.315 HD
HETATM   29  H26 UNL     1      22.908   4.876  47.030  1.00  0.00     0.315 HD
ENDBRANCH  26  27
ENDBRANCH   2  20
TORSDOF 7
ENDMDL
