MODEL 1
REMARK VINA RESULT:      -7.7      0.000      0.000
REMARK  7 active torsions:
REMARK  status: ('A' for Active; 'I' for Inactive)
REMARK    1  A    between atoms: C2_2  and  C3_3 
REMARK       I    between atoms: C3_3  and  N1_5 
REMARK    2  A    between atoms: N1_5  and  C4_6 
REMARK    3  A    between atoms: N1_5  and  C8_11 
REMARK    4  A    between atoms: C4_6  and  C5_7 
REMARK    5  A    between atoms: C5_7  and  N2_8 
REMARK    6  A    between atoms: C11_14  and  N3_15 
REMARK    7  A    between atoms: N3_15  and  C12_16 
ROOT
HETATM    1  C8  UNL     1      22.288   2.435  50.767  1.00  0.00     0.132 A 
HETATM    2  C9  UNL     1      23.430   2.414  51.437  1.00  0.00     0.062 A 
HETATM    3  C10 UNL     1      24.646   2.833  50.752  1.00  0.00     0.004 A 
HETATM    4  C11 UNL     1      25.860   2.878  51.291  1.00  0.00     0.136 C 
HETATM    5  N4  UNL     1      26.938   3.372  50.457  1.00  0.00    -0.229 NA
HETATM    6  C18 UNL     1      26.669   4.300  49.612  1.00  0.00     0.085 C 
HETATM    7  C19 UNL     1      25.457   4.492  49.134  1.00  0.00     0.022 C 
HETATM    8  C20 UNL     1      24.713   3.252  49.303  1.00  0.00     0.088 A 
HETATM    9  C21 UNL     1      23.342   3.206  48.776  1.00  0.00     0.105 A 
HETATM   10  N5  UNL     1      22.296   2.848  49.417  1.00  0.00    -0.246 NA
ENDROOT
BRANCH   1  11
HETATM   11  N1  UNL     1      21.257   1.991  51.645  1.00  0.00    -0.297 N 
HETATM   12  C3  UNL     1      20.214   2.934  51.872  1.00  0.00     0.248 C 
HETATM   13  O1  UNL     1      19.162   3.030  52.523  1.00  0.00    -0.268 OA
BRANCH  12  14
HETATM   14  C2  UNL     1      20.204   4.242  51.238  1.00  0.00     0.064 C 
HETATM   15  C1  UNL     1      19.207   4.485  50.427  1.00  0.00     0.017 C 
ENDBRANCH  12  14
BRANCH  11  16
HETATM   16  C4  UNL     1      21.252   0.695  52.282  1.00  0.00     0.164 C 
BRANCH  16  17
HETATM   17  C5  UNL     1      21.178   0.702  53.768  1.00  0.00     0.291 C 
BRANCH  17  18
HETATM   18  N2  UNL     1      21.969  -0.353  54.353  1.00  0.00     0.081 N 
HETATM   19  C6  UNL     1      21.265  -1.611  54.345  1.00  0.00     0.309 C 
HETATM   20  C7  UNL     1      23.168  -0.563  53.538  1.00  0.00     0.309 C 
ENDBRANCH  17  18
ENDBRANCH  16  17
ENDBRANCH  11  16
ENDBRANCH   1  11
BRANCH   4  21
HETATM   21  N3  UNL     1      26.024   2.485  52.644  1.00  0.00    -0.341 N 
HETATM   22  H15 UNL     1      25.444   2.711  53.476  1.00  0.00     0.167 HD
BRANCH  21  23
HETATM   23  C12 UNL     1      27.117   1.657  53.060  1.00  0.00     0.035 A 
HETATM   24  C13 UNL     1      28.228   2.185  53.676  1.00  0.00     0.029 A 
HETATM   25  C14 UNL     1      29.255   1.339  54.039  1.00  0.00     0.004 A 
HETATM   26  C15 UNL     1      29.186  -0.021  53.794  1.00  0.00     0.019 A 
HETATM   27  C16 UNL     1      28.067  -0.588  53.168  1.00  0.00     0.013 A 
HETATM   28 BR1  UNL     1      27.937  -2.468  52.806  1.00  0.00    -0.051 Br
HETATM   29  C17 UNL     1      27.035   0.286  52.808  1.00  0.00     0.048 A 
ENDBRANCH  21  23
ENDBRANCH   4  21
TORSDOF 7
ENDMDL
MODEL 2
REMARK VINA RESULT:      -7.7      3.425      7.268
REMARK  7 active torsions:
REMARK  status: ('A' for Active; 'I' for Inactive)
REMARK    1  A    between atoms: C2_2  and  C3_3 
REMARK       I    between atoms: C3_3  and  N1_5 
REMARK    2  A    between atoms: N1_5  and  C4_6 
REMARK    3  A    between atoms: N1_5  and  C8_11 
REMARK    4  A    between atoms: C4_6  and  C5_7 
REMARK    5  A    between atoms: C5_7  and  N2_8 
REMARK    6  A    between atoms: C11_14  and  N3_15 
REMARK    7  A    between atoms: N3_15  and  C12_16 
ROOT
HETATM    1  C8  UNL     1      23.009   1.958  52.057  1.00  0.00     0.132 A 
HETATM    2  C9  UNL     1      22.030   1.386  52.742  1.00  0.00     0.062 A 
HETATM    3  C10 UNL     1      22.325   0.175  53.496  1.00  0.00     0.004 A 
HETATM    4  C11 UNL     1      21.456  -0.504  54.238  1.00  0.00     0.136 C 
HETATM    5  N4  UNL     1      21.956  -1.661  54.955  1.00  0.00    -0.229 NA
HETATM    6  C18 UNL     1      23.159  -1.618  55.404  1.00  0.00     0.085 C 
HETATM    7  C19 UNL     1      24.082  -0.840  54.878  1.00  0.00     0.022 C 
HETATM    8  C20 UNL     1      23.668  -0.515  53.522  1.00  0.00     0.088 A 
HETATM    9  C21 UNL     1      24.585   0.296  52.707  1.00  0.00     0.105 A 
HETATM   10  N5  UNL     1      24.290   1.366  52.074  1.00  0.00    -0.246 NA
ENDROOT
BRANCH   1  11
HETATM   11  N1  UNL     1      22.477   3.115  51.416  1.00  0.00    -0.297 N 
HETATM   12  C3  UNL     1      22.093   2.924  50.057  1.00  0.00     0.248 C 
HETATM   13  O1  UNL     1      21.619   3.580  49.116  1.00  0.00    -0.268 OA
BRANCH  12  14
HETATM   14  C2  UNL     1      22.223   1.640  49.390  1.00  0.00     0.064 C 
HETATM   15  C1  UNL     1      21.108   1.028  49.088  1.00  0.00     0.017 C 
ENDBRANCH  12  14
BRANCH  11  16
HETATM   16  C4  UNL     1      22.340   4.397  52.065  1.00  0.00     0.164 C 
BRANCH  16  17
HETATM   17  C5  UNL     1      23.611   5.098  52.394  1.00  0.00     0.291 C 
BRANCH  17  18
HETATM   18  N2  UNL     1      23.904   6.153  51.456  1.00  0.00     0.081 N 
HETATM   19  C6  UNL     1      24.720   5.682  50.365  1.00  0.00     0.309 C 
HETATM   20  C7  UNL     1      22.654   6.616  50.846  1.00  0.00     0.309 C 
ENDBRANCH  17  18
ENDBRANCH  16  17
ENDBRANCH  11  16
ENDBRANCH   1  11
BRANCH   4  21
HETATM   21  N3  UNL     1      20.117  -0.042  54.321  1.00  0.00    -0.341 N 
HETATM   22  H15 UNL     1      19.704   0.689  54.931  1.00  0.00     0.167 HD
BRANCH  21  23
HETATM   23  C12 UNL     1      19.081  -0.590  53.496  1.00  0.00     0.035 A 
HETATM   24  C13 UNL     1      18.603   0.084  52.396  1.00  0.00     0.029 A 
HETATM   25  C14 UNL     1      17.593  -0.486  51.650  1.00  0.00     0.004 A 
HETATM   26  C15 UNL     1      17.057  -1.715  51.990  1.00  0.00     0.019 A 
HETATM   27  C16 UNL     1      17.521  -2.426  53.105  1.00  0.00     0.013 A 
HETATM   28 BR1  UNL     1      16.799  -4.130  53.611  1.00  0.00    -0.051 Br
HETATM   29  C17 UNL     1      18.547  -1.831  53.849  1.00  0.00     0.048 A 
ENDBRANCH  21  23
ENDBRANCH   4  21
TORSDOF 7
ENDMDL
MODEL 3
REMARK VINA RESULT:      -7.6      3.106      5.809
REMARK  7 active torsions:
REMARK  status: ('A' for Active; 'I' for Inactive)
REMARK    1  A    between atoms: C2_2  and  C3_3 
REMARK       I    between atoms: C3_3  and  N1_5 
REMARK    2  A    between atoms: N1_5  and  C4_6 
REMARK    3  A    between atoms: N1_5  and  C8_11 
REMARK    4  A    between atoms: C4_6  and  C5_7 
REMARK    5  A    between atoms: C5_7  and  N2_8 
REMARK    6  A    between atoms: C11_14  and  N3_15 
REMARK    7  A    between atoms: N3_15  and  C12_16 
ROOT
HETATM    1  C8  UNL     1      23.484   0.980  51.902  1.00  0.00     0.132 A 
HETATM    2  C9  UNL     1      23.949   2.187  51.616  1.00  0.00     0.062 A 
HETATM    3  C10 UNL     1      23.175   3.034  50.717  1.00  0.00     0.004 A 
HETATM    4  C11 UNL     1      23.502   4.268  50.347  1.00  0.00     0.136 C 
HETATM    5  N4  UNL     1      22.573   4.969  49.482  1.00  0.00    -0.229 NA
HETATM    6  C18 UNL     1      21.318   4.750  49.642  1.00  0.00     0.085 C 
HETATM    7  C19 UNL     1      20.858   3.638  50.177  1.00  0.00     0.022 C 
HETATM    8  C20 UNL     1      21.890   2.621  50.042  1.00  0.00     0.088 A 
HETATM    9  C21 UNL     1      21.571   1.265  50.512  1.00  0.00     0.105 A 
HETATM   10  N5  UNL     1      22.270   0.560  51.317  1.00  0.00    -0.246 NA
ENDROOT
BRANCH   1  11
HETATM   11  N1  UNL     1      24.406   0.356  52.792  1.00  0.00    -0.297 N 
HETATM   12  C3  UNL     1      23.810  -0.343  53.880  1.00  0.00     0.248 C 
HETATM   13  O1  UNL     1      24.156  -1.000  54.875  1.00  0.00    -0.268 OA
BRANCH  12  14
HETATM   14  C2  UNL     1      22.369  -0.421  54.051  1.00  0.00     0.064 C 
HETATM   15  C1  UNL     1      21.904  -1.538  54.549  1.00  0.00     0.017 C 
ENDBRANCH  12  14
BRANCH  11  16
HETATM   16  C4  UNL     1      25.840   0.425  52.635  1.00  0.00     0.164 C 
BRANCH  16  17
HETATM   17  C5  UNL     1      26.579   1.128  53.717  1.00  0.00     0.291 C 
BRANCH  17  18
HETATM   18  N2  UNL     1      28.008   1.054  53.532  1.00  0.00     0.081 N 
HETATM   19  C6  UNL     1      28.621   2.355  53.613  1.00  0.00     0.309 C 
HETATM   20  C7  UNL     1      28.593   0.270  54.622  1.00  0.00     0.309 C 
ENDBRANCH  17  18
ENDBRANCH  16  17
ENDBRANCH  11  16
ENDBRANCH   1  11
BRANCH   4  21
HETATM   21  N3  UNL     1      24.703   4.837  50.843  1.00  0.00    -0.341 N 
HETATM   22  H15 UNL     1      24.985   5.044  51.820  1.00  0.00     0.167 HD
BRANCH  21  23
HETATM   23  C12 UNL     1      25.765   5.236  49.966  1.00  0.00     0.035 A 
HETATM   24  C13 UNL     1      26.649   4.321  49.442  1.00  0.00     0.029 A 
HETATM   25  C14 UNL     1      27.660   4.767  48.618  1.00  0.00     0.004 A 
HETATM   26  C15 UNL     1      27.799   6.109  48.313  1.00  0.00     0.019 A 
HETATM   27  C16 UNL     1      26.915   7.065  48.832  1.00  0.00     0.013 A 
HETATM   28 BR1  UNL     1      27.078   8.936  48.438  1.00  0.00    -0.051 Br
HETATM   29  C17 UNL     1      25.895   6.594  49.666  1.00  0.00     0.048 A 
ENDBRANCH  21  23
ENDBRANCH   4  21
TORSDOF 7
ENDMDL
MODEL 4
REMARK VINA RESULT:      -7.6      3.055      7.531
REMARK  7 active torsions:
REMARK  status: ('A' for Active; 'I' for Inactive)
REMARK    1  A    between atoms: C2_2  and  C3_3 
REMARK       I    between atoms: C3_3  and  N1_5 
REMARK    2  A    between atoms: N1_5  and  C4_6 
REMARK    3  A    between atoms: N1_5  and  C8_11 
REMARK    4  A    between atoms: C4_6  and  C5_7 
REMARK    5  A    between atoms: C5_7  and  N2_8 
REMARK    6  A    between atoms: C11_14  and  N3_15 
REMARK    7  A    between atoms: N3_15  and  C12_16 
ROOT
HETATM    1  C8  UNL     1      25.471   1.112  53.004  1.00  0.00     0.132 A 
HETATM    2  C9  UNL     1      24.238   1.467  52.673  1.00  0.00     0.062 A 
HETATM    3  C10 UNL     1      23.133   0.615  53.092  1.00  0.00     0.004 A 
HETATM    4  C11 UNL     1      21.847   0.842  52.849  1.00  0.00     0.136 C 
HETATM    5  N4  UNL     1      20.891  -0.102  53.394  1.00  0.00    -0.229 NA
HETATM    6  C18 UNL     1      21.156  -0.640  54.530  1.00  0.00     0.085 C 
HETATM    7  C19 UNL     1      22.387  -0.758  54.986  1.00  0.00     0.022 C 
HETATM    8  C20 UNL     1      23.290  -0.684  53.847  1.00  0.00     0.088 A 
HETATM    9  C21 UNL     1      24.726  -0.863  54.106  1.00  0.00     0.105 A 
HETATM   10  N5  UNL     1      25.665  -0.079  53.735  1.00  0.00    -0.246 NA
ENDROOT
BRANCH   1  11
HETATM   11  N1  UNL     1      26.363   2.097  52.489  1.00  0.00    -0.297 N 
HETATM   12  C3  UNL     1      27.690   2.033  53.004  1.00  0.00     0.248 C 
HETATM   13  O1  UNL     1      28.769   2.635  52.891  1.00  0.00    -0.268 OA
BRANCH  12  14
HETATM   14  C2  UNL     1      28.096   1.025  53.969  1.00  0.00     0.064 C 
HETATM   15  C1  UNL     1      29.286   0.511  53.803  1.00  0.00     0.017 C 
ENDBRANCH  12  14
BRANCH  11  16
HETATM   16  C4  UNL     1      25.975   3.104  51.530  1.00  0.00     0.164 C 
BRANCH  16  17
HETATM   17  C5  UNL     1      26.544   2.956  50.164  1.00  0.00     0.291 C 
BRANCH  17  18
HETATM   18  N2  UNL     1      26.195   4.064  49.309  1.00  0.00     0.081 N 
HETATM   19  C6  UNL     1      25.517   5.104  50.041  1.00  0.00     0.309 C 
HETATM   20  C7  UNL     1      27.421   4.676  48.792  1.00  0.00     0.309 C 
ENDBRANCH  17  18
ENDBRANCH  16  17
ENDBRANCH  11  16
ENDBRANCH   1  11
BRANCH   4  21
HETATM   21  N3  UNL     1      21.482   2.000  52.114  1.00  0.00    -0.341 N 
HETATM   22  H15 UNL     1      21.107   2.908  52.450  1.00  0.00     0.167 HD
BRANCH  21  23
HETATM   23  C12 UNL     1      21.596   2.052  50.687  1.00  0.00     0.035 A 
HETATM   24  C13 UNL     1      21.418   0.932  49.907  1.00  0.00     0.029 A 
HETATM   25  C14 UNL     1      21.557   1.042  48.540  1.00  0.00     0.004 A 
HETATM   26  C15 UNL     1      21.871   2.251  47.945  1.00  0.00     0.019 A 
HETATM   27  C16 UNL     1      22.060   3.409  48.712  1.00  0.00     0.013 A 
HETATM   28 BR1  UNL     1      22.502   5.102  47.924  1.00  0.00    -0.051 Br
HETATM   29  C17 UNL     1      21.914   3.278  50.098  1.00  0.00     0.048 A 
ENDBRANCH  21  23
ENDBRANCH   4  21
TORSDOF 7
ENDMDL
MODEL 5
REMARK VINA RESULT:      -7.6      3.100      6.713
REMARK  7 active torsions:
REMARK  status: ('A' for Active; 'I' for Inactive)
REMARK    1  A    between atoms: C2_2  and  C3_3 
REMARK       I    between atoms: C3_3  and  N1_5 
REMARK    2  A    between atoms: N1_5  and  C4_6 
REMARK    3  A    between atoms: N1_5  and  C8_11 
REMARK    4  A    between atoms: C4_6  and  C5_7 
REMARK    5  A    between atoms: C5_7  and  N2_8 
REMARK    6  A    between atoms: C11_14  and  N3_15 
REMARK    7  A    between atoms: N3_15  and  C12_16 
ROOT
HETATM    1  C8  UNL     1      24.777   0.873  53.137  1.00  0.00     0.132 A 
HETATM    2  C9  UNL     1      23.997   1.900  52.834  1.00  0.00     0.062 A 
HETATM    3  C10 UNL     1      22.579   1.651  52.603  1.00  0.00     0.004 A 
HETATM    4  C11 UNL     1      21.672   2.575  52.304  1.00  0.00     0.136 C 
HETATM    5  N4  UNL     1      20.298   2.134  52.161  1.00  0.00    -0.229 NA
HETATM    6  C18 UNL     1      19.891   1.177  52.914  1.00  0.00     0.085 C 
HETATM    7  C19 UNL     1      20.713   0.292  53.439  1.00  0.00     0.022 C 
HETATM    8  C20 UNL     1      21.930   0.289  52.640  1.00  0.00     0.088 A 
HETATM    9  C21 UNL     1      22.976  -0.679  53.000  1.00  0.00     0.105 A 
HETATM   10  N5  UNL     1      24.209  -0.417  53.212  1.00  0.00    -0.246 NA
ENDROOT
BRANCH   1  11
HETATM   11  N1  UNL     1      26.101   1.368  53.316  1.00  0.00    -0.297 N 
HETATM   12  C3  UNL     1      26.649   2.040  52.186  1.00  0.00     0.248 C 
HETATM   13  O1  UNL     1      27.702   2.605  51.850  1.00  0.00    -0.268 OA
BRANCH  12  14
HETATM   14  C2  UNL     1      25.898   2.217  50.954  1.00  0.00     0.064 C 
HETATM   15  C1  UNL     1      26.453   2.972  50.041  1.00  0.00     0.017 C 
ENDBRANCH  12  14
BRANCH  11  16
HETATM   16  C4  UNL     1      26.859   1.202  54.534  1.00  0.00     0.164 C 
BRANCH  16  17
HETATM   17  C5  UNL     1      27.568  -0.097  54.686  1.00  0.00     0.291 C 
BRANCH  17  18
HETATM   18  N2  UNL     1      29.000   0.068  54.710  1.00  0.00     0.081 N 
HETATM   19  C6  UNL     1      29.625  -0.552  53.569  1.00  0.00     0.309 C 
HETATM   20  C7  UNL     1      29.321   1.494  54.614  1.00  0.00     0.309 C 
ENDBRANCH  17  18
ENDBRANCH  16  17
ENDBRANCH  11  16
ENDBRANCH   1  11
BRANCH   4  21
HETATM   21  N3  UNL     1      22.084   3.927  52.183  1.00  0.00    -0.341 N 
HETATM   22  H15 UNL     1      22.001   4.709  52.861  1.00  0.00     0.167 HD
BRANCH  21  23
HETATM   23  C12 UNL     1      22.718   4.417  50.995  1.00  0.00     0.035 A 
HETATM   24  C13 UNL     1      22.448   3.879  49.759  1.00  0.00     0.029 A 
HETATM   25  C14 UNL     1      23.103   4.382  48.654  1.00  0.00     0.004 A 
HETATM   26  C15 UNL     1      24.020   5.411  48.770  1.00  0.00     0.019 A 
HETATM   27  C16 UNL     1      24.317   5.980  50.016  1.00  0.00     0.013 A 
HETATM   28 BR1  UNL     1      25.587   7.404  50.218  1.00  0.00    -0.051 Br
HETATM   29  C17 UNL     1      23.643   5.457  51.125  1.00  0.00     0.048 A 
ENDBRANCH  21  23
ENDBRANCH   4  21
TORSDOF 7
ENDMDL
MODEL 6
REMARK VINA RESULT:      -7.6      2.357      4.953
REMARK  7 active torsions:
REMARK  status: ('A' for Active; 'I' for Inactive)
REMARK    1  A    between atoms: C2_2  and  C3_3 
REMARK       I    between atoms: C3_3  and  N1_5 
REMARK    2  A    between atoms: N1_5  and  C4_6 
REMARK    3  A    between atoms: N1_5  and  C8_11 
REMARK    4  A    between atoms: C4_6  and  C5_7 
REMARK    5  A    between atoms: C5_7  and  N2_8 
REMARK    6  A    between atoms: C11_14  and  N3_15 
REMARK    7  A    between atoms: N3_15  and  C12_16 
ROOT
HETATM    1  C8  UNL     1      21.527   1.966  51.691  1.00  0.00     0.132 A 
HETATM    2  C9  UNL     1      22.605   1.240  51.943  1.00  0.00     0.062 A 
HETATM    3  C10 UNL     1      22.612   0.394  53.130  1.00  0.00     0.004 A 
HETATM    4  C11 UNL     1      23.611  -0.397  53.509  1.00  0.00     0.136 C 
HETATM    5  N4  UNL     1      23.406  -1.201  54.697  1.00  0.00    -0.229 NA
HETATM    6  C18 UNL     1      22.223  -1.648  54.927  1.00  0.00     0.085 C 
HETATM    7  C19 UNL     1      21.143  -1.065  54.449  1.00  0.00     0.022 C 
HETATM    8  C20 UNL     1      21.487   0.313  54.133  1.00  0.00     0.088 A 
HETATM    9  C21 UNL     1      20.409   1.187  53.644  1.00  0.00     0.105 A 
HETATM   10  N5  UNL     1      20.436   1.901  52.585  1.00  0.00    -0.246 NA
ENDROOT
BRANCH   1  11
HETATM   11  N1  UNL     1      21.761   2.695  50.489  1.00  0.00    -0.297 N 
HETATM   12  C3  UNL     1      22.083   4.071  50.675  1.00  0.00     0.248 C 
HETATM   13  O1  UNL     1      22.344   5.073  49.991  1.00  0.00    -0.268 OA
BRANCH  12  14
HETATM   14  C2  UNL     1      22.177   4.670  51.995  1.00  0.00     0.064 C 
HETATM   15  C1  UNL     1      23.385   4.883  52.449  1.00  0.00     0.017 C 
ENDBRANCH  12  14
BRANCH  11  16
HETATM   16  C4  UNL     1      21.671   2.114  49.170  1.00  0.00     0.164 C 
BRANCH  16  17
HETATM   17  C5  UNL     1      20.349   2.228  48.499  1.00  0.00     0.291 C 
BRANCH  17  18
HETATM   18  N2  UNL     1      20.406   3.076  47.333  1.00  0.00     0.081 N 
HETATM   19  C6  UNL     1      19.883   4.390  47.608  1.00  0.00     0.309 C 
HETATM   20  C7  UNL     1      21.807   3.277  46.954  1.00  0.00     0.309 C 
ENDBRANCH  17  18
ENDBRANCH  16  17
ENDBRANCH  11  16
ENDBRANCH   1  11
BRANCH   4  21
HETATM   21  N3  UNL     1      24.788  -0.441  52.719  1.00  0.00    -0.341 N 
HETATM   22  H15 UNL     1      24.969  -0.936  51.824  1.00  0.00     0.167 HD
BRANCH  21  23
HETATM   23  C12 UNL     1      25.980   0.255  53.105  1.00  0.00     0.035 A 
HETATM   24  C13 UNL     1      25.973   1.605  53.370  1.00  0.00     0.029 A 
HETATM   25  C14 UNL     1      27.156   2.222  53.721  1.00  0.00     0.004 A 
HETATM   26  C15 UNL     1      28.338   1.509  53.810  1.00  0.00     0.019 A 
HETATM   27  C16 UNL     1      28.377   0.133  53.546  1.00  0.00     0.013 A 
HETATM   28 BR1  UNL     1      29.998  -0.887  53.654  1.00  0.00    -0.051 Br
HETATM   29  C17 UNL     1      27.168  -0.475  53.192  1.00  0.00     0.048 A 
ENDBRANCH  21  23
ENDBRANCH   4  21
TORSDOF 7
ENDMDL
MODEL 7
REMARK VINA RESULT:      -7.5      1.982      4.678
REMARK  7 active torsions:
REMARK  status: ('A' for Active; 'I' for Inactive)
REMARK    1  A    between atoms: C2_2  and  C3_3 
REMARK       I    between atoms: C3_3  and  N1_5 
REMARK    2  A    between atoms: N1_5  and  C4_6 
REMARK    3  A    between atoms: N1_5  and  C8_11 
REMARK    4  A    between atoms: C4_6  and  C5_7 
REMARK    5  A    between atoms: C5_7  and  N2_8 
REMARK    6  A    between atoms: C11_14  and  N3_15 
REMARK    7  A    between atoms: N3_15  and  C12_16 
ROOT
HETATM    1  C8  UNL     1      21.735   3.225  51.530  1.00  0.00     0.132 A 
HETATM    2  C9  UNL     1      22.885   2.570  51.589  1.00  0.00     0.062 A 
HETATM    3  C10 UNL     1      22.970   1.390  52.439  1.00  0.00     0.004 A 
HETATM    4  C11 UNL     1      24.046   0.625  52.592  1.00  0.00     0.136 C 
HETATM    5  N4  UNL     1      23.915  -0.539  53.447  1.00  0.00    -0.229 NA
HETATM    6  C18 UNL     1      22.788  -1.154  53.461  1.00  0.00     0.085 C 
HETATM    7  C19 UNL     1      21.656  -0.561  53.143  1.00  0.00     0.022 C 
HETATM    8  C20 UNL     1      21.846   0.873  53.305  1.00  0.00     0.088 A 
HETATM    9  C21 UNL     1      20.684   1.743  53.070  1.00  0.00     0.105 A 
HETATM   10  N5  UNL     1      20.646   2.762  52.299  1.00  0.00    -0.246 NA
ENDROOT
BRANCH   1  11
HETATM   11  N1  UNL     1      21.903   4.325  50.640  1.00  0.00    -0.297 N 
HETATM   12  C3  UNL     1      21.692   4.021  49.264  1.00  0.00     0.248 C 
HETATM   13  O1  UNL     1      21.727   4.591  48.162  1.00  0.00    -0.268 OA
BRANCH  12  14
HETATM   14  C2  UNL     1      21.318   2.691  48.815  1.00  0.00     0.064 C 
HETATM   15  C1  UNL     1      22.137   2.111  47.976  1.00  0.00     0.017 C 
ENDBRANCH  12  14
BRANCH  11  16
HETATM   16  C4  UNL     1      22.274   5.653  51.070  1.00  0.00     0.164 C 
BRANCH  16  17
HETATM   17  C5  UNL     1      23.708   5.849  51.412  1.00  0.00     0.291 C 
BRANCH  17  18
HETATM   18  N2  UNL     1      24.523   6.034  50.237  1.00  0.00     0.081 N 
HETATM   19  C6  UNL     1      25.406   7.164  50.378  1.00  0.00     0.309 C 
HETATM   20  C7  UNL     1      25.394   4.868  50.067  1.00  0.00     0.309 C 
ENDBRANCH  17  18
ENDBRANCH  16  17
ENDBRANCH  11  16
ENDBRANCH   1  11
BRANCH   4  21
HETATM   21  N3  UNL     1      25.232   0.960  51.890  1.00  0.00    -0.341 N 
HETATM   22  H15 UNL     1      25.369   1.168  50.882  1.00  0.00     0.167 HD
BRANCH  21  23
HETATM   23  C12 UNL     1      26.498   1.054  52.554  1.00  0.00     0.035 A 
HETATM   24  C13 UNL     1      26.970   2.251  53.042  1.00  0.00     0.029 A 
HETATM   25  C14 UNL     1      28.204   2.281  53.657  1.00  0.00     0.004 A 
HETATM   26  C15 UNL     1      28.968   1.136  53.789  1.00  0.00     0.019 A 
HETATM   27  C16 UNL     1      28.515  -0.098  53.301  1.00  0.00     0.013 A 
HETATM   28 BR1  UNL     1      29.549  -1.707  53.460  1.00  0.00    -0.051 Br
HETATM   29  C17 UNL     1      27.261  -0.109  52.681  1.00  0.00     0.048 A 
ENDBRANCH  21  23
ENDBRANCH   4  21
TORSDOF 7
ENDMDL
MODEL 8
REMARK VINA RESULT:      -7.5      2.761      6.248
REMARK  7 active torsions:
REMARK  status: ('A' for Active; 'I' for Inactive)
REMARK    1  A    between atoms: C2_2  and  C3_3 
REMARK       I    between atoms: C3_3  and  N1_5 
REMARK    2  A    between atoms: N1_5  and  C4_6 
REMARK    3  A    between atoms: N1_5  and  C8_11 
REMARK    4  A    between atoms: C4_6  and  C5_7 
REMARK    5  A    between atoms: C5_7  and  N2_8 
REMARK    6  A    between atoms: C11_14  and  N3_15 
REMARK    7  A    between atoms: N3_15  and  C12_16 
ROOT
HETATM    1  C8  UNL     1      23.752   3.739  51.685  1.00  0.00     0.132 A 
HETATM    2  C9  UNL     1      22.764   2.976  51.243  1.00  0.00     0.062 A 
HETATM    3  C10 UNL     1      21.515   3.615  50.850  1.00  0.00     0.004 A 
HETATM    4  C11 UNL     1      20.442   2.988  50.379  1.00  0.00     0.136 C 
HETATM    5  N4  UNL     1      19.309   3.808  49.996  1.00  0.00    -0.229 NA
HETATM    6  C18 UNL     1      19.546   4.965  49.490  1.00  0.00     0.085 C 
HETATM    7  C19 UNL     1      20.664   5.622  49.722  1.00  0.00     0.022 C 
HETATM    8  C20 UNL     1      21.240   5.096  50.951  1.00  0.00     0.088 A 
HETATM    9  C21 UNL     1      22.468   5.731  51.451  1.00  0.00     0.105 A 
HETATM   10  N5  UNL     1      23.553   5.134  51.768  1.00  0.00    -0.246 NA
ENDROOT
BRANCH   1  11
HETATM   11  N1  UNL     1      24.854   2.891  51.998  1.00  0.00    -0.297 N 
HETATM   12  C3  UNL     1      25.851   2.803  50.984  1.00  0.00     0.248 C 
HETATM   13  O1  UNL     1      26.930   2.226  50.777  1.00  0.00    -0.268 OA
BRANCH  12  14
HETATM   14  C2  UNL     1      25.750   3.541  49.735  1.00  0.00     0.064 C 
HETATM   15  C1  UNL     1      26.850   4.102  49.304  1.00  0.00     0.017 C 
ENDBRANCH  12  14
BRANCH  11  16
HETATM   16  C4  UNL     1      24.969   2.151  53.232  1.00  0.00     0.164 C 
BRANCH  16  17
HETATM   17  C5  UNL     1      24.647   0.701  53.155  1.00  0.00     0.291 C 
BRANCH  17  18
HETATM   18  N2  UNL     1      25.691  -0.115  53.725  1.00  0.00     0.081 N 
HETATM   19  C6  UNL     1      26.379  -0.878  52.715  1.00  0.00     0.309 C 
HETATM   20  C7  UNL     1      26.705   0.754  54.328  1.00  0.00     0.309 C 
ENDBRANCH  17  18
ENDBRANCH  16  17
ENDBRANCH  11  16
ENDBRANCH   1  11
BRANCH   4  21
HETATM   21  N3  UNL     1      20.477   1.577  50.240  1.00  0.00    -0.341 N 
HETATM   22  H15 UNL     1      20.860   0.995  49.469  1.00  0.00     0.167 HD
BRANCH  21  23
HETATM   23  C12 UNL     1      19.933   0.708  51.241  1.00  0.00     0.035 A 
HETATM   24  C13 UNL     1      18.606   0.344  51.236  1.00  0.00     0.029 A 
HETATM   25  C14 UNL     1      18.137  -0.481  52.237  1.00  0.00     0.004 A 
HETATM   26  C15 UNL     1      18.973  -0.945  53.236  1.00  0.00     0.019 A 
HETATM   27  C16 UNL     1      20.329  -0.591  53.269  1.00  0.00     0.013 A 
HETATM   28 BR1  UNL     1      21.518  -1.209  54.642  1.00  0.00    -0.051 Br
HETATM   29  C17 UNL     1      20.787   0.247  52.246  1.00  0.00     0.048 A 
ENDBRANCH  21  23
ENDBRANCH   4  21
TORSDOF 7
ENDMDL
MODEL 9
REMARK VINA RESULT:      -7.4      3.326      7.067
REMARK  7 active torsions:
REMARK  status: ('A' for Active; 'I' for Inactive)
REMARK    1  A    between atoms: C2_2  and  C3_3 
REMARK       I    between atoms: C3_3  and  N1_5 
REMARK    2  A    between atoms: N1_5  and  C4_6 
REMARK    3  A    between atoms: N1_5  and  C8_11 
REMARK    4  A    between atoms: C4_6  and  C5_7 
REMARK    5  A    between atoms: C5_7  and  N2_8 
REMARK    6  A    between atoms: C11_14  and  N3_15 
REMARK    7  A    between atoms: N3_15  and  C12_16 
ROOT
HETATM    1  C8  UNL     1      25.487   3.383  50.930  1.00  0.00     0.132 A 
HETATM    2  C9  UNL     1      24.421   2.886  51.540  1.00  0.00     0.062 A 
HETATM    3  C10 UNL     1      24.529   1.578  52.173  1.00  0.00     0.004 A 
HETATM    4  C11 UNL     1      23.556   0.955  52.831  1.00  0.00     0.136 C 
HETATM    5  N4  UNL     1      23.876  -0.323  53.436  1.00  0.00    -0.229 NA
HETATM    6  C18 UNL     1      25.060  -0.487  53.906  1.00  0.00     0.085 C 
HETATM    7  C19 UNL     1      26.094   0.205  53.474  1.00  0.00     0.022 C 
HETATM    8  C20 UNL     1      25.766   0.713  52.151  1.00  0.00     0.088 A 
HETATM    9  C21 UNL     1      26.807   1.467  51.436  1.00  0.00     0.105 A 
HETATM   10  N5  UNL     1      26.676   2.623  50.908  1.00  0.00    -0.246 NA
ENDROOT
BRANCH   1  11
HETATM   11  N1  UNL     1      25.133   4.657  50.400  1.00  0.00    -0.297 N 
HETATM   12  C3  UNL     1      26.019   5.160  49.404  1.00  0.00     0.248 C 
HETATM   13  O1  UNL     1      26.151   6.165  48.687  1.00  0.00    -0.268 OA
BRANCH  12  14
HETATM   14  C2  UNL     1      27.184   4.413  48.958  1.00  0.00     0.064 C 
HETATM   15  C1  UNL     1      28.171   5.118  48.470  1.00  0.00     0.017 C 
ENDBRANCH  12  14
BRANCH  11  16
HETATM   16  C4  UNL     1      23.979   5.411  50.831  1.00  0.00     0.164 C 
BRANCH  16  17
HETATM   17  C5  UNL     1      24.243   6.806  51.274  1.00  0.00     0.291 C 
BRANCH  17  18
HETATM   18  N2  UNL     1      23.208   7.714  50.845  1.00  0.00     0.081 N 
HETATM   19  C6  UNL     1      23.495   8.271  49.547  1.00  0.00     0.309 C 
HETATM   20  C7  UNL     1      21.953   6.974  50.690  1.00  0.00     0.309 C 
ENDBRANCH  17  18
ENDBRANCH  16  17
ENDBRANCH  11  16
ENDBRANCH   1  11
BRANCH   4  21
HETATM   21  N3  UNL     1      22.289   1.585  52.938  1.00  0.00    -0.341 N 
HETATM   22  H15 UNL     1      22.001   2.403  53.509  1.00  0.00     0.167 HD
BRANCH  21  23
HETATM   23  C12 UNL     1      21.151   1.115  52.204  1.00  0.00     0.035 A 
HETATM   24  C13 UNL     1      20.954   1.452  50.885  1.00  0.00     0.029 A 
HETATM   25  C14 UNL     1      19.831   0.982  50.237  1.00  0.00     0.004 A 
HETATM   26  C15 UNL     1      18.908   0.184  50.888  1.00  0.00     0.019 A 
HETATM   27  C16 UNL     1      19.080  -0.176  52.231  1.00  0.00     0.013 A 
HETATM   28 BR1  UNL     1      17.819  -1.276  53.170  1.00  0.00    -0.051 Br
HETATM   29  C17 UNL     1      20.226   0.309  52.872  1.00  0.00     0.048 A 
ENDBRANCH  21  23
ENDBRANCH   4  21
TORSDOF 7
ENDMDL
