MODEL 1
REMARK VINA RESULT:      -7.9      0.000      0.000
REMARK  4 active torsions:
REMARK  status: ('A' for Active; 'I' for Inactive)
REMARK    1  A    between atoms: N1_5  and  C5_6 
REMARK    2  A    between atoms: C8_9  and  C9_10 
REMARK    3  A    between atoms: C9_10  and  C10_11 
REMARK    4  A    between atoms: C10_11  and  C11_12 
ROOT
HETATM    1  C1  UNL     1      22.702   2.270  50.732  1.00  0.00     0.052 C 
HETATM    2  C2  UNL     1      23.306   1.349  51.730  1.00  0.00    -0.019 A 
HETATM    3  C3  UNL     1      22.534   0.569  52.518  1.00  0.00     0.041 A 
HETATM    4  C4  UNL     1      23.386  -0.157  53.316  1.00  0.00     0.027 A 
HETATM    5  N1  UNL     1      24.645   0.138  53.057  1.00  0.00    -0.345 N 
HETATM    6  C8  UNL     1      24.588   1.083  52.063  1.00  0.00     0.042 A 
HETATM    7  C15 UNL     1      22.773  -1.081  54.283  1.00  0.00     0.059 C 
HETATM    8  C16 UNL     1      21.533  -0.574  54.918  1.00  0.00     0.014 C 
HETATM    9  C17 UNL     1      20.502  -0.005  53.996  1.00  0.00     0.084 C 
HETATM   10  C18 UNL     1      21.077   0.367  52.671  1.00  0.00     0.162 C 
HETATM   11  O1  UNL     1      20.331   0.509  51.693  1.00  0.00    -0.292 OA
ENDROOT
BRANCH   6  12
HETATM   12  C9  UNL     1      25.759   1.689  51.499  1.00  0.00     0.031 C 
BRANCH  12  13
HETATM   13  C10 UNL     1      26.653   2.432  50.974  1.00  0.00     0.013 C 
BRANCH  13  14
HETATM   14  C11 UNL     1      26.590   3.576  50.079  1.00  0.00    -0.036 A 
HETATM   15  C12 UNL     1      25.579   4.462  50.095  1.00  0.00     0.011 A 
HETATM   16  C13 UNL     1      26.138   5.279  49.007  1.00  0.00     0.002 A 
HETATM   17  C14 UNL     1      27.142   4.382  49.006  1.00  0.00     0.011 A 
ENDBRANCH  13  14
ENDBRANCH  12  13
ENDBRANCH   6  12
BRANCH   5  18
HETATM   18  C5  UNL     1      25.757  -0.491  53.754  1.00  0.00     0.082 C 
HETATM   19  C6  UNL     1      26.462   0.566  54.603  1.00  0.00     0.032 C 
HETATM   20  C7  UNL     1      26.710  -1.177  52.843  1.00  0.00     0.032 C 
ENDBRANCH   5  18
TORSDOF 4
ENDMDL
MODEL 2
REMARK VINA RESULT:      -7.7      1.559      3.228
REMARK  4 active torsions:
REMARK  status: ('A' for Active; 'I' for Inactive)
REMARK    1  A    between atoms: N1_5  and  C5_6 
REMARK    2  A    between atoms: C8_9  and  C9_10 
REMARK    3  A    between atoms: C9_10  and  C10_11 
REMARK    4  A    between atoms: C10_11  and  C11_12 
ROOT
HETATM    1  C1  UNL     1      25.420  -0.691  53.911  1.00  0.00     0.052 C 
HETATM    2  C2  UNL     1      24.274   0.137  53.451  1.00  0.00    -0.019 A 
HETATM    3  C3  UNL     1      23.011  -0.139  53.840  1.00  0.00     0.041 A 
HETATM    4  C4  UNL     1      22.198   0.800  53.252  1.00  0.00     0.027 A 
HETATM    5  N1  UNL     1      22.900   1.643  52.520  1.00  0.00    -0.345 N 
HETATM    6  C8  UNL     1      24.201   1.222  52.648  1.00  0.00     0.042 A 
HETATM    7  C15 UNL     1      20.755   0.699  53.518  1.00  0.00     0.059 C 
HETATM    8  C16 UNL     1      20.237  -0.689  53.576  1.00  0.00     0.014 C 
HETATM    9  C17 UNL     1      21.006  -1.648  54.427  1.00  0.00     0.084 C 
HETATM   10  C18 UNL     1      22.392  -1.171  54.701  1.00  0.00     0.162 C 
HETATM   11  O1  UNL     1      23.030  -1.639  55.652  1.00  0.00    -0.292 OA
ENDROOT
BRANCH   6  12
HETATM   12  C9  UNL     1      25.296   1.868  51.984  1.00  0.00     0.031 C 
BRANCH  12  13
HETATM   13  C10 UNL     1      26.132   2.406  51.185  1.00  0.00     0.013 C 
BRANCH  13  14
HETATM   14  C11 UNL     1      26.087   3.606  50.365  1.00  0.00    -0.036 A 
HETATM   15  C12 UNL     1      26.890   3.796  49.303  1.00  0.00     0.011 A 
HETATM   16  C13 UNL     1      26.332   5.119  48.986  1.00  0.00     0.002 A 
HETATM   17  C14 UNL     1      25.537   4.911  50.052  1.00  0.00     0.011 A 
ENDBRANCH  13  14
ENDBRANCH  12  13
ENDBRANCH   6  12
BRANCH   5  18
HETATM   18  C5  UNL     1      22.291   2.745  51.790  1.00  0.00     0.082 C 
HETATM   19  C6  UNL     1      22.519   2.526  50.295  1.00  0.00     0.032 C 
HETATM   20  C7  UNL     1      22.781   4.079  52.222  1.00  0.00     0.032 C 
ENDBRANCH   5  18
TORSDOF 4
ENDMDL
MODEL 3
REMARK VINA RESULT:      -7.5      2.191      4.232
REMARK  4 active torsions:
REMARK  status: ('A' for Active; 'I' for Inactive)
REMARK    1  A    between atoms: N1_5  and  C5_6 
REMARK    2  A    between atoms: C8_9  and  C9_10 
REMARK    3  A    between atoms: C9_10  and  C10_11 
REMARK    4  A    between atoms: C10_11  and  C11_12 
ROOT
HETATM    1  C1  UNL     1      24.705  -1.226  54.432  1.00  0.00     0.052 C 
HETATM    2  C2  UNL     1      23.948  -0.142  53.753  1.00  0.00    -0.019 A 
HETATM    3  C3  UNL     1      22.598  -0.117  53.767  1.00  0.00     0.041 A 
HETATM    4  C4  UNL     1      22.213   0.998  53.063  1.00  0.00     0.027 A 
HETATM    5  N1  UNL     1      23.260   1.663  52.615  1.00  0.00    -0.345 N 
HETATM    6  C8  UNL     1      24.346   0.942  53.050  1.00  0.00     0.042 A 
HETATM    7  C15 UNL     1      20.767   1.238  52.926  1.00  0.00     0.059 C 
HETATM    8  C16 UNL     1      19.957   0.012  52.731  1.00  0.00     0.014 C 
HETATM    9  C17 UNL     1      20.224  -1.116  53.675  1.00  0.00     0.084 C 
HETATM   10  C18 UNL     1      21.550  -0.986  54.346  1.00  0.00     0.162 C 
HETATM   11  O1  UNL     1      21.777  -1.608  55.391  1.00  0.00    -0.292 OA
ENDROOT
BRANCH   6  12
HETATM   12  C9  UNL     1      25.698   1.321  52.757  1.00  0.00     0.031 C 
BRANCH  12  13
HETATM   13  C10 UNL     1      26.960   1.450  52.628  1.00  0.00     0.013 C 
BRANCH  13  14
HETATM   14  C11 UNL     1      28.090   0.690  53.136  1.00  0.00    -0.036 A 
HETATM   15  C12 UNL     1      28.121  -0.654  53.150  1.00  0.00     0.011 A 
HETATM   16  C13 UNL     1      29.461  -0.722  53.754  1.00  0.00     0.002 A 
HETATM   17  C14 UNL     1      29.411   0.623  53.732  1.00  0.00     0.011 A 
ENDBRANCH  13  14
ENDBRANCH  12  13
ENDBRANCH   6  12
BRANCH   5  18
HETATM   18  C5  UNL     1      23.140   2.889  51.842  1.00  0.00     0.082 C 
HETATM   19  C6  UNL     1      23.760   2.660  50.464  1.00  0.00     0.032 C 
HETATM   20  C7  UNL     1      23.740   4.070  52.515  1.00  0.00     0.032 C 
ENDBRANCH   5  18
TORSDOF 4
ENDMDL
MODEL 4
REMARK VINA RESULT:      -7.2      1.261      2.164
REMARK  4 active torsions:
REMARK  status: ('A' for Active; 'I' for Inactive)
REMARK    1  A    between atoms: N1_5  and  C5_6 
REMARK    2  A    between atoms: C8_9  and  C9_10 
REMARK    3  A    between atoms: C9_10  and  C10_11 
REMARK    4  A    between atoms: C10_11  and  C11_12 
ROOT
HETATM    1  C1  UNL     1      21.254   1.018  51.996  1.00  0.00     0.052 C 
HETATM    2  C2  UNL     1      22.693   0.837  52.323  1.00  0.00    -0.019 A 
HETATM    3  C3  UNL     1      23.092  -0.063  53.248  1.00  0.00     0.041 A 
HETATM    4  C4  UNL     1      24.462   0.012  53.312  1.00  0.00     0.027 A 
HETATM    5  N1  UNL     1      24.928   0.914  52.470  1.00  0.00    -0.345 N 
HETATM    6  C8  UNL     1      23.814   1.429  51.854  1.00  0.00     0.042 A 
HETATM    7  C15 UNL     1      25.138  -0.875  54.272  1.00  0.00     0.059 C 
HETATM    8  C16 UNL     1      24.418  -1.053  55.556  1.00  0.00     0.014 C 
HETATM    9  C17 UNL     1      22.962  -1.379  55.460  1.00  0.00     0.084 C 
HETATM   10  C18 UNL     1      22.393  -1.026  54.127  1.00  0.00     0.162 C 
HETATM   11  O1  UNL     1      21.332  -1.540  53.754  1.00  0.00    -0.292 OA
ENDROOT
BRANCH   6  12
HETATM   12  C9  UNL     1      23.882   2.465  50.865  1.00  0.00     0.031 C 
BRANCH  12  13
HETATM   13  C10 UNL     1      24.124   3.482  50.135  1.00  0.00     0.013 C 
BRANCH  13  14
HETATM   14  C11 UNL     1      25.355   4.064  49.623  1.00  0.00    -0.036 A 
HETATM   15  C12 UNL     1      26.497   3.366  49.497  1.00  0.00     0.011 A 
HETATM   16  C13 UNL     1      27.258   4.505  48.962  1.00  0.00     0.002 A 
HETATM   17  C14 UNL     1      26.105   5.188  49.096  1.00  0.00     0.011 A 
ENDBRANCH  13  14
ENDBRANCH  12  13
ENDBRANCH   6  12
BRANCH   5  18
HETATM   18  C5  UNL     1      26.349   1.194  52.327  1.00  0.00     0.082 C 
HETATM   19  C6  UNL     1      27.092  -0.129  52.146  1.00  0.00     0.032 C 
HETATM   20  C7  UNL     1      26.910   1.980  53.456  1.00  0.00     0.032 C 
ENDBRANCH   5  18
TORSDOF 4
ENDMDL
MODEL 5
REMARK VINA RESULT:      -7.2      2.347      6.389
REMARK  4 active torsions:
REMARK  status: ('A' for Active; 'I' for Inactive)
REMARK    1  A    between atoms: N1_5  and  C5_6 
REMARK    2  A    between atoms: C8_9  and  C9_10 
REMARK    3  A    between atoms: C9_10  and  C10_11 
REMARK    4  A    between atoms: C10_11  and  C11_12 
ROOT
HETATM    1  C1  UNL     1      22.690  -0.935  54.277  1.00  0.00     0.052 C 
HETATM    2  C2  UNL     1      23.179   0.035  53.263  1.00  0.00    -0.019 A 
HETATM    3  C3  UNL     1      24.491   0.342  53.164  1.00  0.00     0.041 A 
HETATM    4  C4  UNL     1      24.612   1.252  52.142  1.00  0.00     0.027 A 
HETATM    5  N1  UNL     1      23.437   1.522  51.606  1.00  0.00    -0.345 N 
HETATM    6  C8  UNL     1      22.543   0.757  52.313  1.00  0.00     0.042 A 
HETATM    7  C15 UNL     1      25.963   1.755  51.848  1.00  0.00     0.059 C 
HETATM    8  C16 UNL     1      26.810   1.977  53.044  1.00  0.00     0.014 C 
HETATM    9  C17 UNL     1      26.859   0.861  54.038  1.00  0.00     0.084 C 
HETATM   10  C18 UNL     1      25.712  -0.080  53.884  1.00  0.00     0.162 C 
HETATM   11  O1  UNL     1      25.781  -1.220  54.362  1.00  0.00    -0.292 OA
ENDROOT
BRANCH   6  12
HETATM   12  C9  UNL     1      21.133   0.770  52.053  1.00  0.00     0.031 C 
BRANCH  12  13
HETATM   13  C10 UNL     1      19.923   0.555  51.714  1.00  0.00     0.013 C 
BRANCH  13  14
HETATM   14  C11 UNL     1      18.872  -0.283  52.269  1.00  0.00    -0.036 A 
HETATM   15  C12 UNL     1      19.031  -1.008  53.390  1.00  0.00     0.011 A 
HETATM   16  C13 UNL     1      17.668  -1.561  53.352  1.00  0.00     0.002 A 
HETATM   17  C14 UNL     1      17.528  -0.828  52.231  1.00  0.00     0.011 A 
ENDBRANCH  13  14
ENDBRANCH  12  13
ENDBRANCH   6  12
BRANCH   5  18
HETATM   18  C5  UNL     1      23.275   2.451  50.498  1.00  0.00     0.082 C 
HETATM   19  C6  UNL     1      22.612   3.725  51.021  1.00  0.00     0.032 C 
HETATM   20  C7  UNL     1      22.519   1.878  49.355  1.00  0.00     0.032 C 
ENDBRANCH   5  18
TORSDOF 4
ENDMDL
MODEL 6
REMARK VINA RESULT:      -7.0      2.554      6.746
REMARK  4 active torsions:
REMARK  status: ('A' for Active; 'I' for Inactive)
REMARK    1  A    between atoms: N1_5  and  C5_6 
REMARK    2  A    between atoms: C8_9  and  C9_10 
REMARK    3  A    between atoms: C9_10  and  C10_11 
REMARK    4  A    between atoms: C10_11  and  C11_12 
ROOT
HETATM    1  C1  UNL     1      26.840   2.407  51.509  1.00  0.00     0.052 C 
HETATM    2  C2  UNL     1      25.521   2.762  50.921  1.00  0.00    -0.019 A 
HETATM    3  C3  UNL     1      25.415   3.709  49.963  1.00  0.00     0.041 A 
HETATM    4  C4  UNL     1      24.083   3.795  49.636  1.00  0.00     0.027 A 
HETATM    5  N1  UNL     1      23.364   2.947  50.345  1.00  0.00    -0.345 N 
HETATM    6  C8  UNL     1      24.271   2.304  51.150  1.00  0.00     0.042 A 
HETATM    7  C15 UNL     1      23.709   4.781  48.609  1.00  0.00     0.059 C 
HETATM    8  C16 UNL     1      24.464   6.055  48.676  1.00  0.00     0.014 C 
HETATM    9  C17 UNL     1      25.951   5.938  48.787  1.00  0.00     0.084 C 
HETATM   10  C18 UNL     1      26.375   4.590  49.264  1.00  0.00     0.162 C 
HETATM   11  O1  UNL     1      27.536   4.206  49.075  1.00  0.00    -0.292 OA
ENDROOT
BRANCH   6  12
HETATM   12  C9  UNL     1      23.890   1.300  52.101  1.00  0.00     0.031 C 
BRANCH  12  13
HETATM   13  C10 UNL     1      23.727   0.516  53.094  1.00  0.00     0.013 C 
BRANCH  13  14
HETATM   14  C11 UNL     1      22.594  -0.265  53.564  1.00  0.00    -0.036 A 
HETATM   15  C12 UNL     1      22.661  -1.081  54.629  1.00  0.00     0.011 A 
HETATM   16  C13 UNL     1      21.257  -1.508  54.523  1.00  0.00     0.002 A 
HETATM   17  C14 UNL     1      21.210  -0.685  53.458  1.00  0.00     0.011 A 
ENDBRANCH  13  14
ENDBRANCH  12  13
ENDBRANCH   6  12
BRANCH   5  18
HETATM   18  C5  UNL     1      21.921   2.825  50.195  1.00  0.00     0.082 C 
HETATM   19  C6  UNL     1      21.255   3.276  51.494  1.00  0.00     0.032 C 
HETATM   20  C7  UNL     1      21.484   1.458  49.809  1.00  0.00     0.032 C 
ENDBRANCH   5  18
TORSDOF 4
ENDMDL
MODEL 7
REMARK VINA RESULT:      -6.9      1.631      4.759
REMARK  4 active torsions:
REMARK  status: ('A' for Active; 'I' for Inactive)
REMARK    1  A    between atoms: N1_5  and  C5_6 
REMARK    2  A    between atoms: C8_9  and  C9_10 
REMARK    3  A    between atoms: C9_10  and  C10_11 
REMARK    4  A    between atoms: C10_11  and  C11_12 
ROOT
HETATM    1  C1  UNL     1      22.658  -0.284  52.998  1.00  0.00     0.052 C 
HETATM    2  C2  UNL     1      23.225   0.797  52.149  1.00  0.00    -0.019 A 
HETATM    3  C3  UNL     1      22.574   1.237  51.051  1.00  0.00     0.041 A 
HETATM    4  C4  UNL     1      23.350   2.227  50.498  1.00  0.00     0.027 A 
HETATM    5  N1  UNL     1      24.448   2.419  51.203  1.00  0.00    -0.345 N 
HETATM    6  C8  UNL     1      24.364   1.518  52.237  1.00  0.00     0.042 A 
HETATM    7  C15 UNL     1      22.851   2.860  49.267  1.00  0.00     0.059 C 
HETATM    8  C16 UNL     1      22.183   1.931  48.325  1.00  0.00     0.014 C 
HETATM    9  C17 UNL     1      21.153   1.019  48.911  1.00  0.00     0.084 C 
HETATM   10  C18 UNL     1      21.298   0.885  50.390  1.00  0.00     0.162 C 
HETATM   11  O1  UNL     1      20.347   0.476  51.069  1.00  0.00    -0.292 OA
ENDROOT
BRANCH   6  12
HETATM   12  C9  UNL     1      25.383   1.388  53.238  1.00  0.00     0.031 C 
BRANCH  12  13
HETATM   13  C10 UNL     1      26.225   1.027  54.125  1.00  0.00     0.013 C 
BRANCH  13  14
HETATM   14  C11 UNL     1      27.494   0.321  54.057  1.00  0.00    -0.036 A 
HETATM   15  C12 UNL     1      27.730  -0.678  53.189  1.00  0.00     0.011 A 
HETATM   16  C13 UNL     1      29.108  -0.899  53.655  1.00  0.00     0.002 A 
HETATM   17  C14 UNL     1      28.853   0.105  54.516  1.00  0.00     0.011 A 
ENDBRANCH  13  14
ENDBRANCH  12  13
ENDBRANCH   6  12
BRANCH   5  18
HETATM   18  C5  UNL     1      25.447   3.415  50.845  1.00  0.00     0.082 C 
HETATM   19  C6  UNL     1      24.751   4.765  50.677  1.00  0.00     0.032 C 
HETATM   20  C7  UNL     1      26.229   3.055  49.635  1.00  0.00     0.032 C 
ENDBRANCH   5  18
TORSDOF 4
ENDMDL
MODEL 8
REMARK VINA RESULT:      -6.9      2.055      4.304
REMARK  4 active torsions:
REMARK  status: ('A' for Active; 'I' for Inactive)
REMARK    1  A    between atoms: N1_5  and  C5_6 
REMARK    2  A    between atoms: C8_9  and  C9_10 
REMARK    3  A    between atoms: C9_10  and  C10_11 
REMARK    4  A    between atoms: C10_11  and  C11_12 
ROOT
HETATM    1  C1  UNL     1      21.418  -1.760  54.178  1.00  0.00     0.052 C 
HETATM    2  C2  UNL     1      21.914  -0.545  53.480  1.00  0.00    -0.019 A 
HETATM    3  C3  UNL     1      21.107   0.176  52.672  1.00  0.00     0.041 A 
HETATM    4  C4  UNL     1      21.857   1.222  52.191  1.00  0.00     0.027 A 
HETATM    5  N1  UNL     1      23.087   1.182  52.664  1.00  0.00    -0.345 N 
HETATM    6  C8  UNL     1      23.117   0.071  53.471  1.00  0.00     0.042 A 
HETATM    7  C15 UNL     1      21.192   2.153  51.265  1.00  0.00     0.059 C 
HETATM    8  C16 UNL     1      20.256   1.508  50.313  1.00  0.00     0.014 C 
HETATM    9  C17 UNL     1      19.273   0.545  50.899  1.00  0.00     0.084 C 
HETATM   10  C18 UNL     1      19.695   0.061  52.245  1.00  0.00     0.162 C 
HETATM   11  O1  UNL     1      18.861  -0.440  53.010  1.00  0.00    -0.292 OA
ENDROOT
BRANCH   6  12
HETATM   12  C9  UNL     1      24.295  -0.347  54.174  1.00  0.00     0.031 C 
BRANCH  12  13
HETATM   13  C10 UNL     1      25.464  -0.644  54.588  1.00  0.00     0.013 C 
BRANCH  13  14
HETATM   14  C11 UNL     1      26.795  -0.210  54.195  1.00  0.00    -0.036 A 
HETATM   15  C12 UNL     1      27.418  -0.667  53.095  1.00  0.00     0.011 A 
HETATM   16  C13 UNL     1      28.627   0.141  53.316  1.00  0.00     0.002 A 
HETATM   17  C14 UNL     1      27.987   0.587  54.413  1.00  0.00     0.011 A 
ENDBRANCH  13  14
ENDBRANCH  12  13
ENDBRANCH   6  12
BRANCH   5  18
HETATM   18  C5  UNL     1      24.093   2.176  52.321  1.00  0.00     0.082 C 
HETATM   19  C6  UNL     1      25.136   1.523  51.416  1.00  0.00     0.032 C 
HETATM   20  C7  UNL     1      24.726   2.806  53.509  1.00  0.00     0.032 C 
ENDBRANCH   5  18
TORSDOF 4
ENDMDL
MODEL 9
REMARK VINA RESULT:      -6.9      2.332      6.153
REMARK  4 active torsions:
REMARK  status: ('A' for Active; 'I' for Inactive)
REMARK    1  A    between atoms: N1_5  and  C5_6 
REMARK    2  A    between atoms: C8_9  and  C9_10 
REMARK    3  A    between atoms: C9_10  and  C10_11 
REMARK    4  A    between atoms: C10_11  and  C11_12 
ROOT
HETATM    1  C1  UNL     1      23.035   2.205  50.049  1.00  0.00     0.052 C 
HETATM    2  C2  UNL     1      23.090   1.437  51.321  1.00  0.00    -0.019 A 
HETATM    3  C3  UNL     1      24.266   1.188  51.937  1.00  0.00     0.041 A 
HETATM    4  C4  UNL     1      23.976   0.470  53.072  1.00  0.00     0.027 A 
HETATM    5  N1  UNL     1      22.678   0.265  53.187  1.00  0.00    -0.345 N 
HETATM    6  C8  UNL     1      22.128   0.873  52.085  1.00  0.00     0.042 A 
HETATM    7  C15 UNL     1      25.112   0.062  53.915  1.00  0.00     0.059 C 
HETATM    8  C16 UNL     1      26.324  -0.340  53.161  1.00  0.00     0.014 C 
HETATM    9  C17 UNL     1      26.769   0.590  52.078  1.00  0.00     0.084 C 
HETATM   10  C18 UNL     1      25.679   1.512  51.645  1.00  0.00     0.162 C 
HETATM   11  O1  UNL     1      25.958   2.554  51.039  1.00  0.00    -0.292 OA
ENDROOT
BRANCH   6  12
HETATM   12  C9  UNL     1      20.719   0.867  51.817  1.00  0.00     0.031 C 
BRANCH  12  13
HETATM   13  C10 UNL     1      19.533   0.737  51.369  1.00  0.00     0.013 C 
BRANCH  13  14
HETATM   14  C11 UNL     1      18.407  -0.092  51.771  1.00  0.00    -0.036 A 
HETATM   15  C12 UNL     1      18.414  -0.844  52.885  1.00  0.00     0.011 A 
HETATM   16  C13 UNL     1      17.056  -1.367  52.666  1.00  0.00     0.002 A 
HETATM   17  C14 UNL     1      17.069  -0.607  51.555  1.00  0.00     0.011 A 
ENDBRANCH  13  14
ENDBRANCH  12  13
ENDBRANCH   6  12
BRANCH   5  18
HETATM   18  C5  UNL     1      22.094  -0.464  54.302  1.00  0.00     0.082 C 
HETATM   19  C6  UNL     1      21.693  -1.857  53.819  1.00  0.00     0.032 C 
HETATM   20  C7  UNL     1      20.947   0.242  54.930  1.00  0.00     0.032 C 
ENDBRANCH   5  18
TORSDOF 4
ENDMDL
