MODEL 1
REMARK VINA RESULT:      -8.5      0.000      0.000
REMARK  6 active torsions:
REMARK  status: ('A' for Active; 'I' for Inactive)
REMARK    1  A    between atoms: O1_1  and  C1_2 
REMARK    2  A    between atoms: C15_20  and  C16_21 
REMARK    3  A    between atoms: C17_22  and  C18_23 
REMARK    4  A    between atoms: C18_23  and  C19_24 
REMARK    5  A    between atoms: C20_25  and  C21_26 
REMARK    6  A    between atoms: C21_26  and  N2_27 
ROOT
HETATM    1  C1  UNL     1      20.926   3.224  51.876  1.00  0.00     0.163 A 
HETATM    2  N1  UNL     1      21.988   3.794  52.601  1.00  0.00    -0.359 N 
HETATM    3  C2  UNL     1      22.625   4.490  51.500  1.00  0.00     0.022 A 
HETATM    4  C3  UNL     1      23.532   5.264  50.784  1.00  0.00     0.052 A 
HETATM    5  C4  UNL     1      23.505   5.502  49.428  1.00  0.00     0.069 A 
HETATM    6 CL1  UNL     1      24.514   6.402  48.365  1.00  0.00    -0.081 Cl
HETATM    7  C5  UNL     1      22.581   5.023  48.534  1.00  0.00     0.088 A 
HETATM    8  C6  UNL     1      21.901   4.367  49.511  1.00  0.00     0.077 A 
HETATM    9  C7  UNL     1      21.585   3.913  50.747  1.00  0.00     0.065 A 
HETATM   10  O2  UNL     1      21.800   4.678  47.437  1.00  0.00    -0.345 OA
HETATM   11  C8  UNL     1      21.996   3.291  46.919  1.00  0.00     0.214 C 
HETATM   12  C9  UNL     1      21.691   2.354  48.055  1.00  0.00    -0.031 A 
HETATM   13  C10 UNL     1      20.336   2.147  48.171  1.00  0.00     0.010 A 
HETATM   14  C11 UNL     1      19.912   1.658  49.420  1.00  0.00     0.012 A 
HETATM   15  C12 UNL     1      21.120   1.573  50.081  1.00  0.00     0.001 A 
HETATM   16  C13 UNL     1      22.471   1.707  50.125  1.00  0.00     0.124 A 
HETATM   17  F1  UNL     1      23.399   1.462  51.059  1.00  0.00    -0.205 F 
HETATM   18  C14 UNL     1      22.803   2.199  48.834  1.00  0.00     0.052 A 
HETATM   19  C15 UNL     1      20.838   1.731  51.574  1.00  0.00     0.157 C 
HETATM   20  H2  UNL     1      22.433   3.886  53.543  1.00  0.00     0.162 HD
ENDROOT
BRANCH  19  21
HETATM   21  C16 UNL     1      21.616   0.880  52.400  1.00  0.00    -0.092 C 
HETATM   22  C17 UNL     1      22.289   0.176  53.102  1.00  0.00    -0.102 C 
BRANCH  22  23
HETATM   23  C18 UNL     1      23.141  -0.681  53.985  1.00  0.00     0.120 C 
BRANCH  23  24
HETATM   24  C19 UNL     1      24.526  -0.715  53.455  1.00  0.00    -0.017 C 
HETATM   25  C20 UNL     1      25.850  -0.778  53.719  1.00  0.00    -0.000 C 
BRANCH  25  26
HETATM   26  C21 UNL     1      26.938  -0.778  52.674  1.00  0.00     0.299 C 
BRANCH  26  27
HETATM   27  N2  UNL     1      27.965   0.149  52.995  1.00  0.00     0.091 N 
HETATM   28  C22 UNL     1      28.363   0.184  54.390  1.00  0.00     0.273 C 
HETATM   29  C23 UNL     1      29.270   1.423  54.423  1.00  0.00     0.032 C 
HETATM   30  C24 UNL     1      28.412   2.402  53.636  1.00  0.00     0.032 C 
HETATM   31  C25 UNL     1      27.595   1.524  52.691  1.00  0.00     0.273 C 
ENDBRANCH  26  27
ENDBRANCH  25  26
ENDBRANCH  23  24
ENDBRANCH  22  23
ENDBRANCH  19  21
BRANCH   1  32
HETATM   32  O1  UNL     1      19.709   3.843  52.139  1.00  0.00    -0.368 OA
HETATM   33  H1  UNL     1      19.896   4.839  52.094  1.00  0.00     0.212 HD
ENDBRANCH   1  32
TORSDOF 6
ENDMDL
MODEL 2
REMARK VINA RESULT:      -8.5      4.216      6.189
REMARK  6 active torsions:
REMARK  status: ('A' for Active; 'I' for Inactive)
REMARK    1  A    between atoms: O1_1  and  C1_2 
REMARK    2  A    between atoms: C15_20  and  C16_21 
REMARK    3  A    between atoms: C17_22  and  C18_23 
REMARK    4  A    between atoms: C18_23  and  C19_24 
REMARK    5  A    between atoms: C20_25  and  C21_26 
REMARK    6  A    between atoms: C21_26  and  N2_27 
ROOT
HETATM    1  C1  UNL     1      23.908   4.120  52.482  1.00  0.00     0.163 A 
HETATM    2  N1  UNL     1      23.530   5.231  51.707  1.00  0.00    -0.359 N 
HETATM    3  C2  UNL     1      22.146   4.859  51.493  1.00  0.00     0.022 A 
HETATM    4  C3  UNL     1      20.831   4.894  51.041  1.00  0.00     0.052 A 
HETATM    5  C4  UNL     1      19.872   3.930  51.257  1.00  0.00     0.069 A 
HETATM    6 CL1  UNL     1      18.224   3.775  50.787  1.00  0.00    -0.081 Cl
HETATM    7  C5  UNL     1      20.033   2.760  51.956  1.00  0.00     0.088 A 
HETATM    8  C6  UNL     1      21.333   3.046  52.233  1.00  0.00     0.077 A 
HETATM    9  C7  UNL     1      22.503   3.726  52.248  1.00  0.00     0.065 A 
HETATM   10  O2  UNL     1      19.925   1.531  52.594  1.00  0.00    -0.345 OA
HETATM   11  C8  UNL     1      20.542   0.375  51.874  1.00  0.00     0.214 C 
HETATM   12  C9  UNL     1      21.996   0.706  51.685  1.00  0.00    -0.031 A 
HETATM   13  C10 UNL     1      22.718   0.418  52.820  1.00  0.00     0.010 A 
HETATM   14  C11 UNL     1      23.962   1.067  52.917  1.00  0.00     0.012 A 
HETATM   15  C12 UNL     1      23.962   1.789  51.741  1.00  0.00     0.001 A 
HETATM   16  C13 UNL     1      23.389   2.165  50.569  1.00  0.00     0.124 A 
HETATM   17  F1  UNL     1      23.768   2.962  49.562  1.00  0.00    -0.205 F 
HETATM   18  C14 UNL     1      22.152   1.466  50.560  1.00  0.00     0.052 A 
HETATM   19  C15 UNL     1      24.834   3.024  51.962  1.00  0.00     0.157 C 
HETATM   20  H2  UNL     1      23.854   6.129  51.278  1.00  0.00     0.162 HD
ENDROOT
BRANCH  19  21
HETATM   21  C16 UNL     1      25.640   3.367  50.846  1.00  0.00    -0.092 C 
HETATM   22  C17 UNL     1      26.337   3.667  49.915  1.00  0.00    -0.102 C 
BRANCH  22  23
HETATM   23  C18 UNL     1      27.223   4.047  48.771  1.00  0.00     0.120 C 
BRANCH  23  24
HETATM   24  C19 UNL     1      27.391   5.520  48.743  1.00  0.00    -0.017 C 
HETATM   25  C20 UNL     1      28.025   6.589  48.211  1.00  0.00    -0.000 C 
BRANCH  25  26
HETATM   26  C21 UNL     1      27.770   8.024  48.602  1.00  0.00     0.299 C 
BRANCH  26  27
HETATM   27  N2  UNL     1      28.933   8.626  49.152  1.00  0.00     0.091 N 
HETATM   28  C22 UNL     1      29.101  10.039  48.866  1.00  0.00     0.273 C 
HETATM   29  C23 UNL     1      30.528  10.292  49.375  1.00  0.00     0.032 C 
HETATM   30  C24 UNL     1      31.241   9.091  48.772  1.00  0.00     0.032 C 
HETATM   31  C25 UNL     1      30.163   8.014  48.673  1.00  0.00     0.273 C 
ENDBRANCH  26  27
ENDBRANCH  25  26
ENDBRANCH  23  24
ENDBRANCH  22  23
ENDBRANCH  19  21
BRANCH   1  32
HETATM   32  O1  UNL     1      24.073   4.439  53.825  1.00  0.00    -0.368 OA
HETATM   33  H1  UNL     1      23.176   4.249  54.261  1.00  0.00     0.212 HD
ENDBRANCH   1  32
TORSDOF 6
ENDMDL
MODEL 3
REMARK VINA RESULT:      -8.4      4.362      6.041
REMARK  6 active torsions:
REMARK  status: ('A' for Active; 'I' for Inactive)
REMARK    1  A    between atoms: O1_1  and  C1_2 
REMARK    2  A    between atoms: C15_20  and  C16_21 
REMARK    3  A    between atoms: C17_22  and  C18_23 
REMARK    4  A    between atoms: C18_23  and  C19_24 
REMARK    5  A    between atoms: C20_25  and  C21_26 
REMARK    6  A    between atoms: C21_26  and  N2_27 
ROOT
HETATM    1  C1  UNL     1      25.021   7.732  50.338  1.00  0.00     0.163 A 
HETATM    2  N1  UNL     1      26.300   7.735  50.923  1.00  0.00    -0.359 N 
HETATM    3  C2  UNL     1      26.854   8.850  50.179  1.00  0.00     0.022 A 
HETATM    4  C3  UNL     1      27.755   9.803  49.716  1.00  0.00     0.052 A 
HETATM    5  C4  UNL     1      27.523  10.725  48.722  1.00  0.00     0.069 A 
HETATM    6 CL1  UNL     1      28.485  11.959  48.006  1.00  0.00    -0.081 Cl
HETATM    7  C5  UNL     1      26.364  10.878  48.003  1.00  0.00     0.088 A 
HETATM    8  C6  UNL     1      25.755   9.865  48.676  1.00  0.00     0.077 A 
HETATM    9  C7  UNL     1      25.588   8.855  49.562  1.00  0.00     0.065 A 
HETATM   10  O2  UNL     1      25.333  11.238  47.145  1.00  0.00    -0.345 OA
HETATM   11  C8  UNL     1      25.117  10.326  45.980  1.00  0.00     0.214 C 
HETATM   12  C9  UNL     1      24.835   8.961  46.543  1.00  0.00    -0.031 A 
HETATM   13  C10 UNL     1      23.515   8.844  46.913  1.00  0.00     0.010 A 
HETATM   14  C11 UNL     1      23.239   7.807  47.821  1.00  0.00     0.012 A 
HETATM   15  C12 UNL     1      24.502   7.277  47.991  1.00  0.00     0.001 A 
HETATM   16  C13 UNL     1      25.833   7.248  47.719  1.00  0.00     0.124 A 
HETATM   17  F1  UNL     1      26.845   6.464  48.113  1.00  0.00    -0.205 F 
HETATM   18  C14 UNL     1      26.013   8.319  46.803  1.00  0.00     0.052 A 
HETATM   19  C15 UNL     1      24.551   6.642  49.380  1.00  0.00     0.157 C 
HETATM   20  H2  UNL     1      26.925   7.273  51.623  1.00  0.00     0.162 HD
ENDROOT
BRANCH  19  21
HETATM   21  C16 UNL     1      25.266   5.418  49.429  1.00  0.00    -0.092 C 
HETATM   22  C17 UNL     1      25.855   4.372  49.459  1.00  0.00    -0.102 C 
BRANCH  22  23
HETATM   23  C18 UNL     1      26.574   3.061  49.478  1.00  0.00     0.120 C 
BRANCH  23  24
HETATM   24  C19 UNL     1      26.598   2.528  50.862  1.00  0.00    -0.017 C 
HETATM   25  C20 UNL     1      26.573   1.447  51.672  1.00  0.00    -0.000 C 
BRANCH  25  26
HETATM   26  C21 UNL     1      26.631   1.497  53.178  1.00  0.00     0.299 C 
BRANCH  26  27
HETATM   27  N2  UNL     1      27.581   0.573  53.692  1.00  0.00     0.091 N 
HETATM   28  C22 UNL     1      28.971   0.965  53.556  1.00  0.00     0.273 C 
HETATM   29  C23 UNL     1      29.698  -0.325  53.965  1.00  0.00     0.032 C 
HETATM   30  C24 UNL     1      28.898  -1.345  53.169  1.00  0.00     0.032 C 
HETATM   31  C25 UNL     1      27.507  -0.727  53.042  1.00  0.00     0.273 C 
ENDBRANCH  26  27
ENDBRANCH  25  26
ENDBRANCH  23  24
ENDBRANCH  22  23
ENDBRANCH  19  21
BRANCH   1  32
HETATM   32  O1  UNL     1      24.043   8.222  51.196  1.00  0.00    -0.368 OA
HETATM   33  H1  UNL     1      24.546   8.683  51.947  1.00  0.00     0.212 HD
ENDBRANCH   1  32
TORSDOF 6
ENDMDL
MODEL 4
REMARK VINA RESULT:      -8.2      9.307     11.478
REMARK  6 active torsions:
REMARK  status: ('A' for Active; 'I' for Inactive)
REMARK    1  A    between atoms: O1_1  and  C1_2 
REMARK    2  A    between atoms: C15_20  and  C16_21 
REMARK    3  A    between atoms: C17_22  and  C18_23 
REMARK    4  A    between atoms: C18_23  and  C19_24 
REMARK    5  A    between atoms: C20_25  and  C21_26 
REMARK    6  A    between atoms: C21_26  and  N2_27 
ROOT
HETATM    1  C1  UNL     1      31.637   6.148  49.227  1.00  0.00     0.163 A 
HETATM    2  N1  UNL     1      32.742   7.011  49.111  1.00  0.00    -0.359 N 
HETATM    3  C2  UNL     1      32.010   8.260  49.053  1.00  0.00     0.022 A 
HETATM    4  C3  UNL     1      31.738   9.621  48.949  1.00  0.00     0.052 A 
HETATM    5  C4  UNL     1      30.490  10.200  48.921  1.00  0.00     0.069 A 
HETATM    6 CL1  UNL     1      29.944  11.827  48.789  1.00  0.00    -0.081 Cl
HETATM    7  C5  UNL     1      29.284   9.548  48.991  1.00  0.00     0.088 A 
HETATM    8  C6  UNL     1      29.891   8.335  49.085  1.00  0.00     0.077 A 
HETATM    9  C7  UNL     1      30.885   7.418  49.146  1.00  0.00     0.065 A 
HETATM   10  O2  UNL     1      27.955   9.147  49.039  1.00  0.00    -0.345 OA
HETATM   11  C8  UNL     1      27.415   8.557  47.777  1.00  0.00     0.214 C 
HETATM   12  C9  UNL     1      28.276   7.368  47.449  1.00  0.00    -0.031 A 
HETATM   13  C10 UNL     1      27.883   6.263  48.166  1.00  0.00     0.010 A 
HETATM   14  C11 UNL     1      28.847   5.245  48.271  1.00  0.00     0.012 A 
HETATM   15  C12 UNL     1      29.884   5.805  47.555  1.00  0.00     0.001 A 
HETATM   16  C13 UNL     1      30.419   6.809  46.812  1.00  0.00     0.124 A 
HETATM   17  F1  UNL     1      31.596   6.984  46.196  1.00  0.00    -0.205 F 
HETATM   18  C14 UNL     1      29.382   7.779  46.760  1.00  0.00     0.052 A 
HETATM   19  C15 UNL     1      31.187   5.222  48.101  1.00  0.00     0.157 C 
HETATM   20  H2  UNL     1      33.785   7.067  49.057  1.00  0.00     0.162 HD
ENDROOT
BRANCH  19  21
HETATM   21  C16 UNL     1      32.154   4.939  47.103  1.00  0.00    -0.092 C 
HETATM   22  C17 UNL     1      32.983   4.686  46.272  1.00  0.00    -0.102 C 
BRANCH  22  23
HETATM   23  C18 UNL     1      34.025   4.352  45.252  1.00  0.00     0.120 C 
BRANCH  23  24
HETATM   24  C19 UNL     1      33.499   4.635  43.894  1.00  0.00    -0.017 C 
HETATM   25  C20 UNL     1      33.159   5.560  42.969  1.00  0.00    -0.000 C 
BRANCH  25  26
HETATM   26  C21 UNL     1      32.611   5.246  41.599  1.00  0.00     0.299 C 
BRANCH  26  27
HETATM   27  N2  UNL     1      32.960   3.931  41.189  1.00  0.00     0.091 N 
HETATM   28  C22 UNL     1      34.238   3.806  40.513  1.00  0.00     0.273 C 
HETATM   29  C23 UNL     1      34.179   2.358  40.004  1.00  0.00     0.032 C 
HETATM   30  C24 UNL     1      32.772   2.337  39.426  1.00  0.00     0.032 C 
HETATM   31  C25 UNL     1      32.001   3.362  40.254  1.00  0.00     0.273 C 
ENDBRANCH  26  27
ENDBRANCH  25  26
ENDBRANCH  23  24
ENDBRANCH  22  23
ENDBRANCH  19  21
BRANCH   1  32
HETATM   32  O1  UNL     1      31.504   5.622  50.507  1.00  0.00    -0.368 OA
HETATM   33  H1  UNL     1      32.389   5.807  50.969  1.00  0.00     0.212 HD
ENDBRANCH   1  32
TORSDOF 6
ENDMDL
MODEL 5
REMARK VINA RESULT:      -8.1      3.293      6.076
REMARK  6 active torsions:
REMARK  status: ('A' for Active; 'I' for Inactive)
REMARK    1  A    between atoms: O1_1  and  C1_2 
REMARK    2  A    between atoms: C15_20  and  C16_21 
REMARK    3  A    between atoms: C17_22  and  C18_23 
REMARK    4  A    between atoms: C18_23  and  C19_24 
REMARK    5  A    between atoms: C20_25  and  C21_26 
REMARK    6  A    between atoms: C21_26  and  N2_27 
ROOT
HETATM    1  C1  UNL     1      21.604   1.703  49.755  1.00  0.00     0.163 A 
HETATM    2  N1  UNL     1      22.837   2.377  49.816  1.00  0.00    -0.359 N 
HETATM    3  C2  UNL     1      23.386   1.678  50.961  1.00  0.00     0.022 A 
HETATM    4  C3  UNL     1      24.257   1.307  51.980  1.00  0.00     0.052 A 
HETATM    5  C4  UNL     1      24.016   0.361  52.951  1.00  0.00     0.069 A 
HETATM    6 CL1  UNL     1      24.934  -0.230  54.281  1.00  0.00    -0.081 Cl
HETATM    7  C5  UNL     1      22.875  -0.389  53.095  1.00  0.00     0.088 A 
HETATM    8  C6  UNL     1      22.298   0.191  52.009  1.00  0.00     0.077 A 
HETATM    9  C7  UNL     1      22.151   1.003  50.936  1.00  0.00     0.065 A 
HETATM   10  O2  UNL     1      21.855  -1.257  53.464  1.00  0.00    -0.345 OA
HETATM   11  C8  UNL     1      20.698  -0.627  54.168  1.00  0.00     0.214 C 
HETATM   12  C9  UNL     1      20.142   0.420  53.243  1.00  0.00    -0.031 A 
HETATM   13  C10 UNL     1      19.303  -0.143  52.310  1.00  0.00     0.010 A 
HETATM   14  C11 UNL     1      19.075   0.638  51.163  1.00  0.00     0.012 A 
HETATM   15  C12 UNL     1      19.845   1.745  51.454  1.00  0.00     0.001 A 
HETATM   16  C13 UNL     1      20.674   2.442  52.273  1.00  0.00     0.124 A 
HETATM   17  F1  UNL     1      21.254   3.648  52.201  1.00  0.00    -0.205 F 
HETATM   18  C14 UNL     1      20.843   1.584  53.393  1.00  0.00     0.052 A 
HETATM   19  C15 UNL     1      20.280   2.364  50.127  1.00  0.00     0.157 C 
HETATM   20  H2  UNL     1      23.433   3.118  49.381  1.00  0.00     0.162 HD
ENDROOT
BRANCH  19  21
HETATM   21  C16 UNL     1      20.267   3.782  50.121  1.00  0.00    -0.092 C 
HETATM   22  C17 UNL     1      20.278   4.983  50.117  1.00  0.00    -0.102 C 
BRANCH  22  23
HETATM   23  C18 UNL     1      20.316   6.478  50.106  1.00  0.00     0.120 C 
BRANCH  23  24
HETATM   24  C19 UNL     1      21.715   6.939  50.284  1.00  0.00    -0.017 C 
HETATM   25  C20 UNL     1      22.947   6.690  50.782  1.00  0.00    -0.000 C 
BRANCH  25  26
HETATM   26  C21 UNL     1      24.130   7.616  50.655  1.00  0.00     0.299 C 
BRANCH  26  27
HETATM   27  N2  UNL     1      25.293   6.917  50.232  1.00  0.00     0.091 N 
HETATM   28  C22 UNL     1      25.671   7.112  48.844  1.00  0.00     0.273 C 
HETATM   29  C23 UNL     1      26.771   6.055  48.671  1.00  0.00     0.032 C 
HETATM   30  C24 UNL     1      26.099   4.861  49.333  1.00  0.00     0.032 C 
HETATM   31  C25 UNL     1      25.162   5.474  50.370  1.00  0.00     0.273 C 
ENDBRANCH  26  27
ENDBRANCH  25  26
ENDBRANCH  23  24
ENDBRANCH  22  23
ENDBRANCH  19  21
BRANCH   1  32
HETATM   32  O1  UNL     1      21.537   0.812  48.690  1.00  0.00    -0.368 OA
HETATM   33  H1  UNL     1      22.107   0.018  48.964  1.00  0.00     0.212 HD
ENDBRANCH   1  32
TORSDOF 6
ENDMDL
MODEL 6
REMARK VINA RESULT:      -8.1      3.194      6.245
REMARK  6 active torsions:
REMARK  status: ('A' for Active; 'I' for Inactive)
REMARK    1  A    between atoms: O1_1  and  C1_2 
REMARK    2  A    between atoms: C15_20  and  C16_21 
REMARK    3  A    between atoms: C17_22  and  C18_23 
REMARK    4  A    between atoms: C18_23  and  C19_24 
REMARK    5  A    between atoms: C20_25  and  C21_26 
REMARK    6  A    between atoms: C21_26  and  N2_27 
ROOT
HETATM    1  C1  UNL     1      24.032   3.960  52.535  1.00  0.00     0.163 A 
HETATM    2  N1  UNL     1      23.712   5.196  51.944  1.00  0.00    -0.359 N 
HETATM    3  C2  UNL     1      22.314   4.926  51.672  1.00  0.00     0.022 A 
HETATM    4  C3  UNL     1      21.006   5.091  51.229  1.00  0.00     0.052 A 
HETATM    5  C4  UNL     1      20.002   4.151  51.289  1.00  0.00     0.069 A 
HETATM    6 CL1  UNL     1      18.353   4.148  50.799  1.00  0.00    -0.081 Cl
HETATM    7  C5  UNL     1      20.104   2.879  51.796  1.00  0.00     0.088 A 
HETATM    8  C6  UNL     1      21.413   3.059  52.117  1.00  0.00     0.077 A 
HETATM    9  C7  UNL     1      22.613   3.673  52.240  1.00  0.00     0.065 A 
HETATM   10  O2  UNL     1      19.935   1.572  52.234  1.00  0.00    -0.345 OA
HETATM   11  C8  UNL     1      20.505   0.517  51.343  1.00  0.00     0.214 C 
HETATM   12  C9  UNL     1      21.975   0.805  51.209  1.00  0.00    -0.031 A 
HETATM   13  C10 UNL     1      22.673   0.310  52.286  1.00  0.00     0.010 A 
HETATM   14  C11 UNL     1      23.944   0.878  52.486  1.00  0.00     0.012 A 
HETATM   15  C12 UNL     1      23.987   1.774  51.438  1.00  0.00     0.001 A 
HETATM   16  C13 UNL     1      23.441   2.355  50.338  1.00  0.00     0.124 A 
HETATM   17  F1  UNL     1      23.865   3.282  49.469  1.00  0.00    -0.205 F 
HETATM   18  C14 UNL     1      22.174   1.724  50.218  1.00  0.00     0.052 A 
HETATM   19  C15 UNL     1      24.912   2.918  51.851  1.00  0.00     0.157 C 
HETATM   20  H2  UNL     1      24.079   6.133  51.662  1.00  0.00     0.162 HD
ENDROOT
BRANCH  19  21
HETATM   21  C16 UNL     1      25.743   3.393  50.805  1.00  0.00    -0.092 C 
HETATM   22  C17 UNL     1      26.463   3.787  49.928  1.00  0.00    -0.102 C 
BRANCH  22  23
HETATM   23  C18 UNL     1      27.379   4.261  48.844  1.00  0.00     0.120 C 
BRANCH  23  24
HETATM   24  C19 UNL     1      27.067   5.672  48.512  1.00  0.00    -0.017 C 
HETATM   25  C20 UNL     1      27.530   6.910  48.228  1.00  0.00    -0.000 C 
BRANCH  25  26
HETATM   26  C21 UNL     1      26.662   8.110  47.942  1.00  0.00     0.299 C 
BRANCH  26  27
HETATM   27  N2  UNL     1      25.292   7.832  48.199  1.00  0.00     0.091 N 
HETATM   28  C22 UNL     1      24.346   8.460  47.295  1.00  0.00     0.273 C 
HETATM   29  C23 UNL     1      23.009   8.165  47.990  1.00  0.00     0.032 C 
HETATM   30  C24 UNL     1      23.369   8.530  49.423  1.00  0.00     0.032 C 
HETATM   31  C25 UNL     1      24.869   8.267  49.522  1.00  0.00     0.273 C 
ENDBRANCH  26  27
ENDBRANCH  25  26
ENDBRANCH  23  24
ENDBRANCH  22  23
ENDBRANCH  19  21
BRANCH   1  32
HETATM   32  O1  UNL     1      24.200   4.057  53.912  1.00  0.00    -0.368 OA
HETATM   33  H1  UNL     1      25.006   4.658  54.046  1.00  0.00     0.212 HD
ENDBRANCH   1  32
TORSDOF 6
ENDMDL
MODEL 7
REMARK VINA RESULT:      -8.0      2.665      4.152
REMARK  6 active torsions:
REMARK  status: ('A' for Active; 'I' for Inactive)
REMARK    1  A    between atoms: O1_1  and  C1_2 
REMARK    2  A    between atoms: C15_20  and  C16_21 
REMARK    3  A    between atoms: C17_22  and  C18_23 
REMARK    4  A    between atoms: C18_23  and  C19_24 
REMARK    5  A    between atoms: C20_25  and  C21_26 
REMARK    6  A    between atoms: C21_26  and  N2_27 
ROOT
HETATM    1  C1  UNL     1      24.217   5.978  51.296  1.00  0.00     0.163 A 
HETATM    2  N1  UNL     1      25.333   5.243  50.858  1.00  0.00    -0.359 N 
HETATM    3  C2  UNL     1      25.660   6.054  49.702  1.00  0.00     0.022 A 
HETATM    4  C3  UNL     1      26.299   6.504  48.551  1.00  0.00     0.052 A 
HETATM    5  C4  UNL     1      25.926   7.586  47.785  1.00  0.00     0.069 A 
HETATM    6 CL1  UNL     1      26.557   8.292  46.350  1.00  0.00    -0.081 Cl
HETATM    7  C5  UNL     1      24.858   8.418  48.013  1.00  0.00     0.088 A 
HETATM    8  C6  UNL     1      24.500   7.734  49.132  1.00  0.00     0.077 A 
HETATM    9  C7  UNL     1      24.534   6.795  50.106  1.00  0.00     0.065 A 
HETATM   10  O2  UNL     1      23.866   9.390  48.007  1.00  0.00    -0.345 OA
HETATM   11  C8  UNL     1      22.522   8.934  47.539  1.00  0.00     0.214 C 
HETATM   12  C9  UNL     1      22.104   7.809  48.445  1.00  0.00    -0.031 A 
HETATM   13  C10 UNL     1      21.563   8.293  49.613  1.00  0.00     0.010 A 
HETATM   14  C11 UNL     1      21.539   7.380  50.683  1.00  0.00     0.012 A 
HETATM   15  C12 UNL     1      22.112   6.276  50.086  1.00  0.00     0.001 A 
HETATM   16  C13 UNL     1      22.657   5.645  49.014  1.00  0.00     0.124 A 
HETATM   17  F1  UNL     1      23.123   4.407  48.802  1.00  0.00    -0.205 F 
HETATM   18  C14 UNL     1      22.638   6.635  47.994  1.00  0.00     0.052 A 
HETATM   19  C15 UNL     1      22.787   5.458  51.185  1.00  0.00     0.157 C 
HETATM   20  H2  UNL     1      25.942   4.414  51.046  1.00  0.00     0.162 HD
ENDROOT
BRANCH  19  21
HETATM   21  C16 UNL     1      22.643   4.056  51.030  1.00  0.00    -0.092 C 
HETATM   22  C17 UNL     1      22.514   2.867  50.918  1.00  0.00    -0.102 C 
BRANCH  22  23
HETATM   23  C18 UNL     1      22.335   1.386  50.799  1.00  0.00     0.120 C 
BRANCH  23  24
HETATM   24  C19 UNL     1      23.005   0.714  51.939  1.00  0.00    -0.017 C 
HETATM   25  C20 UNL     1      22.878   0.015  53.089  1.00  0.00    -0.000 C 
BRANCH  25  26
HETATM   26  C21 UNL     1      24.030  -0.467  53.935  1.00  0.00     0.299 C 
BRANCH  26  27
HETATM   27  N2  UNL     1      25.279  -0.085  53.377  1.00  0.00     0.091 N 
HETATM   28  C22 UNL     1      26.172  -1.177  53.034  1.00  0.00     0.273 C 
HETATM   29  C23 UNL     1      27.471  -0.426  52.711  1.00  0.00     0.032 C 
HETATM   30  C24 UNL     1      27.524   0.534  53.891  1.00  0.00     0.032 C 
HETATM   31  C25 UNL     1      26.062   0.752  54.274  1.00  0.00     0.273 C 
ENDBRANCH  26  27
ENDBRANCH  25  26
ENDBRANCH  23  24
ENDBRANCH  22  23
ENDBRANCH  19  21
BRANCH   1  32
HETATM   32  O1  UNL     1      24.485   6.720  52.442  1.00  0.00    -0.368 OA
HETATM   33  H1  UNL     1      24.607   7.676  52.123  1.00  0.00     0.212 HD
ENDBRANCH   1  32
TORSDOF 6
ENDMDL
MODEL 8
REMARK VINA RESULT:      -7.9      8.341     11.300
REMARK  6 active torsions:
REMARK  status: ('A' for Active; 'I' for Inactive)
REMARK    1  A    between atoms: O1_1  and  C1_2 
REMARK    2  A    between atoms: C15_20  and  C16_21 
REMARK    3  A    between atoms: C17_22  and  C18_23 
REMARK    4  A    between atoms: C18_23  and  C19_24 
REMARK    5  A    between atoms: C20_25  and  C21_26 
REMARK    6  A    between atoms: C21_26  and  N2_27 
ROOT
HETATM    1  C1  UNL     1      30.673   9.195  49.212  1.00  0.00     0.163 A 
HETATM    2  N1  UNL     1      30.273   7.874  49.482  1.00  0.00    -0.359 N 
HETATM    3  C2  UNL     1      31.537   7.224  49.198  1.00  0.00     0.022 A 
HETATM    4  C3  UNL     1      32.494   6.229  49.026  1.00  0.00     0.052 A 
HETATM    5  C4  UNL     1      33.787   6.411  48.591  1.00  0.00     0.069 A 
HETATM    6 CL1  UNL     1      35.101   5.338  48.304  1.00  0.00    -0.081 Cl
HETATM    7  C5  UNL     1      34.372   7.604  48.247  1.00  0.00     0.088 A 
HETATM    8  C6  UNL     1      33.236   8.298  48.523  1.00  0.00     0.077 A 
HETATM    9  C7  UNL     1      31.958   8.534  48.901  1.00  0.00     0.065 A 
HETATM   10  O2  UNL     1      35.192   8.651  47.845  1.00  0.00    -0.345 OA
HETATM   11  C8  UNL     1      34.938   9.174  46.467  1.00  0.00     0.214 C 
HETATM   12  C9  UNL     1      33.505   9.627  46.430  1.00  0.00    -0.031 A 
HETATM   13  C10 UNL     1      33.375  10.889  46.962  1.00  0.00     0.010 A 
HETATM   14  C11 UNL     1      32.074  11.234  47.370  1.00  0.00     0.012 A 
HETATM   15  C12 UNL     1      31.394  10.078  47.047  1.00  0.00     0.001 A 
HETATM   16  C13 UNL     1      31.349   8.819  46.537  1.00  0.00     0.124 A 
HETATM   17  F1  UNL     1      30.369   7.926  46.352  1.00  0.00    -0.205 F 
HETATM   18  C14 UNL     1      32.694   8.563  46.155  1.00  0.00     0.052 A 
HETATM   19  C15 UNL     1      30.195   9.972  47.989  1.00  0.00     0.157 C 
HETATM   20  H2  UNL     1      29.479   7.261  49.779  1.00  0.00     0.162 HD
ENDROOT
BRANCH  19  21
HETATM   21  C16 UNL     1      29.015   9.492  47.368  1.00  0.00    -0.092 C 
HETATM   22  C17 UNL     1      28.004   9.091  46.858  1.00  0.00    -0.102 C 
BRANCH  22  23
HETATM   23  C18 UNL     1      26.730   8.607  46.241  1.00  0.00     0.120 C 
BRANCH  23  24
HETATM   24  C19 UNL     1      25.999   7.759  47.214  1.00  0.00    -0.017 C 
HETATM   25  C20 UNL     1      26.062   6.869  48.229  1.00  0.00    -0.000 C 
BRANCH  25  26
HETATM   26  C21 UNL     1      24.865   6.268  48.923  1.00  0.00     0.299 C 
BRANCH  26  27
HETATM   27  N2  UNL     1      25.056   4.884  49.182  1.00  0.00     0.091 N 
HETATM   28  C22 UNL     1      24.491   4.396  50.427  1.00  0.00     0.273 C 
HETATM   29  C23 UNL     1      25.082   2.981  50.503  1.00  0.00     0.032 C 
HETATM   30  C24 UNL     1      26.531   3.278  50.148  1.00  0.00     0.032 C 
HETATM   31  C25 UNL     1      26.463   4.516  49.256  1.00  0.00     0.273 C 
ENDBRANCH  26  27
ENDBRANCH  25  26
ENDBRANCH  23  24
ENDBRANCH  22  23
ENDBRANCH  19  21
BRANCH   1  32
HETATM   32  O1  UNL     1      30.820   9.953  50.369  1.00  0.00    -0.368 OA
HETATM   33  H1  UNL     1      31.743   9.727  50.726  1.00  0.00     0.212 HD
ENDBRANCH   1  32
TORSDOF 6
ENDMDL
MODEL 9
REMARK VINA RESULT:      -7.9      9.110     11.293
REMARK  6 active torsions:
REMARK  status: ('A' for Active; 'I' for Inactive)
REMARK    1  A    between atoms: O1_1  and  C1_2 
REMARK    2  A    between atoms: C15_20  and  C16_21 
REMARK    3  A    between atoms: C17_22  and  C18_23 
REMARK    4  A    between atoms: C18_23  and  C19_24 
REMARK    5  A    between atoms: C20_25  and  C21_26 
REMARK    6  A    between atoms: C21_26  and  N2_27 
ROOT
HETATM    1  C1  UNL     1      31.526   6.115  49.224  1.00  0.00     0.163 A 
HETATM    2  N1  UNL     1      32.647   6.944  49.039  1.00  0.00    -0.359 N 
HETATM    3  C2  UNL     1      31.948   8.213  48.999  1.00  0.00     0.022 A 
HETATM    4  C3  UNL     1      31.710   9.579  48.888  1.00  0.00     0.052 A 
HETATM    5  C4  UNL     1      30.479  10.194  48.914  1.00  0.00     0.069 A 
HETATM    6 CL1  UNL     1      29.973  11.833  48.785  1.00  0.00    -0.081 Cl
HETATM    7  C5  UNL     1      29.261   9.577  49.054  1.00  0.00     0.088 A 
HETATM    8  C6  UNL     1      29.837   8.348  49.136  1.00  0.00     0.077 A 
HETATM    9  C7  UNL     1      30.807   7.405  49.162  1.00  0.00     0.065 A 
HETATM   10  O2  UNL     1      27.925   9.215  49.175  1.00  0.00    -0.345 OA
HETATM   11  C8  UNL     1      27.305   8.623  47.951  1.00  0.00     0.214 C 
HETATM   12  C9  UNL     1      28.115   7.406  47.598  1.00  0.00    -0.031 A 
HETATM   13  C10 UNL     1      27.728   6.322  48.351  1.00  0.00     0.010 A 
HETATM   14  C11 UNL     1      28.667   5.279  48.422  1.00  0.00     0.012 A 
HETATM   15  C12 UNL     1      29.683   5.800  47.647  1.00  0.00     0.001 A 
HETATM   16  C13 UNL     1      30.207   6.777  46.863  1.00  0.00     0.124 A 
HETATM   17  F1  UNL     1      31.356   6.910  46.186  1.00  0.00    -0.205 F 
HETATM   18  C14 UNL     1      29.196   7.776  46.849  1.00  0.00     0.052 A 
HETATM   19  C15 UNL     1      30.994   5.187  48.136  1.00  0.00     0.157 C 
HETATM   20  H2  UNL     1      33.687   6.970  48.932  1.00  0.00     0.162 HD
ENDROOT
BRANCH  19  21
HETATM   21  C16 UNL     1      31.901   4.862  47.095  1.00  0.00    -0.092 C 
HETATM   22  C17 UNL     1      32.653   4.587  46.200  1.00  0.00    -0.102 C 
BRANCH  22  23
HETATM   23  C18 UNL     1      33.571   4.252  45.067  1.00  0.00     0.120 C 
BRANCH  23  24
HETATM   24  C19 UNL     1      34.018   5.501  44.405  1.00  0.00    -0.017 C 
HETATM   25  C20 UNL     1      34.481   6.099  43.284  1.00  0.00    -0.000 C 
BRANCH  25  26
HETATM   26  C21 UNL     1      34.804   7.567  43.162  1.00  0.00     0.299 C 
BRANCH  26  27
HETATM   27  N2  UNL     1      34.140   8.329  44.162  1.00  0.00     0.091 N 
HETATM   28  C22 UNL     1      32.844   8.861  43.785  1.00  0.00     0.273 C 
HETATM   29  C23 UNL     1      32.542   9.804  44.959  1.00  0.00     0.032 C 
HETATM   30  C24 UNL     1      33.882  10.514  45.081  1.00  0.00     0.032 C 
HETATM   31  C25 UNL     1      34.903   9.498  44.575  1.00  0.00     0.273 C 
ENDBRANCH  26  27
ENDBRANCH  25  26
ENDBRANCH  23  24
ENDBRANCH  22  23
ENDBRANCH  19  21
BRANCH   1  32
HETATM   32  O1  UNL     1      31.444   5.611  50.517  1.00  0.00    -0.368 OA
HETATM   33  H1  UNL     1      30.909   6.295  51.042  1.00  0.00     0.212 HD
ENDBRANCH   1  32
TORSDOF 6
ENDMDL
