MODEL 1
REMARK VINA RESULT:      -7.8      0.000      0.000
REMARK  7 active torsions:
REMARK  status: ('A' for Active; 'I' for Inactive)
REMARK    1  A    between atoms: C2_2  and  C3_3 
REMARK    2  A    between atoms: N1_4  and  C4_5 
REMARK    3  A    between atoms: C4_5  and  N4_17 
REMARK    4  A    between atoms: C5_6  and  C6_7 
REMARK       I    between atoms: N4_17  and  C12_18 
REMARK    5  A    between atoms: C12_18  and  C13_20 
REMARK    6  A    between atoms: C14_21  and  C15_22 
REMARK    7  A    between atoms: C15_22  and  C16_23 
ROOT
HETATM    1  C4  UNL     1      23.142   0.479  52.603  1.00  0.00     0.132 C 
HETATM    2  C5  UNL     1      24.132   0.001  53.336  1.00  0.00     0.084 C 
ENDROOT
BRANCH   1   3
HETATM    3  N1  UNL     1      22.769   1.396  51.608  1.00  0.00    -0.247 NA
HETATM    4  C3  UNL     1      22.682   2.665  51.874  1.00  0.00     0.091 C 
BRANCH   4   5
HETATM    5  C2  UNL     1      22.266   3.263  50.562  1.00  0.00     0.042 C 
HETATM    6  C1  UNL     1      23.325   2.863  49.554  1.00  0.00     0.010 C 
ENDBRANCH   4   5
ENDBRANCH   1   3
BRANCH   1   7
HETATM    7  N4  UNL     1      21.835  -0.048  52.782  1.00  0.00    -0.301 N 
HETATM    8  C12 UNL     1      20.879  -0.192  53.800  1.00  0.00     0.302 C 
HETATM    9  O1  UNL     1      21.146   0.237  54.951  1.00  0.00    -0.258 OA
HETATM   10  H13 UNL     1      21.546  -0.435  51.833  1.00  0.00     0.171 HD
BRANCH   8  11
HETATM   11  C13 UNL     1      19.607  -0.823  53.537  1.00  0.00    -0.005 C 
HETATM   12  C14 UNL     1      18.542  -1.350  53.335  1.00  0.00    -0.096 C 
BRANCH  12  13
HETATM   13  C15 UNL     1      17.259  -2.003  53.100  1.00  0.00     0.094 C 
BRANCH  13  14
HETATM   14  C16 UNL     1      17.359  -3.417  53.648  1.00  0.00     0.007 C 
HETATM   15  C17 UNL     1      16.224  -4.285  53.150  1.00  0.00     0.006 C 
ENDBRANCH  13  14
ENDBRANCH  12  13
ENDBRANCH   8  11
ENDBRANCH   1   7
BRANCH   2  16
HETATM   16  C6  UNL     1      25.534   0.380  53.344  1.00  0.00     0.083 C 
HETATM   17  N2  UNL     1      25.758   1.585  53.732  1.00  0.00    -0.179 NA
HETATM   18  N3  UNL     1      26.904   2.357  53.896  1.00  0.00    -0.310 N 
HETATM   19  C7  UNL     1      28.276   2.370  53.457  1.00  0.00     0.170 C 
HETATM   20  H8  UNL     1      26.675   3.173  54.537  1.00  0.00     0.182 HD
HETATM   21  C8  UNL     1      29.019   1.128  53.763  1.00  0.00     0.021 C 
HETATM   22  C9  UNL     1      28.860  -0.190  53.597  1.00  0.00     0.070 C 
HETATM   23 CL1  UNL     1      30.115  -1.293  54.175  1.00  0.00    -0.081 Cl
HETATM   24  C10 UNL     1      27.766  -0.938  52.984  1.00  0.00     0.140 C 
HETATM   25  F1  UNL     1      28.173  -2.093  52.405  1.00  0.00    -0.204 F 
HETATM   26  C11 UNL     1      26.450  -0.689  52.896  1.00  0.00     0.077 C 
ENDBRANCH   2  16
TORSDOF 7
ENDMDL
MODEL 2
REMARK VINA RESULT:      -7.1      4.497      8.873
REMARK  7 active torsions:
REMARK  status: ('A' for Active; 'I' for Inactive)
REMARK    1  A    between atoms: C2_2  and  C3_3 
REMARK    2  A    between atoms: N1_4  and  C4_5 
REMARK    3  A    between atoms: C4_5  and  N4_17 
REMARK    4  A    between atoms: C5_6  and  C6_7 
REMARK       I    between atoms: N4_17  and  C12_18 
REMARK    5  A    between atoms: C12_18  and  C13_20 
REMARK    6  A    between atoms: C14_21  and  C15_22 
REMARK    7  A    between atoms: C15_22  and  C16_23 
ROOT
HETATM    1  C4  UNL     1      26.283   2.283  51.642  1.00  0.00     0.132 C 
HETATM    2  C5  UNL     1      25.004   1.960  51.571  1.00  0.00     0.084 C 
ENDROOT
BRANCH   1   3
HETATM    3  N1  UNL     1      27.501   2.073  52.309  1.00  0.00    -0.247 NA
HETATM    4  C3  UNL     1      27.633   2.382  53.564  1.00  0.00     0.091 C 
BRANCH   4   5
HETATM    5  C2  UNL     1      29.054   2.002  53.863  1.00  0.00     0.042 C 
HETATM    6  C1  UNL     1      29.009   0.604  54.446  1.00  0.00     0.010 C 
ENDBRANCH   4   5
ENDBRANCH   1   3
BRANCH   1   7
HETATM    7  N4  UNL     1      26.804   3.244  50.735  1.00  0.00    -0.301 N 
HETATM    8  C12 UNL     1      26.400   3.952  49.592  1.00  0.00     0.302 C 
HETATM    9  O1  UNL     1      25.245   3.763  49.135  1.00  0.00    -0.258 OA
HETATM   10  H13 UNL     1      27.794   3.450  51.067  1.00  0.00     0.171 HD
BRANCH   8  11
HETATM   11  C13 UNL     1      27.293   4.884  48.945  1.00  0.00    -0.005 C 
HETATM   12  C14 UNL     1      28.044   5.669  48.421  1.00  0.00    -0.096 C 
BRANCH  12  13
HETATM   13  C15 UNL     1      28.941   6.632  47.793  1.00  0.00     0.094 C 
BRANCH  13  14
HETATM   14  C16 UNL     1      30.332   6.397  48.360  1.00  0.00     0.007 C 
HETATM   15  C17 UNL     1      31.001   5.206  47.710  1.00  0.00     0.006 C 
ENDBRANCH  13  14
ENDBRANCH  12  13
ENDBRANCH   8  11
ENDBRANCH   1   7
BRANCH   2  16
HETATM   16  C6  UNL     1      24.247   1.026  52.385  1.00  0.00     0.083 C 
HETATM   17  N2  UNL     1      24.828   0.679  53.479  1.00  0.00    -0.179 NA
HETATM   18  N3  UNL     1      24.492  -0.163  54.534  1.00  0.00    -0.310 N 
HETATM   19  C7  UNL     1      23.587  -1.250  54.810  1.00  0.00     0.170 C 
HETATM   20  H8  UNL     1      25.096   0.085  55.373  1.00  0.00     0.182 HD
HETATM   21  C8  UNL     1      22.165  -0.928  54.560  1.00  0.00     0.021 C 
HETATM   22  C9  UNL     1      21.423  -0.410  53.574  1.00  0.00     0.070 C 
HETATM   23 CL1  UNL     1      19.679  -0.237  53.802  1.00  0.00    -0.081 Cl
HETATM   24  C10 UNL     1      21.815   0.071  52.252  1.00  0.00     0.140 C 
HETATM   25  F1  UNL     1      20.845  -0.093  51.320  1.00  0.00    -0.204 F 
HETATM   26  C11 UNL     1      22.945   0.638  51.805  1.00  0.00     0.077 C 
ENDBRANCH   2  16
TORSDOF 7
ENDMDL
MODEL 3
REMARK VINA RESULT:      -7.0      4.681      6.281
REMARK  7 active torsions:
REMARK  status: ('A' for Active; 'I' for Inactive)
REMARK    1  A    between atoms: C2_2  and  C3_3 
REMARK    2  A    between atoms: N1_4  and  C4_5 
REMARK    3  A    between atoms: C4_5  and  N4_17 
REMARK    4  A    between atoms: C5_6  and  C6_7 
REMARK       I    between atoms: N4_17  and  C12_18 
REMARK    5  A    between atoms: C12_18  and  C13_20 
REMARK    6  A    between atoms: C14_21  and  C15_22 
REMARK    7  A    between atoms: C15_22  and  C16_23 
ROOT
HETATM    1  C4  UNL     1      24.471   3.084  50.180  1.00  0.00     0.132 C 
HETATM    2  C5  UNL     1      25.527   3.870  50.294  1.00  0.00     0.084 C 
ENDROOT
BRANCH   1   3
HETATM    3  N1  UNL     1      23.352   2.745  49.403  1.00  0.00    -0.247 NA
HETATM    4  C3  UNL     1      22.158   3.106  49.766  1.00  0.00     0.091 C 
BRANCH   4   5
HETATM    5  C2  UNL     1      21.286   2.550  48.678  1.00  0.00     0.042 C 
HETATM    6  C1  UNL     1      21.445   1.043  48.731  1.00  0.00     0.010 C 
ENDBRANCH   4   5
ENDBRANCH   1   3
BRANCH   1   7
HETATM    7  N4  UNL     1      24.212   2.124  51.195  1.00  0.00    -0.301 N 
HETATM    8  C12 UNL     1      24.905   1.162  51.947  1.00  0.00     0.302 C 
HETATM    9  O1  UNL     1      26.138   1.011  51.755  1.00  0.00    -0.258 OA
HETATM   10  H13 UNL     1      23.172   2.199  51.406  1.00  0.00     0.171 HD
BRANCH   8  11
HETATM   11  C13 UNL     1      24.219   0.356  52.929  1.00  0.00    -0.005 C 
HETATM   12  C14 UNL     1      23.630  -0.311  53.742  1.00  0.00    -0.096 C 
BRANCH  12  13
HETATM   13  C15 UNL     1      22.912  -1.102  54.735  1.00  0.00     0.094 C 
BRANCH  13  14
HETATM   14  C16 UNL     1      21.450  -1.137  54.321  1.00  0.00     0.007 C 
HETATM   15  C17 UNL     1      20.798   0.220  54.475  1.00  0.00     0.006 C 
ENDBRANCH  13  14
ENDBRANCH  12  13
ENDBRANCH   8  11
ENDBRANCH   1   7
BRANCH   2  16
HETATM   16  C6  UNL     1      25.988   4.921  49.406  1.00  0.00     0.083 C 
HETATM   17  N2  UNL     1      25.146   5.877  49.227  1.00  0.00    -0.179 NA
HETATM   18  N3  UNL     1      25.153   7.054  48.487  1.00  0.00    -0.310 N 
HETATM   19  C7  UNL     1      25.865   7.634  47.376  1.00  0.00     0.170 C 
HETATM   20  H8  UNL     1      24.404   7.703  48.871  1.00  0.00     0.182 HD
HETATM   21  C8  UNL     1      27.331   7.694  47.564  1.00  0.00     0.021 C 
HETATM   22  C9  UNL     1      28.322   6.865  47.912  1.00  0.00     0.070 C 
HETATM   23 CL1  UNL     1      29.979   7.477  47.984  1.00  0.00    -0.081 Cl
HETATM   24  C10 UNL     1      28.285   5.449  48.268  1.00  0.00     0.140 C 
HETATM   25  F1  UNL     1      29.419   4.789  47.932  1.00  0.00    -0.204 F 
HETATM   26  C11 UNL     1      27.344   4.700  48.862  1.00  0.00     0.077 C 
ENDBRANCH   2  16
TORSDOF 7
ENDMDL
MODEL 4
REMARK VINA RESULT:      -6.9      2.559      3.674
REMARK  7 active torsions:
REMARK  status: ('A' for Active; 'I' for Inactive)
REMARK    1  A    between atoms: C2_2  and  C3_3 
REMARK    2  A    between atoms: N1_4  and  C4_5 
REMARK    3  A    between atoms: C4_5  and  N4_17 
REMARK    4  A    between atoms: C5_6  and  C6_7 
REMARK       I    between atoms: N4_17  and  C12_18 
REMARK    5  A    between atoms: C12_18  and  C13_20 
REMARK    6  A    between atoms: C14_21  and  C15_22 
REMARK    7  A    between atoms: C15_22  and  C16_23 
ROOT
HETATM    1  C4  UNL     1      22.844   1.423  52.933  1.00  0.00     0.132 C 
HETATM    2  C5  UNL     1      23.927   2.051  52.509  1.00  0.00     0.084 C 
ENDROOT
BRANCH   1   3
HETATM    3  N1  UNL     1      22.342   0.344  53.677  1.00  0.00    -0.247 NA
HETATM    4  C3  UNL     1      22.826  -0.852  53.523  1.00  0.00     0.091 C 
BRANCH   4   5
HETATM    5  C2  UNL     1      22.021  -1.675  54.487  1.00  0.00     0.042 C 
HETATM    6  C1  UNL     1      20.565  -1.377  54.191  1.00  0.00     0.010 C 
ENDBRANCH   4   5
ENDBRANCH   1   3
BRANCH   1   7
HETATM    7  N4  UNL     1      21.567   1.919  52.557  1.00  0.00    -0.301 N 
HETATM    8  C12 UNL     1      20.544   1.629  51.640  1.00  0.00     0.302 C 
HETATM    9  O1  UNL     1      20.685   0.656  50.857  1.00  0.00    -0.258 OA
HETATM   10  H13 UNL     1      21.385   2.756  53.188  1.00  0.00     0.171 HD
BRANCH   8  11
HETATM   11  C13 UNL     1      19.346   2.433  51.590  1.00  0.00    -0.005 C 
HETATM   12  C14 UNL     1      18.340   3.096  51.564  1.00  0.00    -0.096 C 
BRANCH  12  13
HETATM   13  C15 UNL     1      17.112   3.883  51.528  1.00  0.00     0.094 C 
BRANCH  13  14
HETATM   14  C16 UNL     1      15.964   2.955  51.890  1.00  0.00     0.007 C 
HETATM   15  C17 UNL     1      15.743   1.905  50.822  1.00  0.00     0.006 C 
ENDBRANCH  13  14
ENDBRANCH  12  13
ENDBRANCH   8  11
ENDBRANCH   1   7
BRANCH   2  16
HETATM   16  C6  UNL     1      25.323   1.733  52.747  1.00  0.00     0.083 C 
HETATM   17  N2  UNL     1      25.934   2.559  53.522  1.00  0.00    -0.179 NA
HETATM   18  N3  UNL     1      27.231   2.653  54.015  1.00  0.00    -0.310 N 
HETATM   19  C7  UNL     1      28.547   2.151  53.710  1.00  0.00     0.170 C 
HETATM   20  H8  UNL     1      27.227   3.289  54.866  1.00  0.00     0.182 HD
HETATM   21  C8  UNL     1      28.632   0.675  53.653  1.00  0.00     0.021 C 
HETATM   22  C9  UNL     1      27.985  -0.333  53.056  1.00  0.00     0.070 C 
HETATM   23 CL1  UNL     1      28.523  -1.994  53.339  1.00  0.00    -0.081 Cl
HETATM   24  C10 UNL     1      26.839  -0.315  52.152  1.00  0.00     0.140 C 
HETATM   25  F1  UNL     1      26.850  -1.337  51.262  1.00  0.00    -0.204 F 
HETATM   26  C11 UNL     1      25.794   0.519  52.049  1.00  0.00     0.077 C 
ENDBRANCH   2  16
TORSDOF 7
ENDMDL
MODEL 5
REMARK VINA RESULT:      -6.7      4.486      9.155
REMARK  7 active torsions:
REMARK  status: ('A' for Active; 'I' for Inactive)
REMARK    1  A    between atoms: C2_2  and  C3_3 
REMARK    2  A    between atoms: N1_4  and  C4_5 
REMARK    3  A    between atoms: C4_5  and  N4_17 
REMARK    4  A    between atoms: C5_6  and  C6_7 
REMARK       I    between atoms: N4_17  and  C12_18 
REMARK    5  A    between atoms: C12_18  and  C13_20 
REMARK    6  A    between atoms: C14_21  and  C15_22 
REMARK    7  A    between atoms: C15_22  and  C16_23 
ROOT
HETATM    1  C4  UNL     1      25.934   2.838  51.000  1.00  0.00     0.132 C 
HETATM    2  C5  UNL     1      24.643   3.108  50.925  1.00  0.00     0.084 C 
ENDROOT
BRANCH   1   3
HETATM    3  N1  UNL     1      26.923   2.040  51.597  1.00  0.00    -0.247 NA
HETATM    4  C3  UNL     1      27.298   2.254  52.823  1.00  0.00     0.091 C 
BRANCH   4   5
HETATM    5  C2  UNL     1      28.343   1.201  53.050  1.00  0.00     0.042 C 
HETATM    6  C1  UNL     1      27.608  -0.036  53.527  1.00  0.00     0.010 C 
ENDBRANCH   4   5
ENDBRANCH   1   3
BRANCH   1   7
HETATM    7  N4  UNL     1      26.844   3.592  50.211  1.00  0.00    -0.301 N 
HETATM    8  C12 UNL     1      26.818   4.596  49.230  1.00  0.00     0.302 C 
HETATM    9  O1  UNL     1      25.709   5.048  48.850  1.00  0.00    -0.258 OA
HETATM   10  H13 UNL     1      27.815   3.253  50.486  1.00  0.00     0.171 HD
BRANCH   8  11
HETATM   11  C13 UNL     1      28.043   5.106  48.661  1.00  0.00    -0.005 C 
HETATM   12  C14 UNL     1      29.059   5.530  48.170  1.00  0.00    -0.096 C 
BRANCH  12  13
HETATM   13  C15 UNL     1      30.292   6.026  47.568  1.00  0.00     0.094 C 
BRANCH  13  14
HETATM   14  C16 UNL     1      31.291   4.881  47.564  1.00  0.00     0.007 C 
HETATM   15  C17 UNL     1      32.420   5.134  46.589  1.00  0.00     0.006 C 
ENDBRANCH  13  14
ENDBRANCH  12  13
ENDBRANCH   8  11
ENDBRANCH   1   7
BRANCH   2  16
HETATM   16  C6  UNL     1      23.534   2.493  51.632  1.00  0.00     0.083 C 
HETATM   17  N2  UNL     1      22.373   2.916  51.276  1.00  0.00    -0.179 NA
HETATM   18  N3  UNL     1      21.070   2.623  51.664  1.00  0.00    -0.310 N 
HETATM   19  C7  UNL     1      20.378   2.017  52.773  1.00  0.00     0.170 C 
HETATM   20  H8  UNL     1      20.406   2.953  50.903  1.00  0.00     0.182 HD
HETATM   21  C8  UNL     1      20.823   0.642  53.085  1.00  0.00     0.021 C 
HETATM   22  C9  UNL     1      21.976  -0.001  53.306  1.00  0.00     0.070 C 
HETATM   23 CL1  UNL     1      21.947  -1.735  53.653  1.00  0.00    -0.081 Cl
HETATM   24  C10 UNL     1      23.348   0.498  53.315  1.00  0.00     0.140 C 
HETATM   25  F1  UNL     1      24.153  -0.182  54.167  1.00  0.00    -0.204 F 
HETATM   26  C11 UNL     1      23.943   1.493  52.640  1.00  0.00     0.077 C 
ENDBRANCH   2  16
TORSDOF 7
ENDMDL
MODEL 6
REMARK VINA RESULT:      -6.7      4.995      6.468
REMARK  7 active torsions:
REMARK  status: ('A' for Active; 'I' for Inactive)
REMARK    1  A    between atoms: C2_2  and  C3_3 
REMARK    2  A    between atoms: N1_4  and  C4_5 
REMARK    3  A    between atoms: C4_5  and  N4_17 
REMARK    4  A    between atoms: C5_6  and  C6_7 
REMARK       I    between atoms: N4_17  and  C12_18 
REMARK    5  A    between atoms: C12_18  and  C13_20 
REMARK    6  A    between atoms: C14_21  and  C15_22 
REMARK    7  A    between atoms: C15_22  and  C16_23 
ROOT
HETATM    1  C4  UNL     1      24.523   4.158  50.351  1.00  0.00     0.132 C 
HETATM    2  C5  UNL     1      25.738   4.191  49.833  1.00  0.00     0.084 C 
ENDROOT
BRANCH   1   3
HETATM    3  N1  UNL     1      23.296   4.827  50.483  1.00  0.00    -0.247 NA
HETATM    4  C3  UNL     1      23.145   5.771  51.363  1.00  0.00     0.091 C 
BRANCH   4   5
HETATM    5  C2  UNL     1      21.720   6.199  51.166  1.00  0.00     0.042 C 
HETATM    6  C1  UNL     1      20.906   4.928  51.036  1.00  0.00     0.010 C 
ENDBRANCH   4   5
ENDBRANCH   1   3
BRANCH   1   7
HETATM    7  N4  UNL     1      24.142   3.044  51.146  1.00  0.00    -0.301 N 
HETATM    8  C12 UNL     1      23.336   1.899  51.051  1.00  0.00     0.302 C 
HETATM    9  O1  UNL     1      22.708   1.683  49.985  1.00  0.00    -0.258 OA
HETATM   10  H13 UNL     1      24.645   3.167  52.077  1.00  0.00     0.171 HD
BRANCH   8  11
HETATM   11  C13 UNL     1      23.226   0.978  52.158  1.00  0.00    -0.005 C 
HETATM   12  C14 UNL     1      23.138   0.195  53.071  1.00  0.00    -0.096 C 
BRANCH  12  13
HETATM   13  C15 UNL     1      23.016  -0.759  54.167  1.00  0.00     0.094 C 
BRANCH  13  14
HETATM   14  C16 UNL     1      21.635  -0.581  54.776  1.00  0.00     0.007 C 
HETATM   15  C17 UNL     1      20.545  -0.945  53.792  1.00  0.00     0.006 C 
ENDBRANCH  13  14
ENDBRANCH  12  13
ENDBRANCH   8  11
ENDBRANCH   1   7
BRANCH   2  16
HETATM   16  C6  UNL     1      26.355   5.213  49.007  1.00  0.00     0.083 C 
HETATM   17  N2  UNL     1      25.596   6.217  48.743  1.00  0.00    -0.179 NA
HETATM   18  N3  UNL     1      25.754   7.392  48.015  1.00  0.00    -0.310 N 
HETATM   19  C7  UNL     1      26.617   7.928  46.993  1.00  0.00     0.170 C 
HETATM   20  H8  UNL     1      25.006   8.083  48.319  1.00  0.00     0.182 HD
HETATM   21  C8  UNL     1      28.054   7.902  47.341  1.00  0.00     0.021 C 
HETATM   22  C9  UNL     1      28.949   7.015  47.791  1.00  0.00     0.070 C 
HETATM   23 CL1  UNL     1      30.622   7.528  48.048  1.00  0.00    -0.081 Cl
HETATM   24  C10 UNL     1      28.790   5.604  48.132  1.00  0.00     0.140 C 
HETATM   25  F1  UNL     1      29.914   4.877  47.917  1.00  0.00    -0.204 F 
HETATM   26  C11 UNL     1      27.747   4.912  48.613  1.00  0.00     0.077 C 
ENDBRANCH   2  16
TORSDOF 7
ENDMDL
MODEL 7
REMARK VINA RESULT:      -6.7      4.368      8.361
REMARK  7 active torsions:
REMARK  status: ('A' for Active; 'I' for Inactive)
REMARK    1  A    between atoms: C2_2  and  C3_3 
REMARK    2  A    between atoms: N1_4  and  C4_5 
REMARK    3  A    between atoms: C4_5  and  N4_17 
REMARK    4  A    between atoms: C5_6  and  C6_7 
REMARK       I    between atoms: N4_17  and  C12_18 
REMARK    5  A    between atoms: C12_18  and  C13_20 
REMARK    6  A    between atoms: C14_21  and  C15_22 
REMARK    7  A    between atoms: C15_22  and  C16_23 
ROOT
HETATM    1  C4  UNL     1      22.665   1.547  52.136  1.00  0.00     0.132 C 
HETATM    2  C5  UNL     1      21.523   1.370  52.777  1.00  0.00     0.084 C 
ENDROOT
BRANCH   1   3
HETATM    3  N1  UNL     1      23.279   1.984  50.952  1.00  0.00    -0.247 NA
HETATM    4  C3  UNL     1      23.191   3.225  50.578  1.00  0.00     0.091 C 
BRANCH   4   5
HETATM    5  C2  UNL     1      23.970   3.253  49.295  1.00  0.00     0.042 C 
HETATM    6  C1  UNL     1      25.432   3.340  49.684  1.00  0.00     0.010 C 
ENDBRANCH   4   5
ENDBRANCH   1   3
BRANCH   1   7
HETATM    7  N4  UNL     1      23.880   1.183  52.778  1.00  0.00    -0.301 N 
HETATM    8  C12 UNL     1      24.399   0.130  53.546  1.00  0.00     0.302 C 
HETATM    9  O1  UNL     1      23.660  -0.849  53.818  1.00  0.00    -0.258 OA
HETATM   10  H13 UNL     1      24.558   1.981  52.586  1.00  0.00     0.171 HD
BRANCH   8  11
HETATM   11  C13 UNL     1      25.762   0.164  54.022  1.00  0.00    -0.005 C 
HETATM   12  C14 UNL     1      26.897   0.209  54.427  1.00  0.00    -0.096 C 
BRANCH  12  13
HETATM   13  C15 UNL     1      28.273   0.277  54.905  1.00  0.00     0.094 C 
BRANCH  13  14
HETATM   14  C16 UNL     1      29.181   0.261  53.687  1.00  0.00     0.007 C 
HETATM   15  C17 UNL     1      29.987  -1.017  53.613  1.00  0.00     0.006 C 
ENDBRANCH  13  14
ENDBRANCH  12  13
ENDBRANCH   8  11
ENDBRANCH   1   7
BRANCH   2  16
HETATM   16  C6  UNL     1      20.170   1.650  52.333  1.00  0.00     0.083 C 
HETATM   17  N2  UNL     1      19.921   2.896  52.132  1.00  0.00    -0.179 NA
HETATM   18  N3  UNL     1      18.802   3.609  51.716  1.00  0.00    -0.310 N 
HETATM   19  C7  UNL     1      17.375   3.431  51.618  1.00  0.00     0.170 C 
HETATM   20  H8  UNL     1      19.116   4.565  51.374  1.00  0.00     0.182 HD
HETATM   21  C8  UNL     1      16.967   2.250  50.828  1.00  0.00     0.021 C 
HETATM   22  C9  UNL     1      17.247   0.942  50.781  1.00  0.00     0.070 C 
HETATM   23 CL1  UNL     1      16.436  -0.075  49.583  1.00  0.00    -0.081 Cl
HETATM   24  C10 UNL     1      18.162   0.144  51.592  1.00  0.00     0.140 C 
HETATM   25  F1  UNL     1      17.751  -1.138  51.747  1.00  0.00    -0.204 F 
HETATM   26  C11 UNL     1      19.318   0.450  52.199  1.00  0.00     0.077 C 
ENDBRANCH   2  16
TORSDOF 7
ENDMDL
MODEL 8
REMARK VINA RESULT:      -6.6      4.721      9.332
REMARK  7 active torsions:
REMARK  status: ('A' for Active; 'I' for Inactive)
REMARK    1  A    between atoms: C2_2  and  C3_3 
REMARK    2  A    between atoms: N1_4  and  C4_5 
REMARK    3  A    between atoms: C4_5  and  N4_17 
REMARK    4  A    between atoms: C5_6  and  C6_7 
REMARK       I    between atoms: N4_17  and  C12_18 
REMARK    5  A    between atoms: C12_18  and  C13_20 
REMARK    6  A    between atoms: C14_21  and  C15_22 
REMARK    7  A    between atoms: C15_22  and  C16_23 
ROOT
HETATM    1  C4  UNL     1      20.436   0.329  51.790  1.00  0.00     0.132 C 
HETATM    2  C5  UNL     1      19.220   0.382  51.275  1.00  0.00     0.084 C 
ENDROOT
BRANCH   1   3
HETATM    3  N1  UNL     1      21.272  -0.282  52.737  1.00  0.00    -0.247 NA
HETATM    4  C3  UNL     1      21.269   0.110  53.976  1.00  0.00     0.091 C 
BRANCH   4   5
HETATM    5  C2  UNL     1      22.283  -0.788  54.623  1.00  0.00     0.042 C 
HETATM    6  C1  UNL     1      23.555  -0.651  53.811  1.00  0.00     0.010 C 
ENDBRANCH   4   5
ENDBRANCH   1   3
BRANCH   1   7
HETATM    7  N4  UNL     1      21.437   1.202  51.286  1.00  0.00    -0.301 N 
HETATM    8  C12 UNL     1      22.074   1.496  50.070  1.00  0.00     0.302 C 
HETATM    9  O1  UNL     1      21.744   0.857  49.039  1.00  0.00    -0.258 OA
HETATM   10  H13 UNL     1      21.765   1.777  52.119  1.00  0.00     0.171 HD
BRANCH   8  11
HETATM   11  C13 UNL     1      23.095   2.514  49.997  1.00  0.00    -0.005 C 
HETATM   12  C14 UNL     1      23.948   3.362  49.918  1.00  0.00    -0.096 C 
BRANCH  12  13
HETATM   13  C15 UNL     1      24.994   4.375  49.818  1.00  0.00     0.094 C 
BRANCH  13  14
HETATM   14  C16 UNL     1      26.291   3.660  49.480  1.00  0.00     0.007 C 
HETATM   15  C17 UNL     1      27.292   4.600  48.845  1.00  0.00     0.006 C 
ENDBRANCH  13  14
ENDBRANCH  12  13
ENDBRANCH   8  11
ENDBRANCH   1   7
BRANCH   2  16
HETATM   16  C6  UNL     1      18.041  -0.389  51.626  1.00  0.00     0.083 C 
HETATM   17  N2  UNL     1      17.026  -0.191  50.861  1.00  0.00    -0.179 NA
HETATM   18  N3  UNL     1      15.729  -0.692  50.815  1.00  0.00    -0.310 N 
HETATM   19  C7  UNL     1      14.794  -1.363  51.681  1.00  0.00     0.170 C 
HETATM   20  H8  UNL     1      15.330  -0.514  49.846  1.00  0.00     0.182 HD
HETATM   21  C8  UNL     1      15.305  -2.626  52.258  1.00  0.00     0.021 C 
HETATM   22  C9  UNL     1      16.392  -3.048  52.916  1.00  0.00     0.070 C 
HETATM   23 CL1  UNL     1      16.505  -4.744  53.402  1.00  0.00    -0.081 Cl
HETATM   24  C10 UNL     1      17.583  -2.315  53.336  1.00  0.00     0.140 C 
HETATM   25  F1  UNL     1      18.135  -2.809  54.472  1.00  0.00    -0.204 F 
HETATM   26  C11 UNL     1      18.219  -1.260  52.806  1.00  0.00     0.077 C 
ENDBRANCH   2  16
TORSDOF 7
ENDMDL
MODEL 9
REMARK VINA RESULT:      -6.5      4.739      9.215
REMARK  7 active torsions:
REMARK  status: ('A' for Active; 'I' for Inactive)
REMARK    1  A    between atoms: C2_2  and  C3_3 
REMARK    2  A    between atoms: N1_4  and  C4_5 
REMARK    3  A    between atoms: C4_5  and  N4_17 
REMARK    4  A    between atoms: C5_6  and  C6_7 
REMARK       I    between atoms: N4_17  and  C12_18 
REMARK    5  A    between atoms: C12_18  and  C13_20 
REMARK    6  A    between atoms: C14_21  and  C15_22 
REMARK    7  A    between atoms: C15_22  and  C16_23 
ROOT
HETATM    1  C4  UNL     1      22.644   1.103  51.854  1.00  0.00     0.132 C 
HETATM    2  C5  UNL     1      21.438   1.043  51.318  1.00  0.00     0.084 C 
ENDROOT
BRANCH   1   3
HETATM    3  N1  UNL     1      23.473   0.677  52.903  1.00  0.00    -0.247 NA
HETATM    4  C3  UNL     1      23.715  -0.587  53.088  1.00  0.00     0.091 C 
BRANCH   4   5
HETATM    5  C2  UNL     1      24.622  -0.592  54.284  1.00  0.00     0.042 C 
HETATM    6  C1  UNL     1      26.035  -0.477  53.749  1.00  0.00     0.010 C 
ENDBRANCH   4   5
ENDBRANCH   1   3
BRANCH   1   7
HETATM    7  N4  UNL     1      23.639   1.902  51.228  1.00  0.00    -0.301 N 
HETATM    8  C12 UNL     1      23.989   3.255  51.103  1.00  0.00     0.302 C 
HETATM    9  O1  UNL     1      23.283   4.123  51.676  1.00  0.00    -0.258 OA
HETATM   10  H13 UNL     1      24.277   1.220  50.716  1.00  0.00     0.171 HD
BRANCH   8  11
HETATM   11  C13 UNL     1      25.142   3.652  50.329  1.00  0.00    -0.005 C 
HETATM   12  C14 UNL     1      26.113   3.986  49.699  1.00  0.00    -0.096 C 
BRANCH  12  13
HETATM   13  C15 UNL     1      27.287   4.408  48.943  1.00  0.00     0.094 C 
BRANCH  13  14
HETATM   14  C16 UNL     1      27.116   5.883  48.618  1.00  0.00     0.007 C 
HETATM   15  C17 UNL     1      28.345   6.447  47.940  1.00  0.00     0.006 C 
ENDBRANCH  13  14
ENDBRANCH  12  13
ENDBRANCH   8  11
ENDBRANCH   1   7
BRANCH   2  16
HETATM   16  C6  UNL     1      20.267   0.316  51.774  1.00  0.00     0.083 C 
HETATM   17  N2  UNL     1      20.361  -0.154  52.967  1.00  0.00    -0.179 NA
HETATM   18  N3  UNL     1      19.518  -0.890  53.793  1.00  0.00    -0.310 N 
HETATM   19  C7  UNL     1      18.354  -1.733  53.681  1.00  0.00     0.170 C 
HETATM   20  H8  UNL     1      19.849  -0.787  54.797  1.00  0.00     0.182 HD
HETATM   21  C8  UNL     1      17.204  -1.089  53.011  1.00  0.00     0.021 C 
HETATM   22  C9  UNL     1      16.964  -0.415  51.880  1.00  0.00     0.070 C 
HETATM   23 CL1  UNL     1      15.327   0.163  51.547  1.00  0.00    -0.081 Cl
HETATM   24  C10 UNL     1      17.867  -0.044  50.794  1.00  0.00     0.140 C 
HETATM   25  F1  UNL     1      17.249   0.021  49.590  1.00  0.00    -0.204 F 
HETATM   26  C11 UNL     1      19.178   0.241  50.778  1.00  0.00     0.077 C 
ENDBRANCH   2  16
TORSDOF 7
ENDMDL
