MODEL 1
REMARK VINA RESULT:      -7.2      0.000      0.000
REMARK  6 active torsions:
REMARK  status: ('A' for Active; 'I' for Inactive)
REMARK    1  A    between atoms: C2_2  and  C4_4 
REMARK    2  A    between atoms: C4_4  and  C5_5 
REMARK    3  A    between atoms: C5_5  and  C6_7 
REMARK    4  A    between atoms: C9_10  and  O2_11 
REMARK    5  A    between atoms: O2_11  and  C10_12 
REMARK    6  A    between atoms: C10_12  and  C11_13 
ROOT
HETATM    1  C6  UNL     1      26.855   2.013  52.977  1.00  0.00     0.010 A 
HETATM    2  C7  UNL     1      25.819   2.385  53.789  1.00  0.00     0.018 A 
HETATM    3  C8  UNL     1      24.511   2.555  53.358  1.00  0.00     0.037 A 
HETATM    4  C9  UNL     1      24.224   2.337  52.030  1.00  0.00     0.069 A 
HETATM    5  C17 UNL     1      25.229   1.962  51.174  1.00  0.00     0.037 A 
HETATM    6  C18 UNL     1      26.515   1.805  51.645  1.00  0.00     0.018 A 
ENDROOT
BRANCH   4   7
HETATM    7  O2  UNL     1      22.977   2.461  51.435  1.00  0.00    -0.347 OA
BRANCH   7   8
HETATM    8  C10 UNL     1      22.203   1.355  51.051  1.00  0.00     0.214 C 
BRANCH   8   9
HETATM    9  C11 UNL     1      21.865   0.626  52.321  1.00  0.00    -0.034 A 
HETATM   10  C12 UNL     1      20.892   1.134  53.165  1.00  0.00     0.009 A 
HETATM   11  C13 UNL     1      20.620   0.414  54.332  1.00  0.00     0.001 A 
HETATM   12  C14 UNL     1      21.287  -0.758  54.641  1.00  0.00     0.000 A 
HETATM   13  C15 UNL     1      22.256  -1.241  53.776  1.00  0.00     0.001 A 
HETATM   14  C16 UNL     1      22.546  -0.546  52.609  1.00  0.00     0.009 A 
ENDBRANCH   8   9
ENDBRANCH   7   8
ENDBRANCH   4   7
BRANCH   1  15
HETATM   15  C5  UNL     1      28.227   1.847  53.482  1.00  0.00     0.159 C 
HETATM   16  O1  UNL     1      28.984   2.829  53.170  1.00  0.00    -0.292 OA
BRANCH  15  17
HETATM   17  C4  UNL     1      28.505   0.608  54.251  1.00  0.00     0.087 C 
BRANCH  17  18
HETATM   18  C2  UNL     1      28.850  -0.514  53.302  1.00  0.00    -0.015 C 
HETATM   19  C1  UNL     1      27.655  -1.390  53.117  1.00  0.00     0.010 C 
HETATM   20  C3  UNL     1      30.075  -1.261  53.741  1.00  0.00     0.010 C 
ENDBRANCH  17  18
ENDBRANCH  15  17
ENDBRANCH   1  15
TORSDOF 6
ENDMDL
MODEL 2
REMARK VINA RESULT:      -7.2      2.722      4.960
REMARK  6 active torsions:
REMARK  status: ('A' for Active; 'I' for Inactive)
REMARK    1  A    between atoms: C2_2  and  C4_4 
REMARK    2  A    between atoms: C4_4  and  C5_5 
REMARK    3  A    between atoms: C5_5  and  C6_7 
REMARK    4  A    between atoms: C9_10  and  O2_11 
REMARK    5  A    between atoms: O2_11  and  C10_12 
REMARK    6  A    between atoms: C10_12  and  C11_13 
ROOT
HETATM    1  C6  UNL     1      25.643   0.787  53.833  1.00  0.00     0.010 A 
HETATM    2  C7  UNL     1      24.793   0.267  52.896  1.00  0.00     0.018 A 
HETATM    3  C8  UNL     1      24.073   1.029  51.986  1.00  0.00     0.037 A 
HETATM    4  C9  UNL     1      24.215   2.397  52.018  1.00  0.00     0.069 A 
HETATM    5  C17 UNL     1      25.057   2.967  52.940  1.00  0.00     0.037 A 
HETATM    6  C18 UNL     1      25.753   2.172  53.825  1.00  0.00     0.018 A 
ENDROOT
BRANCH   4   7
HETATM    7  O2  UNL     1      23.574   3.302  51.186  1.00  0.00    -0.347 OA
BRANCH   7   8
HETATM    8  C10 UNL     1      23.655   3.240  49.786  1.00  0.00     0.214 C 
BRANCH   8   9
HETATM    9  C11 UNL     1      24.832   4.092  49.403  1.00  0.00    -0.034 A 
HETATM   10  C12 UNL     1      26.105   3.546  49.411  1.00  0.00     0.009 A 
HETATM   11  C13 UNL     1      27.161   4.385  49.045  1.00  0.00     0.001 A 
HETATM   12  C14 UNL     1      26.957   5.707  48.688  1.00  0.00     0.000 A 
HETATM   13  C15 UNL     1      25.671   6.223  48.690  1.00  0.00     0.001 A 
HETATM   14  C16 UNL     1      24.603   5.412  49.049  1.00  0.00     0.009 A 
ENDBRANCH   8   9
ENDBRANCH   7   8
ENDBRANCH   4   7
BRANCH   1  15
HETATM   15  C5  UNL     1      26.385  -0.065  54.777  1.00  0.00     0.159 C 
HETATM   16  O1  UNL     1      25.618  -0.853  55.429  1.00  0.00    -0.292 OA
BRANCH  15  17
HETATM   17  C4  UNL     1      27.858   0.119  54.820  1.00  0.00     0.087 C 
BRANCH  17  18
HETATM   18  C2  UNL     1      28.458  -0.257  53.487  1.00  0.00    -0.015 C 
HETATM   19  C1  UNL     1      28.043  -1.646  53.132  1.00  0.00     0.010 C 
HETATM   20  C3  UNL     1      29.944  -0.054  53.467  1.00  0.00     0.010 C 
ENDBRANCH  17  18
ENDBRANCH  15  17
ENDBRANCH   1  15
TORSDOF 6
ENDMDL
MODEL 3
REMARK VINA RESULT:      -7.2      2.401      3.329
REMARK  6 active torsions:
REMARK  status: ('A' for Active; 'I' for Inactive)
REMARK    1  A    between atoms: C2_2  and  C4_4 
REMARK    2  A    between atoms: C4_4  and  C5_5 
REMARK    3  A    between atoms: C5_5  and  C6_7 
REMARK    4  A    between atoms: C9_10  and  O2_11 
REMARK    5  A    between atoms: O2_11  and  C10_12 
REMARK    6  A    between atoms: C10_12  and  C11_13 
ROOT
HETATM    1  C6  UNL     1      25.153   0.458  52.656  1.00  0.00     0.010 A 
HETATM    2  C7  UNL     1      24.305   1.440  52.223  1.00  0.00     0.018 A 
HETATM    3  C8  UNL     1      22.957   1.507  52.547  1.00  0.00     0.037 A 
HETATM    4  C9  UNL     1      22.427   0.529  53.356  1.00  0.00     0.069 A 
HETATM    5  C17 UNL     1      23.237  -0.479  53.816  1.00  0.00     0.037 A 
HETATM    6  C18 UNL     1      24.571  -0.507  53.470  1.00  0.00     0.018 A 
ENDROOT
BRANCH   4   7
HETATM    7  O2  UNL     1      21.108   0.445  53.775  1.00  0.00    -0.347 OA
BRANCH   7   8
HETATM    8  C10 UNL     1      20.419  -0.773  53.885  1.00  0.00     0.214 C 
BRANCH   8   9
HETATM    9  C11 UNL     1      19.223  -0.656  52.984  1.00  0.00    -0.034 A 
HETATM   10  C12 UNL     1      18.050  -1.315  53.313  1.00  0.00     0.009 A 
HETATM   11  C13 UNL     1      16.970  -1.169  52.437  1.00  0.00     0.001 A 
HETATM   12  C14 UNL     1      17.056  -0.402  51.289  1.00  0.00     0.000 A 
HETATM   13  C15 UNL     1      18.244   0.245  50.988  1.00  0.00     0.001 A 
HETATM   14  C16 UNL     1      19.333   0.118  51.840  1.00  0.00     0.009 A 
ENDBRANCH   8   9
ENDBRANCH   7   8
ENDBRANCH   4   7
BRANCH   1  15
HETATM   15  C5  UNL     1      26.577   0.431  52.283  1.00  0.00     0.159 C 
HETATM   16  O1  UNL     1      26.928   1.467  51.623  1.00  0.00    -0.292 OA
BRANCH  15  17
HETATM   17  C4  UNL     1      27.354  -0.757  52.720  1.00  0.00     0.087 C 
BRANCH  17  18
HETATM   18  C2  UNL     1      28.595  -0.312  53.454  1.00  0.00    -0.015 C 
HETATM   19  C1  UNL     1      29.605  -1.411  53.428  1.00  0.00     0.010 C 
HETATM   20  C3  UNL     1      28.280   0.177  54.837  1.00  0.00     0.010 C 
ENDBRANCH  17  18
ENDBRANCH  15  17
ENDBRANCH   1  15
TORSDOF 6
ENDMDL
MODEL 4
REMARK VINA RESULT:      -7.1      3.646      7.089
REMARK  6 active torsions:
REMARK  status: ('A' for Active; 'I' for Inactive)
REMARK    1  A    between atoms: C2_2  and  C4_4 
REMARK    2  A    between atoms: C4_4  and  C5_5 
REMARK    3  A    between atoms: C5_5  and  C6_7 
REMARK    4  A    between atoms: C9_10  and  O2_11 
REMARK    5  A    between atoms: O2_11  and  C10_12 
REMARK    6  A    between atoms: C10_12  and  C11_13 
ROOT
HETATM    1  C6  UNL     1      24.887   0.674  52.616  1.00  0.00     0.010 A 
HETATM    2  C7  UNL     1      26.250   0.704  52.519  1.00  0.00     0.018 A 
HETATM    3  C8  UNL     1      26.959   1.619  51.752  1.00  0.00     0.037 A 
HETATM    4  C9  UNL     1      26.255   2.562  51.039  1.00  0.00     0.069 A 
HETATM    5  C17 UNL     1      24.884   2.573  51.103  1.00  0.00     0.037 A 
HETATM    6  C18 UNL     1      24.221   1.646  51.878  1.00  0.00     0.018 A 
ENDROOT
BRANCH   4   7
HETATM    7  O2  UNL     1      26.802   3.544  50.227  1.00  0.00    -0.347 OA
BRANCH   7   8
HETATM    8  C10 UNL     1      26.032   4.325  49.351  1.00  0.00     0.214 C 
BRANCH   8   9
HETATM    9  C11 UNL     1      26.980   5.320  48.743  1.00  0.00    -0.034 A 
HETATM   10  C12 UNL     1      26.512   6.567  48.361  1.00  0.00     0.009 A 
HETATM   11  C13 UNL     1      27.438   7.451  47.801  1.00  0.00     0.001 A 
HETATM   12  C14 UNL     1      28.768   7.109  47.631  1.00  0.00     0.000 A 
HETATM   13  C15 UNL     1      29.205   5.853  48.024  1.00  0.00     0.001 A 
HETATM   14  C16 UNL     1      28.307   4.954  48.583  1.00  0.00     0.009 A 
ENDBRANCH   8   9
ENDBRANCH   7   8
ENDBRANCH   4   7
BRANCH   1  15
HETATM   15  C5  UNL     1      24.181  -0.318  53.443  1.00  0.00     0.159 C 
HETATM   16  O1  UNL     1      24.918  -0.789  54.375  1.00  0.00    -0.292 OA
BRANCH  15  17
HETATM   17  C4  UNL     1      22.771  -0.605  53.077  1.00  0.00     0.087 C 
BRANCH  17  18
HETATM   18  C2  UNL     1      21.896  -0.506  54.303  1.00  0.00    -0.015 C 
HETATM   19  C1  UNL     1      21.457  -1.873  54.709  1.00  0.00     0.010 C 
HETATM   20  C3  UNL     1      20.757   0.451  54.100  1.00  0.00     0.010 C 
ENDBRANCH  17  18
ENDBRANCH  15  17
ENDBRANCH   1  15
TORSDOF 6
ENDMDL
MODEL 5
REMARK VINA RESULT:      -7.1      2.712      3.530
REMARK  6 active torsions:
REMARK  status: ('A' for Active; 'I' for Inactive)
REMARK    1  A    between atoms: C2_2  and  C4_4 
REMARK    2  A    between atoms: C4_4  and  C5_5 
REMARK    3  A    between atoms: C5_5  and  C6_7 
REMARK    4  A    between atoms: C9_10  and  O2_11 
REMARK    5  A    between atoms: O2_11  and  C10_12 
REMARK    6  A    between atoms: C10_12  and  C11_13 
ROOT
HETATM    1  C6  UNL     1      25.192   0.054  53.718  1.00  0.00     0.010 A 
HETATM    2  C7  UNL     1      24.338  -0.738  54.434  1.00  0.00     0.018 A 
HETATM    3  C8  UNL     1      22.977  -0.847  54.183  1.00  0.00     0.037 A 
HETATM    4  C9  UNL     1      22.441  -0.116  53.148  1.00  0.00     0.069 A 
HETATM    5  C17 UNL     1      23.256   0.695  52.399  1.00  0.00     0.037 A 
HETATM    6  C18 UNL     1      24.603   0.773  52.683  1.00  0.00     0.018 A 
ENDROOT
BRANCH   4   7
HETATM    7  O2  UNL     1      21.108  -0.107  52.763  1.00  0.00    -0.347 OA
BRANCH   7   8
HETATM    8  C10 UNL     1      20.063  -0.474  53.624  1.00  0.00     0.214 C 
BRANCH   8   9
HETATM    9  C11 UNL     1      18.832  -0.564  52.766  1.00  0.00    -0.034 A 
HETATM   10  C12 UNL     1      18.820   0.041  51.520  1.00  0.00     0.009 A 
HETATM   11  C13 UNL     1      17.648  -0.075  50.768  1.00  0.00     0.001 A 
HETATM   12  C14 UNL     1      16.541  -0.762  51.235  1.00  0.00     0.000 A 
HETATM   13  C15 UNL     1      16.586  -1.356  52.486  1.00  0.00     0.001 A 
HETATM   14  C16 UNL     1      17.737  -1.257  53.257  1.00  0.00     0.009 A 
ENDBRANCH   8   9
ENDBRANCH   7   8
ENDBRANCH   4   7
BRANCH   1  15
HETATM   15  C5  UNL     1      26.629   0.136  54.024  1.00  0.00     0.159 C 
HETATM   16  O1  UNL     1      26.854   0.641  55.177  1.00  0.00    -0.292 OA
BRANCH  15  17
HETATM   17  C4  UNL     1      27.560  -0.367  52.982  1.00  0.00     0.087 C 
BRANCH  17  18
HETATM   18  C2  UNL     1      28.776  -0.977  53.635  1.00  0.00    -0.015 C 
HETATM   19  C1  UNL     1      29.939  -0.054  53.474  1.00  0.00     0.010 C 
HETATM   20  C3  UNL     1      29.042  -2.366  53.134  1.00  0.00     0.010 C 
ENDBRANCH  17  18
ENDBRANCH  15  17
ENDBRANCH   1  15
TORSDOF 6
ENDMDL
MODEL 6
REMARK VINA RESULT:      -7.1      2.265      7.409
REMARK  6 active torsions:
REMARK  status: ('A' for Active; 'I' for Inactive)
REMARK    1  A    between atoms: C2_2  and  C4_4 
REMARK    2  A    between atoms: C4_4  and  C5_5 
REMARK    3  A    between atoms: C5_5  and  C6_7 
REMARK    4  A    between atoms: C9_10  and  O2_11 
REMARK    5  A    between atoms: O2_11  and  C10_12 
REMARK    6  A    between atoms: C10_12  and  C11_13 
ROOT
HETATM    1  C6  UNL     1      21.488   0.864  52.595  1.00  0.00     0.010 A 
HETATM    2  C7  UNL     1      21.609  -0.045  53.609  1.00  0.00     0.018 A 
HETATM    3  C8  UNL     1      22.820  -0.544  54.070  1.00  0.00     0.037 A 
HETATM    4  C9  UNL     1      23.980  -0.102  53.477  1.00  0.00     0.069 A 
HETATM    5  C17 UNL     1      23.911   0.811  52.455  1.00  0.00     0.037 A 
HETATM    6  C18 UNL     1      22.687   1.280  52.028  1.00  0.00     0.018 A 
ENDROOT
BRANCH   4   7
HETATM    7  O2  UNL     1      25.267  -0.495  53.813  1.00  0.00    -0.347 OA
BRANCH   7   8
HETATM    8  C10 UNL     1      26.088  -1.234  52.948  1.00  0.00     0.214 C 
BRANCH   8   9
HETATM    9  C11 UNL     1      27.489  -0.744  53.188  1.00  0.00    -0.034 A 
HETATM   10  C12 UNL     1      27.716   0.606  53.396  1.00  0.00     0.009 A 
HETATM   11  C13 UNL     1      29.038   1.004  53.614  1.00  0.00     0.001 A 
HETATM   12  C14 UNL     1      30.084   0.097  53.625  1.00  0.00     0.000 A 
HETATM   13  C15 UNL     1      29.823  -1.247  53.413  1.00  0.00     0.001 A 
HETATM   14  C16 UNL     1      28.519  -1.671  53.194  1.00  0.00     0.009 A 
ENDBRANCH   8   9
ENDBRANCH   7   8
ENDBRANCH   4   7
BRANCH   1  15
HETATM   15  C5  UNL     1      20.179   1.363  52.142  1.00  0.00     0.159 C 
HETATM   16  O1  UNL     1      19.820   2.423  52.759  1.00  0.00    -0.292 OA
BRANCH  15  17
HETATM   17  C4  UNL     1      19.506   0.582  51.073  1.00  0.00     0.087 C 
BRANCH  17  18
HETATM   18  C2  UNL     1      18.095   0.252  51.495  1.00  0.00    -0.015 C 
HETATM   19  C1  UNL     1      18.128  -0.821  52.533  1.00  0.00     0.010 C 
HETATM   20  C3  UNL     1      17.223  -0.081  50.320  1.00  0.00     0.010 C 
ENDBRANCH  17  18
ENDBRANCH  15  17
ENDBRANCH   1  15
TORSDOF 6
ENDMDL
MODEL 7
REMARK VINA RESULT:      -6.9      3.474      6.095
REMARK  6 active torsions:
REMARK  status: ('A' for Active; 'I' for Inactive)
REMARK    1  A    between atoms: C2_2  and  C4_4 
REMARK    2  A    between atoms: C4_4  and  C5_5 
REMARK    3  A    between atoms: C5_5  and  C6_7 
REMARK    4  A    between atoms: C9_10  and  O2_11 
REMARK    5  A    between atoms: O2_11  and  C10_12 
REMARK    6  A    between atoms: C10_12  and  C11_13 
ROOT
HETATM    1  C6  UNL     1      25.958   0.906  52.662  1.00  0.00     0.010 A 
HETATM    2  C7  UNL     1      26.704   1.259  51.572  1.00  0.00     0.018 A 
HETATM    3  C8  UNL     1      26.489   2.402  50.815  1.00  0.00     0.037 A 
HETATM    4  C9  UNL     1      25.462   3.244  51.175  1.00  0.00     0.069 A 
HETATM    5  C17 UNL     1      24.684   2.934  52.263  1.00  0.00     0.037 A 
HETATM    6  C18 UNL     1      24.933   1.788  52.987  1.00  0.00     0.018 A 
ENDROOT
BRANCH   4   7
HETATM    7  O2  UNL     1      25.111   4.422  50.533  1.00  0.00    -0.347 OA
BRANCH   7   8
HETATM    8  C10 UNL     1      25.127   4.563  49.137  1.00  0.00     0.214 C 
BRANCH   8   9
HETATM    9  C11 UNL     1      26.295   5.456  48.824  1.00  0.00    -0.034 A 
HETATM   10  C12 UNL     1      27.541   4.899  48.590  1.00  0.00     0.009 A 
HETATM   11  C13 UNL     1      28.589   5.779  48.305  1.00  0.00     0.001 A 
HETATM   12  C14 UNL     1      28.403   7.149  48.256  1.00  0.00     0.000 A 
HETATM   13  C15 UNL     1      27.143   7.676  48.495  1.00  0.00     0.001 A 
HETATM   14  C16 UNL     1      26.083   6.825  48.781  1.00  0.00     0.009 A 
ENDBRANCH   8   9
ENDBRANCH   7   8
ENDBRANCH   4   7
BRANCH   1  15
HETATM   15  C5  UNL     1      26.226  -0.319  53.433  1.00  0.00     0.159 C 
HETATM   16  O1  UNL     1      25.302  -0.576  54.278  1.00  0.00    -0.292 OA
BRANCH  15  17
HETATM   17  C4  UNL     1      27.484  -1.040  53.116  1.00  0.00     0.087 C 
BRANCH  17  18
HETATM   18  C2  UNL     1      28.665  -0.257  53.634  1.00  0.00    -0.015 C 
HETATM   19  C1  UNL     1      29.909  -1.066  53.464  1.00  0.00     0.010 C 
HETATM   20  C3  UNL     1      28.448   0.215  55.042  1.00  0.00     0.010 C 
ENDBRANCH  17  18
ENDBRANCH  15  17
ENDBRANCH   1  15
TORSDOF 6
ENDMDL
MODEL 8
REMARK VINA RESULT:      -6.7      2.389      3.256
REMARK  6 active torsions:
REMARK  status: ('A' for Active; 'I' for Inactive)
REMARK    1  A    between atoms: C2_2  and  C4_4 
REMARK    2  A    between atoms: C4_4  and  C5_5 
REMARK    3  A    between atoms: C5_5  and  C6_7 
REMARK    4  A    between atoms: C9_10  and  O2_11 
REMARK    5  A    between atoms: O2_11  and  C10_12 
REMARK    6  A    between atoms: C10_12  and  C11_13 
ROOT
HETATM    1  C6  UNL     1      25.138   0.429  53.626  1.00  0.00     0.010 A 
HETATM    2  C7  UNL     1      24.001  -0.283  53.360  1.00  0.00     0.018 A 
HETATM    3  C8  UNL     1      22.848   0.261  52.813  1.00  0.00     0.037 A 
HETATM    4  C9  UNL     1      22.834   1.604  52.513  1.00  0.00     0.069 A 
HETATM    5  C17 UNL     1      23.951   2.363  52.761  1.00  0.00     0.037 A 
HETATM    6  C18 UNL     1      25.075   1.781  53.306  1.00  0.00     0.018 A 
ENDROOT
BRANCH   4   7
HETATM    7  O2  UNL     1      21.771   2.305  51.965  1.00  0.00    -0.347 OA
BRANCH   7   8
HETATM    8  C10 UNL     1      20.534   2.443  52.613  1.00  0.00     0.214 C 
BRANCH   8   9
HETATM    9  C11 UNL     1      19.553   1.637  51.808  1.00  0.00    -0.034 A 
HETATM   10  C12 UNL     1      19.155   0.391  52.261  1.00  0.00     0.009 A 
HETATM   11  C13 UNL     1      18.242  -0.313  51.471  1.00  0.00     0.001 A 
HETATM   12  C14 UNL     1      17.749   0.202  50.285  1.00  0.00     0.000 A 
HETATM   13  C15 UNL     1      18.167   1.453  49.859  1.00  0.00     0.001 A 
HETATM   14  C16 UNL     1      19.074   2.175  50.624  1.00  0.00     0.009 A 
ENDBRANCH   8   9
ENDBRANCH   7   8
ENDBRANCH   4   7
BRANCH   1  15
HETATM   15  C5  UNL     1      26.337  -0.195  54.208  1.00  0.00     0.159 C 
HETATM   16  O1  UNL     1      26.182  -0.491  55.442  1.00  0.00    -0.292 OA
BRANCH  15  17
HETATM   17  C4  UNL     1      27.497  -0.378  53.300  1.00  0.00     0.087 C 
BRANCH  17  18
HETATM   18  C2  UNL     1      28.776  -0.067  54.039  1.00  0.00    -0.015 C 
HETATM   19  C1  UNL     1      29.009   1.407  54.026  1.00  0.00     0.010 C 
HETATM   20  C3  UNL     1      29.935  -0.859  53.506  1.00  0.00     0.010 C 
ENDBRANCH  17  18
ENDBRANCH  15  17
ENDBRANCH   1  15
TORSDOF 6
ENDMDL
MODEL 9
REMARK VINA RESULT:      -6.7      2.335      3.794
REMARK  6 active torsions:
REMARK  status: ('A' for Active; 'I' for Inactive)
REMARK    1  A    between atoms: C2_2  and  C4_4 
REMARK    2  A    between atoms: C4_4  and  C5_5 
REMARK    3  A    between atoms: C5_5  and  C6_7 
REMARK    4  A    between atoms: C9_10  and  O2_11 
REMARK    5  A    between atoms: O2_11  and  C10_12 
REMARK    6  A    between atoms: C10_12  and  C11_13 
ROOT
HETATM    1  C6  UNL     1      25.372   0.700  53.657  1.00  0.00     0.010 A 
HETATM    2  C7  UNL     1      24.170   0.266  53.169  1.00  0.00     0.018 A 
HETATM    3  C8  UNL     1      23.179   1.103  52.675  1.00  0.00     0.037 A 
HETATM    4  C9  UNL     1      23.408   2.460  52.671  1.00  0.00     0.069 A 
HETATM    5  C17 UNL     1      24.599   2.945  53.150  1.00  0.00     0.037 A 
HETATM    6  C18 UNL     1      25.556   2.078  53.632  1.00  0.00     0.018 A 
ENDROOT
BRANCH   4   7
HETATM    7  O2  UNL     1      22.531   3.433  52.216  1.00  0.00    -0.347 OA
BRANCH   7   8
HETATM    8  C10 UNL     1      22.817   4.267  51.124  1.00  0.00     0.214 C 
BRANCH   8   9
HETATM    9  C11 UNL     1      22.229   3.587  49.919  1.00  0.00    -0.034 A 
HETATM   10  C12 UNL     1      20.867   3.664  49.685  1.00  0.00     0.009 A 
HETATM   11  C13 UNL     1      20.377   3.013  48.550  1.00  0.00     0.001 A 
HETATM   12  C14 UNL     1      21.207   2.317  47.689  1.00  0.00     0.000 A 
HETATM   13  C15 UNL     1      22.567   2.259  47.951  1.00  0.00     0.001 A 
HETATM   14  C16 UNL     1      23.081   2.897  49.072  1.00  0.00     0.009 A 
ENDBRANCH   8   9
ENDBRANCH   7   8
ENDBRANCH   4   7
BRANCH   1  15
HETATM   15  C5  UNL     1      26.391  -0.229  54.171  1.00  0.00     0.159 C 
HETATM   16  O1  UNL     1      26.081  -0.711  55.314  1.00  0.00    -0.292 OA
BRANCH  15  17
HETATM   17  C4  UNL     1      27.578  -0.454  53.308  1.00  0.00     0.087 C 
BRANCH  17  18
HETATM   18  C2  UNL     1      28.839  -0.280  54.120  1.00  0.00    -0.015 C 
HETATM   19  C1  UNL     1      29.163   1.173  54.223  1.00  0.00     0.010 C 
HETATM   20  C3  UNL     1      29.969  -1.107  53.582  1.00  0.00     0.010 C 
ENDBRANCH  17  18
ENDBRANCH  15  17
ENDBRANCH   1  15
TORSDOF 6
ENDMDL
