MODEL 1
REMARK VINA RESULT:      -7.7      0.000      0.000
REMARK  10 active torsions:
REMARK  status: ('A' for Active; 'I' for Inactive)
REMARK    1  A    between atoms: C2_2  and  N1_3 
REMARK    2  A    between atoms: N1_3  and  C3_4 
REMARK    3  A    between atoms: C3_4  and  C4_5 
REMARK    4  A    between atoms: C5_6  and  C6_7 
REMARK    5  A    between atoms: C6_7  and  C7_8 
REMARK    6  A    between atoms: C6_7  and  C8_10 
REMARK    7  A    between atoms: C11_14  and  C12_15 
REMARK    8  A    between atoms: C12_15  and  C13_16 
REMARK    9  A    between atoms: N3_24  and  C20_25 
REMARK   10  A    between atoms: C20_25  and  N4_26 
ROOT
HETATM    1  C3  UNL     1      23.506   2.688  51.128  1.00  0.00     0.045 C 
HETATM    2  C9  UNL     1      24.772   2.627  51.467  1.00  0.00     0.038 A 
HETATM    3  C10 UNL     1      25.354   1.993  52.623  1.00  0.00     0.043 A 
HETATM    4  C11 UNL     1      26.696   2.139  52.617  1.00  0.00     0.016 A 
HETATM    5  N2  UNL     1      27.132   2.869  51.487  1.00  0.00    -0.344 N 
HETATM    6  C19 UNL     1      25.937   3.168  50.775  1.00  0.00     0.137 A 
HETATM    7  N3  UNL     1      25.889   3.835  49.673  1.00  0.00    -0.242 NA
HETATM    8  H20 UNL     1      28.134   3.082  51.328  1.00  0.00     0.167 HD
ENDROOT
BRANCH   1   9
HETATM    9  N1  UNL     1      23.015   3.320  49.989  1.00  0.00    -0.366 N 
HETATM   10  H4  UNL     1      23.098   4.346  50.233  1.00  0.00     0.165 HD
BRANCH   9  11
HETATM   11  C2  UNL     1      22.477   3.505  48.713  1.00  0.00     0.078 C 
HETATM   12  C1  UNL     1      22.644   4.558  47.955  1.00  0.00     0.029 C 
ENDBRANCH   9  11
ENDBRANCH   1   9
BRANCH   1  13
HETATM   13  C4  UNL     1      22.530   2.055  51.995  1.00  0.00     0.027 C 
HETATM   14  C5  UNL     1      22.265   0.774  51.984  1.00  0.00    -0.015 C 
BRANCH  14  15
HETATM   15  C6  UNL     1      21.412  -0.201  52.646  1.00  0.00     0.065 C 
BRANCH  15  16
HETATM   16  C7  UNL     1      22.203  -1.212  53.478  1.00  0.00     0.233 C 
HETATM   17  F1  UNL     1      23.550  -1.055  53.164  1.00  0.00    -0.255 F 
ENDBRANCH  15  16
BRANCH  15  18
HETATM   18  C8  UNL     1      20.480   0.473  53.666  1.00  0.00     0.233 C 
HETATM   19  F2  UNL     1      21.048   0.350  54.927  1.00  0.00    -0.255 F 
ENDBRANCH  15  18
ENDBRANCH  14  15
ENDBRANCH   1  13
BRANCH   4  20
HETATM   20  C12 UNL     1      27.486   1.546  53.747  1.00  0.00     0.095 C 
BRANCH  20  21
HETATM   21  C13 UNL     1      27.988   0.192  53.511  1.00  0.00    -0.053 A 
HETATM   22  C14 UNL     1      27.099  -0.786  53.045  1.00  0.00     0.007 A 
HETATM   23  C15 UNL     1      27.365  -2.113  52.748  1.00  0.00     0.001 A 
HETATM   24  C16 UNL     1      28.696  -2.477  52.953  1.00  0.00     0.000 A 
HETATM   25  C17 UNL     1      29.590  -1.530  53.410  1.00  0.00     0.001 A 
HETATM   26  C18 UNL     1      29.312  -0.209  53.702  1.00  0.00     0.007 A 
ENDBRANCH  20  21
ENDBRANCH   4  20
BRANCH   7  27
HETATM   27  C20 UNL     1      27.076   4.347  49.030  1.00  0.00     0.417 C 
BRANCH  27  28
HETATM   28  N4  UNL     1      27.316   5.735  49.291  1.00  0.00     0.097 N 
HETATM   29  H23 UNL     1      26.431   6.262  49.322  1.00  0.00     0.315 HD
HETATM   30  H24 UNL     1      27.887   5.935  50.130  1.00  0.00     0.315 HD
ENDBRANCH  27  28
ENDBRANCH   7  27
TORSDOF 10
ENDMDL
MODEL 2
REMARK VINA RESULT:      -7.6      2.285      5.710
REMARK  10 active torsions:
REMARK  status: ('A' for Active; 'I' for Inactive)
REMARK    1  A    between atoms: C2_2  and  N1_3 
REMARK    2  A    between atoms: N1_3  and  C3_4 
REMARK    3  A    between atoms: C3_4  and  C4_5 
REMARK    4  A    between atoms: C5_6  and  C6_7 
REMARK    5  A    between atoms: C6_7  and  C7_8 
REMARK    6  A    between atoms: C6_7  and  C8_10 
REMARK    7  A    between atoms: C11_14  and  C12_15 
REMARK    8  A    between atoms: C12_15  and  C13_16 
REMARK    9  A    between atoms: N3_24  and  C20_25 
REMARK   10  A    between atoms: C20_25  and  N4_26 
ROOT
HETATM    1  C3  UNL     1      24.472   0.909  52.773  1.00  0.00     0.045 C 
HETATM    2  C9  UNL     1      25.127   1.807  52.078  1.00  0.00     0.038 A 
HETATM    3  C10 UNL     1      24.657   2.579  50.954  1.00  0.00     0.043 A 
HETATM    4  C11 UNL     1      25.626   3.408  50.512  1.00  0.00     0.016 A 
HETATM    5  N2  UNL     1      26.809   3.275  51.275  1.00  0.00    -0.344 N 
HETATM    6  C19 UNL     1      26.495   2.283  52.246  1.00  0.00     0.137 A 
HETATM    7  N3  UNL     1      27.313   1.855  53.146  1.00  0.00    -0.242 NA
HETATM    8  H20 UNL     1      27.659   3.831  51.067  1.00  0.00     0.167 HD
ENDROOT
BRANCH   1   9
HETATM    9  N1  UNL     1      24.992   0.200  53.853  1.00  0.00    -0.366 N 
HETATM   10  H4  UNL     1      25.603   0.917  54.334  1.00  0.00     0.165 HD
BRANCH   9  11
HETATM   11  C2  UNL     1      25.246  -0.846  54.742  1.00  0.00     0.078 C 
HETATM   12  C1  UNL     1      24.491  -1.196  55.752  1.00  0.00     0.029 C 
ENDBRANCH   9  11
ENDBRANCH   1   9
BRANCH   1  13
HETATM   13  C4  UNL     1      23.100   0.617  52.403  1.00  0.00     0.027 C 
HETATM   14  C5  UNL     1      22.110   0.553  53.256  1.00  0.00    -0.015 C 
BRANCH  14  15
HETATM   15  C6  UNL     1      20.677   0.303  53.297  1.00  0.00     0.065 C 
BRANCH  15  16
HETATM   16  C7  UNL     1      20.051   0.219  51.904  1.00  0.00     0.233 C 
HETATM   17  F1  UNL     1      18.742  -0.229  52.056  1.00  0.00    -0.255 F 
ENDBRANCH  15  16
BRANCH  15  18
HETATM   18  C8  UNL     1      20.366  -1.064  53.928  1.00  0.00     0.233 C 
HETATM   19  F2  UNL     1      21.316  -1.319  54.909  1.00  0.00    -0.255 F 
ENDBRANCH  15  18
ENDBRANCH  14  15
ENDBRANCH   1  13
BRANCH   4  20
HETATM   20  C12 UNL     1      25.329   4.297  49.339  1.00  0.00     0.095 C 
BRANCH  20  21
HETATM   21  C13 UNL     1      26.387   5.248  48.997  1.00  0.00    -0.053 A 
HETATM   22  C14 UNL     1      27.642   4.754  48.619  1.00  0.00     0.007 A 
HETATM   23  C15 UNL     1      28.768   5.472  48.248  1.00  0.00     0.001 A 
HETATM   24  C16 UNL     1      28.584   6.854  48.269  1.00  0.00     0.000 A 
HETATM   25  C17 UNL     1      27.356   7.363  48.638  1.00  0.00     0.001 A 
HETATM   26  C18 UNL     1      26.239   6.637  49.005  1.00  0.00     0.007 A 
ENDBRANCH  20  21
ENDBRANCH   4  20
BRANCH   7  27
HETATM   27  C20 UNL     1      28.660   2.364  53.268  1.00  0.00     0.417 C 
BRANCH  27  28
HETATM   28  N4  UNL     1      29.259   2.096  54.541  1.00  0.00     0.097 N 
HETATM   29  H23 UNL     1      29.798   1.219  54.518  1.00  0.00     0.315 HD
HETATM   30  H24 UNL     1      29.831   2.864  54.931  1.00  0.00     0.315 HD
ENDBRANCH  27  28
ENDBRANCH   7  27
TORSDOF 10
ENDMDL
MODEL 3
REMARK VINA RESULT:      -7.3      1.444      1.634
REMARK  10 active torsions:
REMARK  status: ('A' for Active; 'I' for Inactive)
REMARK    1  A    between atoms: C2_2  and  N1_3 
REMARK    2  A    between atoms: N1_3  and  C3_4 
REMARK    3  A    between atoms: C3_4  and  C4_5 
REMARK    4  A    between atoms: C5_6  and  C6_7 
REMARK    5  A    between atoms: C6_7  and  C7_8 
REMARK    6  A    between atoms: C6_7  and  C8_10 
REMARK    7  A    between atoms: C11_14  and  C12_15 
REMARK    8  A    between atoms: C12_15  and  C13_16 
REMARK    9  A    between atoms: N3_24  and  C20_25 
REMARK   10  A    between atoms: C20_25  and  N4_26 
ROOT
HETATM    1  C3  UNL     1      23.588   2.039  50.844  1.00  0.00     0.045 C 
HETATM    2  C9  UNL     1      24.808   2.215  51.292  1.00  0.00     0.038 A 
HETATM    3  C10 UNL     1      25.410   1.656  52.476  1.00  0.00     0.043 A 
HETATM    4  C11 UNL     1      26.691   2.065  52.594  1.00  0.00     0.016 A 
HETATM    5  N2  UNL     1      27.062   2.918  51.528  1.00  0.00    -0.344 N 
HETATM    6  C19 UNL     1      25.893   3.007  50.723  1.00  0.00     0.137 A 
HETATM    7  N3  UNL     1      25.801   3.701  49.640  1.00  0.00    -0.242 NA
HETATM    8  H20 UNL     1      28.010   3.333  51.465  1.00  0.00     0.167 HD
ENDROOT
BRANCH   1   9
HETATM    9  N1  UNL     1      23.073   2.613  49.685  1.00  0.00    -0.366 N 
HETATM   10  H4  UNL     1      22.736   3.559  50.018  1.00  0.00     0.165 HD
BRANCH   9  11
HETATM   11  C2  UNL     1      22.702   2.776  48.348  1.00  0.00     0.078 C 
HETATM   12  C1  UNL     1      21.819   2.056  47.705  1.00  0.00     0.029 C 
ENDBRANCH   9  11
ENDBRANCH   1   9
BRANCH   1  13
HETATM   13  C4  UNL     1      22.692   1.187  51.602  1.00  0.00     0.027 C 
HETATM   14  C5  UNL     1      21.459   0.926  51.251  1.00  0.00    -0.015 C 
BRANCH  14  15
HETATM   15  C6  UNL     1      20.300   0.172  51.701  1.00  0.00     0.065 C 
BRANCH  15  16
HETATM   16  C7  UNL     1      20.123   0.207  53.219  1.00  0.00     0.233 C 
HETATM   17  F1  UNL     1      20.661  -0.969  53.735  1.00  0.00    -0.255 F 
ENDBRANCH  15  16
BRANCH  15  18
HETATM   18  C8  UNL     1      18.995   0.776  51.159  1.00  0.00     0.233 C 
HETATM   19  F2  UNL     1      19.000   0.660  49.775  1.00  0.00    -0.255 F 
ENDBRANCH  15  18
ENDBRANCH  14  15
ENDBRANCH   1  13
BRANCH   4  20
HETATM   20  C12 UNL     1      27.490   1.590  53.772  1.00  0.00     0.095 C 
BRANCH  20  21
HETATM   21  C13 UNL     1      28.147   0.293  53.595  1.00  0.00    -0.053 A 
HETATM   22  C14 UNL     1      27.383  -0.795  53.152  1.00  0.00     0.007 A 
HETATM   23  C15 UNL     1      27.803  -2.093  52.909  1.00  0.00     0.001 A 
HETATM   24  C16 UNL     1      29.163  -2.296  53.149  1.00  0.00     0.000 A 
HETATM   25  C17 UNL     1      29.934  -1.238  53.584  1.00  0.00     0.001 A 
HETATM   26  C18 UNL     1      29.503   0.052  53.822  1.00  0.00     0.007 A 
ENDBRANCH  20  21
ENDBRANCH   4  20
BRANCH   7  27
HETATM   27  C20 UNL     1      26.909   4.468  49.120  1.00  0.00     0.417 C 
BRANCH  27  28
HETATM   28  N4  UNL     1      26.878   5.848  49.499  1.00  0.00     0.097 N 
HETATM   29  H23 UNL     1      26.369   6.411  48.802  1.00  0.00     0.315 HD
HETATM   30  H24 UNL     1      26.520   6.038  50.450  1.00  0.00     0.315 HD
ENDBRANCH  27  28
ENDBRANCH   7  27
TORSDOF 10
ENDMDL
MODEL 4
REMARK VINA RESULT:      -7.2      2.210      6.204
REMARK  10 active torsions:
REMARK  status: ('A' for Active; 'I' for Inactive)
REMARK    1  A    between atoms: C2_2  and  N1_3 
REMARK    2  A    between atoms: N1_3  and  C3_4 
REMARK    3  A    between atoms: C3_4  and  C4_5 
REMARK    4  A    between atoms: C5_6  and  C6_7 
REMARK    5  A    between atoms: C6_7  and  C7_8 
REMARK    6  A    between atoms: C6_7  and  C8_10 
REMARK    7  A    between atoms: C11_14  and  C12_15 
REMARK    8  A    between atoms: C12_15  and  C13_16 
REMARK    9  A    between atoms: N3_24  and  C20_25 
REMARK   10  A    between atoms: C20_25  and  N4_26 
ROOT
HETATM    1  C3  UNL     1      25.389   2.656  51.193  1.00  0.00     0.045 C 
HETATM    2  C9  UNL     1      24.179   2.448  51.654  1.00  0.00     0.038 A 
HETATM    3  C10 UNL     1      23.652   1.253  52.263  1.00  0.00     0.043 A 
HETATM    4  C11 UNL     1      22.361   1.431  52.616  1.00  0.00     0.016 A 
HETATM    5  N2  UNL     1      21.909   2.729  52.285  1.00  0.00    -0.344 N 
HETATM    6  C19 UNL     1      23.039   3.357  51.690  1.00  0.00     0.137 A 
HETATM    7  N3  UNL     1      23.051   4.564  51.237  1.00  0.00    -0.242 NA
HETATM    8  H20 UNL     1      20.937   3.034  52.477  1.00  0.00     0.167 HD
ENDROOT
BRANCH   1   9
HETATM    9  N1  UNL     1      25.830   3.844  50.617  1.00  0.00    -0.366 N 
HETATM   10  H4  UNL     1      26.106   4.427  51.455  1.00  0.00     0.165 HD
BRANCH   9  11
HETATM   11  C2  UNL     1      26.159   4.795  49.648  1.00  0.00     0.078 C 
HETATM   12  C1  UNL     1      27.191   4.747  48.845  1.00  0.00     0.029 C 
ENDBRANCH   9  11
ENDBRANCH   1   9
BRANCH   1  13
HETATM   13  C4  UNL     1      26.354   1.577  51.282  1.00  0.00     0.027 C 
HETATM   14  C5  UNL     1      26.797   1.084  52.410  1.00  0.00    -0.015 C 
BRANCH  14  15
HETATM   15  C6  UNL     1      27.710   0.065  52.907  1.00  0.00     0.065 C 
BRANCH  15  16
HETATM   16  C7  UNL     1      28.066   0.259  54.382  1.00  0.00     0.233 C 
HETATM   17  F1  UNL     1      29.216  -0.483  54.639  1.00  0.00    -0.255 F 
ENDBRANCH  15  16
BRANCH  15  18
HETATM   18  C8  UNL     1      27.070  -1.331  52.858  1.00  0.00     0.233 C 
HETATM   19  F2  UNL     1      25.872  -1.289  53.559  1.00  0.00    -0.255 F 
ENDBRANCH  15  18
ENDBRANCH  14  15
ENDBRANCH   1  13
BRANCH   4  20
HETATM   20  C12 UNL     1      21.632   0.291  53.266  1.00  0.00     0.095 C 
BRANCH  20  21
HETATM   21  C13 UNL     1      20.310   0.002  52.709  1.00  0.00    -0.053 A 
HETATM   22  C14 UNL     1      19.401  -0.739  53.477  1.00  0.00     0.007 A 
HETATM   23  C15 UNL     1      18.107  -1.110  53.149  1.00  0.00     0.001 A 
HETATM   24  C16 UNL     1      17.701  -0.673  51.888  1.00  0.00     0.000 A 
HETATM   25  C17 UNL     1      18.578   0.059  51.115  1.00  0.00     0.001 A 
HETATM   26  C18 UNL     1      19.867   0.424  51.453  1.00  0.00     0.007 A 
ENDBRANCH  20  21
ENDBRANCH   4  20
BRANCH   7  27
HETATM   27  C20 UNL     1      21.891   5.423  51.300  1.00  0.00     0.417 C 
BRANCH  27  28
HETATM   28  N4  UNL     1      22.213   6.806  51.482  1.00  0.00     0.097 N 
HETATM   29  H23 UNL     1      22.657   6.965  52.397  1.00  0.00     0.315 HD
HETATM   30  H24 UNL     1      22.777   7.232  50.726  1.00  0.00     0.315 HD
ENDBRANCH  27  28
ENDBRANCH   7  27
TORSDOF 10
ENDMDL
MODEL 5
REMARK VINA RESULT:      -7.0      1.869      5.563
REMARK  10 active torsions:
REMARK  status: ('A' for Active; 'I' for Inactive)
REMARK    1  A    between atoms: C2_2  and  N1_3 
REMARK    2  A    between atoms: N1_3  and  C3_4 
REMARK    3  A    between atoms: C3_4  and  C4_5 
REMARK    4  A    between atoms: C5_6  and  C6_7 
REMARK    5  A    between atoms: C6_7  and  C7_8 
REMARK    6  A    between atoms: C6_7  and  C8_10 
REMARK    7  A    between atoms: C11_14  and  C12_15 
REMARK    8  A    between atoms: C12_15  and  C13_16 
REMARK    9  A    between atoms: N3_24  and  C20_25 
REMARK   10  A    between atoms: C20_25  and  N4_26 
ROOT
HETATM    1  C3  UNL     1      24.961   3.368  50.496  1.00  0.00     0.045 C 
HETATM    2  C9  UNL     1      23.812   2.809  50.201  1.00  0.00     0.038 A 
HETATM    3  C10 UNL     1      23.167   1.700  50.859  1.00  0.00     0.043 A 
HETATM    4  C11 UNL     1      21.987   1.419  50.267  1.00  0.00     0.016 A 
HETATM    5  N2  UNL     1      21.733   2.290  49.181  1.00  0.00    -0.344 N 
HETATM    6  C19 UNL     1      22.865   3.150  49.145  1.00  0.00     0.137 A 
HETATM    7  N3  UNL     1      23.037   4.099  48.288  1.00  0.00    -0.242 NA
HETATM    8  H20 UNL     1      20.874   2.210  48.607  1.00  0.00     0.167 HD
ENDROOT
BRANCH   1   9
HETATM    9  N1  UNL     1      25.523   4.443  49.813  1.00  0.00    -0.366 N 
HETATM   10  H4  UNL     1      24.677   5.007  49.521  1.00  0.00     0.165 HD
BRANCH   9  11
HETATM   11  C2  UNL     1      26.480   5.290  49.250  1.00  0.00     0.078 C 
HETATM   12  C1  UNL     1      27.577   4.914  48.644  1.00  0.00     0.029 C 
ENDBRANCH   9  11
ENDBRANCH   1   9
BRANCH   1  13
HETATM   13  C4  UNL     1      25.718   2.838  51.613  1.00  0.00     0.027 C 
HETATM   14  C5  UNL     1      26.587   1.865  51.511  1.00  0.00    -0.015 C 
BRANCH  14  15
HETATM   15  C6  UNL     1      27.500   1.085  52.333  1.00  0.00     0.065 C 
BRANCH  15  16
HETATM   16  C7  UNL     1      27.758   1.721  53.699  1.00  0.00     0.233 C 
HETATM   17  F1  UNL     1      28.563   2.840  53.499  1.00  0.00    -0.255 F 
ENDBRANCH  15  16
BRANCH  15  18
HETATM   18  C8  UNL     1      26.911  -0.294  52.668  1.00  0.00     0.233 C 
HETATM   19  F2  UNL     1      25.545  -0.259  52.422  1.00  0.00    -0.255 F 
ENDBRANCH  15  18
ENDBRANCH  14  15
ENDBRANCH   1  13
BRANCH   4  20
HETATM   20  C12 UNL     1      21.164   0.287  50.809  1.00  0.00     0.095 C 
BRANCH  20  21
HETATM   21  C13 UNL     1      21.256   0.091  52.257  1.00  0.00    -0.053 A 
HETATM   22  C14 UNL     1      22.167  -0.852  52.753  1.00  0.00     0.007 A 
HETATM   23  C15 UNL     1      22.420  -1.183  54.075  1.00  0.00     0.001 A 
HETATM   24  C16 UNL     1      21.650  -0.466  54.990  1.00  0.00     0.000 A 
HETATM   25  C17 UNL     1      20.747   0.468  54.524  1.00  0.00     0.001 A 
HETATM   26  C18 UNL     1      20.504   0.790  53.203  1.00  0.00     0.007 A 
ENDBRANCH  20  21
ENDBRANCH   4  20
BRANCH   7  27
HETATM   27  C20 UNL     1      22.064   4.395  47.262  1.00  0.00     0.417 C 
BRANCH  27  28
HETATM   28  N4  UNL     1      21.504   5.709  47.368  1.00  0.00     0.097 N 
HETATM   29  H23 UNL     1      21.384   5.981  48.354  1.00  0.00     0.315 HD
HETATM   30  H24 UNL     1      22.006   6.447  46.846  1.00  0.00     0.315 HD
ENDBRANCH  27  28
ENDBRANCH   7  27
TORSDOF 10
ENDMDL
MODEL 6
REMARK VINA RESULT:      -7.0      2.058      2.986
REMARK  10 active torsions:
REMARK  status: ('A' for Active; 'I' for Inactive)
REMARK    1  A    between atoms: C2_2  and  N1_3 
REMARK    2  A    between atoms: N1_3  and  C3_4 
REMARK    3  A    between atoms: C3_4  and  C4_5 
REMARK    4  A    between atoms: C5_6  and  C6_7 
REMARK    5  A    between atoms: C6_7  and  C7_8 
REMARK    6  A    between atoms: C6_7  and  C8_10 
REMARK    7  A    between atoms: C11_14  and  C12_15 
REMARK    8  A    between atoms: C12_15  and  C13_16 
REMARK    9  A    between atoms: N3_24  and  C20_25 
REMARK   10  A    between atoms: C20_25  and  N4_26 
ROOT
HETATM    1  C3  UNL     1      21.941   2.720  51.961  1.00  0.00     0.045 C 
HETATM    2  C9  UNL     1      23.138   3.119  51.603  1.00  0.00     0.038 A 
HETATM    3  C10 UNL     1      24.366   2.364  51.608  1.00  0.00     0.043 A 
HETATM    4  C11 UNL     1      25.389   3.121  51.159  1.00  0.00     0.016 A 
HETATM    5  N2  UNL     1      24.958   4.425  50.821  1.00  0.00    -0.344 N 
HETATM    6  C19 UNL     1      23.562   4.419  51.096  1.00  0.00     0.137 A 
HETATM    7  N3  UNL     1      22.779   5.429  50.928  1.00  0.00    -0.242 NA
HETATM    8  H20 UNL     1      25.616   5.143  50.467  1.00  0.00     0.167 HD
ENDROOT
BRANCH   1   9
HETATM    9  N1  UNL     1      20.794   3.509  51.928  1.00  0.00    -0.366 N 
HETATM   10  H4  UNL     1      21.015   4.276  52.623  1.00  0.00     0.165 HD
BRANCH   9  11
HETATM   11  C2  UNL     1      19.524   3.972  51.579  1.00  0.00     0.078 C 
HETATM   12  C1  UNL     1      18.425   3.262  51.568  1.00  0.00     0.029 C 
ENDBRANCH   9  11
ENDBRANCH   1   9
BRANCH   1  13
HETATM   13  C4  UNL     1      21.781   1.358  52.431  1.00  0.00     0.027 C 
HETATM   14  C5  UNL     1      21.173   1.035  53.544  1.00  0.00    -0.015 C 
BRANCH  14  15
HETATM   15  C6  UNL     1      20.819  -0.137  54.330  1.00  0.00     0.065 C 
BRANCH  15  16
HETATM   16  C7  UNL     1      19.878  -1.087  53.588  1.00  0.00     0.233 C 
HETATM   17  F1  UNL     1      18.973  -0.309  52.871  1.00  0.00    -0.255 F 
ENDBRANCH  15  16
BRANCH  15  18
HETATM   18  C8  UNL     1      22.054  -0.999  54.637  1.00  0.00     0.233 C 
HETATM   19  F2  UNL     1      21.759  -2.317  54.316  1.00  0.00    -0.255 F 
ENDBRANCH  15  18
ENDBRANCH  14  15
ENDBRANCH   1  13
BRANCH   4  20
HETATM   20  C12 UNL     1      26.758   2.509  51.093  1.00  0.00     0.095 C 
BRANCH  20  21
HETATM   21  C13 UNL     1      27.073   1.573  52.173  1.00  0.00    -0.053 A 
HETATM   22  C14 UNL     1      26.809   0.210  51.983  1.00  0.00     0.007 A 
HETATM   23  C15 UNL     1      27.039  -0.837  52.861  1.00  0.00     0.001 A 
HETATM   24  C16 UNL     1      27.602  -0.438  54.074  1.00  0.00     0.000 A 
HETATM   25  C17 UNL     1      27.871   0.899  54.283  1.00  0.00     0.001 A 
HETATM   26  C18 UNL     1      27.638   1.934  53.398  1.00  0.00     0.007 A 
ENDBRANCH  20  21
ENDBRANCH   4  20
BRANCH   7  27
HETATM   27  C20 UNL     1      23.253   6.696  50.419  1.00  0.00     0.417 C 
BRANCH  27  28
HETATM   28  N4  UNL     1      23.802   7.549  51.430  1.00  0.00     0.097 N 
HETATM   29  H23 UNL     1      24.438   8.246  51.019  1.00  0.00     0.315 HD
HETATM   30  H24 UNL     1      23.109   8.008  52.046  1.00  0.00     0.315 HD
ENDBRANCH  27  28
ENDBRANCH   7  27
TORSDOF 10
ENDMDL
MODEL 7
REMARK VINA RESULT:      -6.9      1.904      5.441
REMARK  10 active torsions:
REMARK  status: ('A' for Active; 'I' for Inactive)
REMARK    1  A    between atoms: C2_2  and  N1_3 
REMARK    2  A    between atoms: N1_3  and  C3_4 
REMARK    3  A    between atoms: C3_4  and  C4_5 
REMARK    4  A    between atoms: C5_6  and  C6_7 
REMARK    5  A    between atoms: C6_7  and  C7_8 
REMARK    6  A    between atoms: C6_7  and  C8_10 
REMARK    7  A    between atoms: C11_14  and  C12_15 
REMARK    8  A    between atoms: C12_15  and  C13_16 
REMARK    9  A    between atoms: N3_24  and  C20_25 
REMARK   10  A    between atoms: C20_25  and  N4_26 
ROOT
HETATM    1  C3  UNL     1      25.778   2.965  50.477  1.00  0.00     0.045 C 
HETATM    2  C9  UNL     1      24.497   2.756  50.285  1.00  0.00     0.038 A 
HETATM    3  C10 UNL     1      23.680   1.692  50.812  1.00  0.00     0.043 A 
HETATM    4  C11 UNL     1      22.403   1.824  50.394  1.00  0.00     0.016 A 
HETATM    5  N2  UNL     1      22.246   2.960  49.566  1.00  0.00    -0.344 N 
HETATM    6  C19 UNL     1      23.545   3.536  49.502  1.00  0.00     0.137 A 
HETATM    7  N3  UNL     1      23.843   4.598  48.835  1.00  0.00    -0.242 NA
HETATM    8  H20 UNL     1      21.329   3.208  49.149  1.00  0.00     0.167 HD
ENDROOT
BRANCH   1   9
HETATM    9  N1  UNL     1      26.504   4.021  49.934  1.00  0.00    -0.366 N 
HETATM   10  H4  UNL     1      26.339   4.803  50.626  1.00  0.00     0.165 HD
BRANCH   9  11
HETATM   11  C2  UNL     1      27.325   4.747  49.068  1.00  0.00     0.078 C 
HETATM   12  C1  UNL     1      27.072   5.939  48.590  1.00  0.00     0.029 C 
ENDBRANCH   9  11
ENDBRANCH   1   9
BRANCH   1  13
HETATM   13  C4  UNL     1      26.509   2.033  51.315  1.00  0.00     0.027 C 
HETATM   14  C5  UNL     1      26.624   2.153  52.612  1.00  0.00    -0.015 C 
BRANCH  14  15
HETATM   15  C6  UNL     1      27.232   1.482  53.751  1.00  0.00     0.065 C 
BRANCH  15  16
HETATM   16  C7  UNL     1      27.003  -0.030  53.740  1.00  0.00     0.233 C 
HETATM   17  F1  UNL     1      25.679  -0.260  54.102  1.00  0.00    -0.255 F 
ENDBRANCH  15  16
BRANCH  15  18
HETATM   18  C8  UNL     1      28.762   1.628  53.735  1.00  0.00     0.233 C 
HETATM   19  F2  UNL     1      29.072   2.966  53.530  1.00  0.00    -0.255 F 
ENDBRANCH  15  18
ENDBRANCH  14  15
ENDBRANCH   1  13
BRANCH   4  20
HETATM   20  C12 UNL     1      21.395   0.805  50.837  1.00  0.00     0.095 C 
BRANCH  20  21
HETATM   21  C13 UNL     1      21.578   0.301  52.199  1.00  0.00    -0.053 A 
HETATM   22  C14 UNL     1      20.805   0.851  53.231  1.00  0.00     0.007 A 
HETATM   23  C15 UNL     1      20.811   0.516  54.575  1.00  0.00     0.001 A 
HETATM   24  C16 UNL     1      21.714  -0.498  54.897  1.00  0.00     0.000 A 
HETATM   25  C17 UNL     1      22.485  -1.054  53.897  1.00  0.00     0.001 A 
HETATM   26  C18 UNL     1      22.469  -0.712  52.558  1.00  0.00     0.007 A 
ENDBRANCH  20  21
ENDBRANCH   4  20
BRANCH   7  27
HETATM   27  C20 UNL     1      22.857   5.334  48.078  1.00  0.00     0.417 C 
BRANCH  27  28
HETATM   28  N4  UNL     1      22.592   6.640  48.601  1.00  0.00     0.097 N 
HETATM   29  H23 UNL     1      23.225   7.340  48.187  1.00  0.00     0.315 HD
HETATM   30  H24 UNL     1      21.609   6.954  48.530  1.00  0.00     0.315 HD
ENDBRANCH  27  28
ENDBRANCH   7  27
TORSDOF 10
ENDMDL
MODEL 8
REMARK VINA RESULT:      -6.9      2.317      5.993
REMARK  10 active torsions:
REMARK  status: ('A' for Active; 'I' for Inactive)
REMARK    1  A    between atoms: C2_2  and  N1_3 
REMARK    2  A    between atoms: N1_3  and  C3_4 
REMARK    3  A    between atoms: C3_4  and  C4_5 
REMARK    4  A    between atoms: C5_6  and  C6_7 
REMARK    5  A    between atoms: C6_7  and  C7_8 
REMARK    6  A    between atoms: C6_7  and  C8_10 
REMARK    7  A    between atoms: C11_14  and  C12_15 
REMARK    8  A    between atoms: C12_15  and  C13_16 
REMARK    9  A    between atoms: N3_24  and  C20_25 
REMARK   10  A    between atoms: C20_25  and  N4_26 
ROOT
HETATM    1  C3  UNL     1      24.565   0.861  52.559  1.00  0.00     0.045 C 
HETATM    2  C9  UNL     1      25.323   1.753  51.969  1.00  0.00     0.038 A 
HETATM    3  C10 UNL     1      25.021   2.548  50.805  1.00  0.00     0.043 A 
HETATM    4  C11 UNL     1      26.056   3.362  50.506  1.00  0.00     0.016 A 
HETATM    5  N2  UNL     1      27.125   3.195  51.417  1.00  0.00    -0.344 N 
HETATM    6  C19 UNL     1      26.666   2.198  52.323  1.00  0.00     0.137 A 
HETATM    7  N3  UNL     1      27.350   1.743  53.317  1.00  0.00    -0.242 NA
HETATM    8  H20 UNL     1      28.005   3.736  51.331  1.00  0.00     0.167 HD
ENDROOT
BRANCH   1   9
HETATM    9  N1  UNL     1      24.924   0.128  53.687  1.00  0.00    -0.366 N 
HETATM   10  H4  UNL     1      25.867   0.534  53.942  1.00  0.00     0.165 HD
BRANCH   9  11
HETATM   11  C2  UNL     1      24.866  -0.801  54.728  1.00  0.00     0.078 C 
HETATM   12  C1  UNL     1      23.781  -1.194  55.346  1.00  0.00     0.029 C 
ENDBRANCH   9  11
ENDBRANCH   1   9
BRANCH   1  13
HETATM   13  C4  UNL     1      23.249   0.602  52.007  1.00  0.00     0.027 C 
HETATM   14  C5  UNL     1      22.135   0.728  52.682  1.00  0.00    -0.015 C 
BRANCH  14  15
HETATM   15  C6  UNL     1      20.698   0.576  52.514  1.00  0.00     0.065 C 
BRANCH  15  16
HETATM   16  C7  UNL     1      20.026  -0.076  53.723  1.00  0.00     0.233 C 
HETATM   17  F1  UNL     1      20.576   0.491  54.869  1.00  0.00    -0.255 F 
ENDBRANCH  15  16
BRANCH  15  18
HETATM   18  C8  UNL     1      20.002   1.941  52.390  1.00  0.00     0.233 C 
HETATM   19  F2  UNL     1      20.869   2.918  52.860  1.00  0.00    -0.255 F 
ENDBRANCH  15  18
ENDBRANCH  14  15
ENDBRANCH   1  13
BRANCH   4  20
HETATM   20  C12 UNL     1      25.933   4.270  49.318  1.00  0.00     0.095 C 
BRANCH  20  21
HETATM   21  C13 UNL     1      24.931   5.330  49.447  1.00  0.00    -0.053 A 
HETATM   22  C14 UNL     1      25.119   6.320  50.421  1.00  0.00     0.007 A 
HETATM   23  C15 UNL     1      24.307   7.408  50.701  1.00  0.00     0.001 A 
HETATM   24  C16 UNL     1      23.175   7.487  49.890  1.00  0.00     0.000 A 
HETATM   25  C17 UNL     1      22.971   6.523  48.925  1.00  0.00     0.001 A 
HETATM   26  C18 UNL     1      23.787   5.443  48.654  1.00  0.00     0.007 A 
ENDBRANCH  20  21
ENDBRANCH   4  20
BRANCH   7  27
HETATM   27  C20 UNL     1      28.678   2.222  53.623  1.00  0.00     0.417 C 
BRANCH  27  28
HETATM   28  N4  UNL     1      29.680   1.200  53.573  1.00  0.00     0.097 N 
HETATM   29  H23 UNL     1      29.284   0.311  53.234  1.00  0.00     0.315 HD
HETATM   30  H24 UNL     1      30.533   1.443  53.042  1.00  0.00     0.315 HD
ENDBRANCH  27  28
ENDBRANCH   7  27
TORSDOF 10
ENDMDL
MODEL 9
REMARK VINA RESULT:      -6.8      5.088      7.749
REMARK  10 active torsions:
REMARK  status: ('A' for Active; 'I' for Inactive)
REMARK    1  A    between atoms: C2_2  and  N1_3 
REMARK    2  A    between atoms: N1_3  and  C3_4 
REMARK    3  A    between atoms: C3_4  and  C4_5 
REMARK    4  A    between atoms: C5_6  and  C6_7 
REMARK    5  A    between atoms: C6_7  and  C7_8 
REMARK    6  A    between atoms: C6_7  and  C8_10 
REMARK    7  A    between atoms: C11_14  and  C12_15 
REMARK    8  A    between atoms: C12_15  and  C13_16 
REMARK    9  A    between atoms: N3_24  and  C20_25 
REMARK   10  A    between atoms: C20_25  and  N4_26 
ROOT
HETATM    1  C3  UNL     1      28.099   6.667  48.726  1.00  0.00     0.045 C 
HETATM    2  C9  UNL     1      29.241   7.015  48.184  1.00  0.00     0.038 A 
HETATM    3  C10 UNL     1      30.095   6.231  47.327  1.00  0.00     0.043 A 
HETATM    4  C11 UNL     1      31.183   6.942  46.964  1.00  0.00     0.016 A 
HETATM    5  N2  UNL     1      31.166   8.238  47.530  1.00  0.00    -0.344 N 
HETATM    6  C19 UNL     1      29.960   8.280  48.284  1.00  0.00     0.137 A 
HETATM    7  N3  UNL     1      29.561   9.296  48.970  1.00  0.00    -0.242 NA
HETATM    8  H20 UNL     1      31.931   8.917  47.363  1.00  0.00     0.167 HD
ENDROOT
BRANCH   1   9
HETATM    9  N1  UNL     1      27.324   7.482  49.547  1.00  0.00    -0.366 N 
HETATM   10  H4  UNL     1      28.048   8.010  50.108  1.00  0.00     0.165 HD
BRANCH   9  11
HETATM   11  C2  UNL     1      26.205   8.080  50.131  1.00  0.00     0.078 C 
HETATM   12  C1  UNL     1      25.035   7.518  50.299  1.00  0.00     0.029 C 
ENDBRANCH   9  11
ENDBRANCH   1   9
BRANCH   1  13
HETATM   13  C4  UNL     1      27.589   5.335  48.463  1.00  0.00     0.027 C 
HETATM   14  C5  UNL     1      26.939   4.614  49.341  1.00  0.00    -0.015 C 
BRANCH  14  15
HETATM   15  C6  UNL     1      26.300   3.314  49.473  1.00  0.00     0.065 C 
BRANCH  15  16
HETATM   16  C7  UNL     1      26.616   2.631  50.804  1.00  0.00     0.233 C 
HETATM   17  F1  UNL     1      25.486   1.914  51.189  1.00  0.00    -0.255 F 
ENDBRANCH  15  16
BRANCH  15  18
HETATM   18  C8  UNL     1      24.768   3.440  49.472  1.00  0.00     0.233 C 
HETATM   19  F2  UNL     1      24.422   4.555  48.719  1.00  0.00    -0.255 F 
ENDBRANCH  15  18
ENDBRANCH  14  15
ENDBRANCH   1  13
BRANCH   4  20
HETATM   20  C12 UNL     1      32.198   6.293  46.070  1.00  0.00     0.095 C 
BRANCH  20  21
HETATM   21  C13 UNL     1      33.071   5.318  46.727  1.00  0.00    -0.053 A 
HETATM   22  C14 UNL     1      32.942   3.963  46.392  1.00  0.00     0.007 A 
HETATM   23  C15 UNL     1      33.668   2.889  46.881  1.00  0.00     0.001 A 
HETATM   24  C16 UNL     1      34.635   3.246  47.820  1.00  0.00     0.000 A 
HETATM   25  C17 UNL     1      34.781   4.574  48.164  1.00  0.00     0.001 A 
HETATM   26  C18 UNL     1      34.051   5.638  47.669  1.00  0.00     0.007 A 
ENDBRANCH  20  21
ENDBRANCH   4  20
BRANCH   7  27
HETATM   27  C20 UNL     1      30.313  10.527  49.033  1.00  0.00     0.417 C 
BRANCH  27  28
HETATM   28  N4  UNL     1      29.519  11.665  49.388  1.00  0.00     0.097 N 
HETATM   29  H23 UNL     1      29.896  12.525  48.965  1.00  0.00     0.315 HD
HETATM   30  H24 UNL     1      28.507  11.577  49.193  1.00  0.00     0.315 HD
ENDBRANCH  27  28
ENDBRANCH   7  27
TORSDOF 10
ENDMDL
