MODEL 1
REMARK VINA RESULT:      -8.5      0.000      0.000
REMARK  7 active torsions:
REMARK  status: ('A' for Active; 'I' for Inactive)
REMARK    1  A    between atoms: C4_6  and  C5_7 
REMARK    2  A    between atoms: C8_12  and  O1_13 
REMARK    3  A    between atoms: O1_13  and  C9_14 
REMARK    4  A    between atoms: C15_21  and  C16_22 
REMARK    5  A    between atoms: C17_23  and  C18_24 
REMARK    6  A    between atoms: C22_28  and  C23_29 
REMARK    7  A    between atoms: C23_29  and  N4_30 
ROOT
HETATM    1  C1  UNL     1      20.809  -1.335  54.341  1.00  0.00     0.072 C 
HETATM    2  C2  UNL     1      22.268  -1.168  54.563  1.00  0.00     0.052 A 
HETATM    3  N1  UNL     1      22.893  -1.690  55.633  1.00  0.00    -0.245 NA
HETATM    4  C3  UNL     1      24.224  -1.487  55.750  1.00  0.00     0.233 A 
HETATM    5  N2  UNL     1      24.945  -0.800  54.866  1.00  0.00    -0.244 NA
HETATM    6  C4  UNL     1      24.391  -0.237  53.751  1.00  0.00     0.074 A 
HETATM    7  C15 UNL     1      23.042  -0.464  53.669  1.00  0.00     0.068 A 
ENDROOT
BRANCH   6   8
HETATM    8  C5  UNL     1      25.306   0.435  52.830  1.00  0.00     0.162 A 
HETATM    9  C6  UNL     1      26.684  -0.093  53.004  1.00  0.00     0.047 A 
HETATM   10 CL1  UNL     1      27.952  -1.331  52.978  1.00  0.00    -0.086 Cl
HETATM   11  C7  UNL     1      27.465   0.947  53.424  1.00  0.00     0.139 A 
HETATM   12  N3  UNL     1      26.677   2.165  53.545  1.00  0.00    -0.238 NA
HETATM   13  C8  UNL     1      25.449   1.858  53.203  1.00  0.00     0.156 A 
BRANCH  13  14
HETATM   14  O1  UNL     1      24.296   2.645  53.141  1.00  0.00    -0.324 OA
BRANCH  14  15
HETATM   15  C9  UNL     1      24.373   3.884  52.444  1.00  0.00     0.191 A 
HETATM   16  C10 UNL     1      23.072   4.548  52.643  1.00  0.00     0.008 A 
HETATM   17  C11 UNL     1      22.113   4.961  51.862  1.00  0.00    -0.002 A 
HETATM   18  C12 UNL     1      22.337   4.734  50.443  1.00  0.00    -0.001 A 
HETATM   19  C13 UNL     1      23.487   4.140  50.180  1.00  0.00     0.013 A 
HETATM   20  C14 UNL     1      24.618   3.643  50.992  1.00  0.00     0.226 A 
HETATM   21  F1  UNL     1      25.811   4.211  50.586  1.00  0.00    -0.242 F 
ENDBRANCH  14  15
ENDBRANCH  13  14
ENDBRANCH   6   8
BRANCH   7  22
HETATM   22  C16 UNL     1      22.358   0.156  52.571  1.00  0.00    -0.057 C 
HETATM   23  C17 UNL     1      21.799   0.690  51.648  1.00  0.00    -0.061 C 
BRANCH  23  24
HETATM   24  C18 UNL     1      21.130   1.314  50.529  1.00  0.00     0.018 A 
HETATM   25  C19 UNL     1      21.765   1.175  49.306  1.00  0.00     0.020 A 
HETATM   26  C20 UNL     1      21.195   1.742  48.172  1.00  0.00     0.002 A 
HETATM   27  C21 UNL     1      20.006   2.438  48.258  1.00  0.00     0.009 A 
HETATM   28  C22 UNL     1      19.390   2.564  49.485  1.00  0.00    -0.029 A 
HETATM   29  C26 UNL     1      19.941   2.005  50.642  1.00  0.00     0.029 A 
BRANCH  28  30
HETATM   30  C23 UNL     1      18.096   3.298  49.696  1.00  0.00     0.309 C 
BRANCH  30  31
HETATM   31  N4  UNL     1      17.313   2.704  50.737  1.00  0.00     0.084 N 
HETATM   32  C24 UNL     1      16.280   1.827  50.233  1.00  0.00     0.309 C 
HETATM   33  C25 UNL     1      16.773   3.693  51.648  1.00  0.00     0.309 C 
ENDBRANCH  30  31
ENDBRANCH  28  30
ENDBRANCH  23  24
ENDBRANCH   7  22
TORSDOF 7
ENDMDL
MODEL 2
REMARK VINA RESULT:      -8.4      1.775      2.803
REMARK  7 active torsions:
REMARK  status: ('A' for Active; 'I' for Inactive)
REMARK    1  A    between atoms: C4_6  and  C5_7 
REMARK    2  A    between atoms: C8_12  and  O1_13 
REMARK    3  A    between atoms: O1_13  and  C9_14 
REMARK    4  A    between atoms: C15_21  and  C16_22 
REMARK    5  A    between atoms: C17_23  and  C18_24 
REMARK    6  A    between atoms: C22_28  and  C23_29 
REMARK    7  A    between atoms: C23_29  and  N4_30 
ROOT
HETATM    1  C1  UNL     1      20.840  -1.110  54.470  1.00  0.00     0.072 C 
HETATM    2  C2  UNL     1      22.312  -1.083  54.662  1.00  0.00     0.052 A 
HETATM    3  N1  UNL     1      22.899  -1.572  55.769  1.00  0.00    -0.245 NA
HETATM    4  C3  UNL     1      24.247  -1.505  55.854  1.00  0.00     0.233 A 
HETATM    5  N2  UNL     1      25.019  -0.983  54.903  1.00  0.00    -0.244 NA
HETATM    6  C4  UNL     1      24.507  -0.465  53.747  1.00  0.00     0.074 A 
HETATM    7  C15 UNL     1      23.140  -0.551  53.700  1.00  0.00     0.068 A 
ENDROOT
BRANCH   6   8
HETATM    8  C5  UNL     1      25.470   0.018  52.759  1.00  0.00     0.162 A 
HETATM    9  C6  UNL     1      26.671  -0.858  52.747  1.00  0.00     0.047 A 
HETATM   10 CL1  UNL     1      27.559  -2.374  52.516  1.00  0.00    -0.086 Cl
HETATM   11  C7  UNL     1      27.736  -0.088  53.122  1.00  0.00     0.139 A 
HETATM   12  N3  UNL     1      27.313   1.278  53.392  1.00  0.00    -0.238 NA
HETATM   13  C8  UNL     1      26.019   1.324  53.181  1.00  0.00     0.156 A 
BRANCH  13  14
HETATM   14  O1  UNL     1      25.114   2.383  53.291  1.00  0.00    -0.324 OA
BRANCH  14  15
HETATM   15  C9  UNL     1      24.332   2.709  52.146  1.00  0.00     0.191 A 
HETATM   16  C10 UNL     1      25.289   2.930  51.046  1.00  0.00     0.008 A 
HETATM   17  C11 UNL     1      25.591   3.931  50.267  1.00  0.00    -0.002 A 
HETATM   18  C12 UNL     1      24.825   5.145  50.504  1.00  0.00    -0.001 A 
HETATM   19  C13 UNL     1      23.943   5.029  51.479  1.00  0.00     0.013 A 
HETATM   20  C14 UNL     1      23.538   3.947  52.402  1.00  0.00     0.226 A 
HETATM   21  F1  UNL     1      22.182   3.696  52.314  1.00  0.00    -0.242 F 
ENDBRANCH  14  15
ENDBRANCH  13  14
ENDBRANCH   6   8
BRANCH   7  22
HETATM   22  C16 UNL     1      22.505   0.039  52.557  1.00  0.00    -0.057 C 
HETATM   23  C17 UNL     1      21.987   0.548  51.596  1.00  0.00    -0.061 C 
BRANCH  23  24
HETATM   24  C18 UNL     1      21.368   1.141  50.433  1.00  0.00     0.018 A 
HETATM   25  C19 UNL     1      19.983   1.193  50.460  1.00  0.00     0.020 A 
HETATM   26  C20 UNL     1      19.299   1.748  49.385  1.00  0.00     0.002 A 
HETATM   27  C21 UNL     1      19.988   2.244  48.297  1.00  0.00     0.009 A 
HETATM   28  C22 UNL     1      21.366   2.183  48.290  1.00  0.00    -0.029 A 
HETATM   29  C26 UNL     1      22.080   1.631  49.357  1.00  0.00     0.029 A 
BRANCH  28  30
HETATM   30  C23 UNL     1      22.216   2.692  47.161  1.00  0.00     0.309 C 
BRANCH  30  31
HETATM   31  N4  UNL     1      21.792   3.986  46.719  1.00  0.00     0.084 N 
HETATM   32  C24 UNL     1      21.820   4.126  45.281  1.00  0.00     0.309 C 
HETATM   33  C25 UNL     1      22.523   5.054  47.371  1.00  0.00     0.309 C 
ENDBRANCH  30  31
ENDBRANCH  28  30
ENDBRANCH  23  24
ENDBRANCH   7  22
TORSDOF 7
ENDMDL
MODEL 3
REMARK VINA RESULT:      -7.5      4.086      7.807
REMARK  7 active torsions:
REMARK  status: ('A' for Active; 'I' for Inactive)
REMARK    1  A    between atoms: C4_6  and  C5_7 
REMARK    2  A    between atoms: C8_12  and  O1_13 
REMARK    3  A    between atoms: O1_13  and  C9_14 
REMARK    4  A    between atoms: C15_21  and  C16_22 
REMARK    5  A    between atoms: C17_23  and  C18_24 
REMARK    6  A    between atoms: C22_28  and  C23_29 
REMARK    7  A    between atoms: C23_29  and  N4_30 
ROOT
HETATM    1  C1  UNL     1      22.344   1.843  47.542  1.00  0.00     0.072 C 
HETATM    2  C2  UNL     1      22.468   3.319  47.649  1.00  0.00     0.052 A 
HETATM    3  N1  UNL     1      22.220   4.135  46.610  1.00  0.00    -0.245 NA
HETATM    4  C3  UNL     1      22.359   5.466  46.803  1.00  0.00     0.233 A 
HETATM    5  N2  UNL     1      22.726   6.008  47.963  1.00  0.00    -0.244 NA
HETATM    6  C4  UNL     1      22.997   5.253  49.069  1.00  0.00     0.074 A 
HETATM    7  C15 UNL     1      22.846   3.911  48.832  1.00  0.00     0.068 A 
ENDROOT
BRANCH   6   8
HETATM    8  C5  UNL     1      23.327   5.977  50.295  1.00  0.00     0.162 A 
HETATM    9  C6  UNL     1      22.364   7.089  50.506  1.00  0.00     0.047 A 
HETATM   10 CL1  UNL     1      20.770   7.809  50.796  1.00  0.00    -0.086 Cl
HETATM   11  C7  UNL     1      23.075   8.255  50.463  1.00  0.00     0.139 A 
HETATM   12  N3  UNL     1      24.487   7.986  50.230  1.00  0.00    -0.238 NA
HETATM   13  C8  UNL     1      24.616   6.684  50.136  1.00  0.00     0.156 A 
BRANCH  13  14
HETATM   14  O1  UNL     1      25.746   5.892  49.917  1.00  0.00    -0.324 OA
BRANCH  14  15
HETATM   15  C9  UNL     1      26.241   5.795  48.586  1.00  0.00     0.191 A 
HETATM   16  C10 UNL     1      27.445   4.946  48.658  1.00  0.00     0.008 A 
HETATM   17  C11 UNL     1      28.709   5.104  48.379  1.00  0.00    -0.002 A 
HETATM   18  C12 UNL     1      29.064   6.420  47.871  1.00  0.00    -0.001 A 
HETATM   19  C13 UNL     1      28.037   7.243  47.777  1.00  0.00     0.013 A 
HETATM   20  C14 UNL     1      26.590   7.150  48.066  1.00  0.00     0.226 A 
HETATM   21  F1  UNL     1      25.836   7.465  46.952  1.00  0.00    -0.242 F 
ENDBRANCH  14  15
ENDBRANCH  13  14
ENDBRANCH   6   8
BRANCH   7  22
HETATM   22  C16 UNL     1      23.184   3.033  49.915  1.00  0.00    -0.057 C 
HETATM   23  C17 UNL     1      23.455   2.282  50.817  1.00  0.00    -0.061 C 
BRANCH  23  24
HETATM   24  C18 UNL     1      23.798   1.380  51.893  1.00  0.00     0.018 A 
HETATM   25  C19 UNL     1      22.815   0.466  52.236  1.00  0.00     0.020 A 
HETATM   26  C20 UNL     1      23.056  -0.444  53.259  1.00  0.00     0.002 A 
HETATM   27  C21 UNL     1      24.261  -0.440  53.932  1.00  0.00     0.009 A 
HETATM   28  C22 UNL     1      25.225   0.479  53.574  1.00  0.00    -0.029 A 
HETATM   29  C26 UNL     1      25.011   1.405  52.549  1.00  0.00     0.029 A 
BRANCH  28  30
HETATM   30  C23 UNL     1      26.571   0.574  54.236  1.00  0.00     0.309 C 
BRANCH  30  31
HETATM   31  N4  UNL     1      27.638   0.459  53.288  1.00  0.00     0.084 N 
HETATM   32  C24 UNL     1      28.134  -0.893  53.162  1.00  0.00     0.309 C 
HETATM   33  C25 UNL     1      28.711   1.396  53.555  1.00  0.00     0.309 C 
ENDBRANCH  30  31
ENDBRANCH  28  30
ENDBRANCH  23  24
ENDBRANCH   7  22
TORSDOF 7
ENDMDL
MODEL 4
REMARK VINA RESULT:      -7.4      3.441      6.414
REMARK  7 active torsions:
REMARK  status: ('A' for Active; 'I' for Inactive)
REMARK    1  A    between atoms: C4_6  and  C5_7 
REMARK    2  A    between atoms: C8_12  and  O1_13 
REMARK    3  A    between atoms: O1_13  and  C9_14 
REMARK    4  A    between atoms: C15_21  and  C16_22 
REMARK    5  A    between atoms: C17_23  and  C18_24 
REMARK    6  A    between atoms: C22_28  and  C23_29 
REMARK    7  A    between atoms: C23_29  and  N4_30 
ROOT
HETATM    1  C1  UNL     1      27.283   2.059  52.361  1.00  0.00     0.072 C 
HETATM    2  C2  UNL     1      26.087   1.222  52.631  1.00  0.00     0.052 A 
HETATM    3  N1  UNL     1      26.183  -0.022  53.131  1.00  0.00    -0.245 NA
HETATM    4  C3  UNL     1      25.037  -0.709  53.344  1.00  0.00     0.233 A 
HETATM    5  N2  UNL     1      23.826  -0.218  53.087  1.00  0.00    -0.244 NA
HETATM    6  C4  UNL     1      23.638   1.036  52.580  1.00  0.00     0.074 A 
HETATM    7  C15 UNL     1      24.821   1.698  52.376  1.00  0.00     0.068 A 
ENDROOT
BRANCH   6   8
HETATM    8  C5  UNL     1      22.255   1.474  52.404  1.00  0.00     0.162 A 
HETATM    9  C6  UNL     1      21.368   0.759  53.359  1.00  0.00     0.047 A 
HETATM   10 CL1  UNL     1      20.764   0.292  54.958  1.00  0.00    -0.086 Cl
HETATM   11  C7  UNL     1      20.487   0.022  52.619  1.00  0.00     0.139 A 
HETATM   12  N3  UNL     1      20.735   0.204  51.196  1.00  0.00    -0.238 NA
HETATM   13  C8  UNL     1      21.744   1.033  51.088  1.00  0.00     0.156 A 
BRANCH  13  14
HETATM   14  O1  UNL     1      22.388   1.546  49.959  1.00  0.00    -0.324 OA
BRANCH  14  15
HETATM   15  C9  UNL     1      21.585   2.161  48.958  1.00  0.00     0.191 A 
HETATM   16  C10 UNL     1      22.517   2.875  48.066  1.00  0.00     0.008 A 
HETATM   17  C11 UNL     1      22.692   4.116  47.709  1.00  0.00    -0.002 A 
HETATM   18  C12 UNL     1      21.765   5.063  48.310  1.00  0.00    -0.001 A 
HETATM   19  C13 UNL     1      20.894   4.500  49.127  1.00  0.00     0.013 A 
HETATM   20  C14 UNL     1      20.627   3.120  49.584  1.00  0.00     0.226 A 
HETATM   21  F1  UNL     1      19.319   2.753  49.331  1.00  0.00    -0.242 F 
ENDBRANCH  14  15
ENDBRANCH  13  14
ENDBRANCH   6   8
BRANCH   7  22
HETATM   22  C16 UNL     1      24.728   2.995  51.771  1.00  0.00    -0.057 C 
HETATM   23  C17 UNL     1      24.645   4.092  51.281  1.00  0.00    -0.061 C 
BRANCH  23  24
HETATM   24  C18 UNL     1      24.564   5.408  50.689  1.00  0.00     0.018 A 
HETATM   25  C19 UNL     1      23.543   6.212  51.169  1.00  0.00     0.020 A 
HETATM   26  C20 UNL     1      23.388   7.496  50.659  1.00  0.00     0.002 A 
HETATM   27  C21 UNL     1      24.240   7.970  49.682  1.00  0.00     0.009 A 
HETATM   28  C22 UNL     1      25.250   7.153  49.219  1.00  0.00    -0.029 A 
HETATM   29  C26 UNL     1      25.430   5.859  49.714  1.00  0.00     0.029 A 
BRANCH  28  30
HETATM   30  C23 UNL     1      26.234   7.565  48.161  1.00  0.00     0.309 C 
BRANCH  30  31
HETATM   31  N4  UNL     1      27.582   7.512  48.641  1.00  0.00     0.084 N 
HETATM   32  C24 UNL     1      28.072   8.799  49.080  1.00  0.00     0.309 C 
HETATM   33  C25 UNL     1      28.481   6.899  47.684  1.00  0.00     0.309 C 
ENDBRANCH  30  31
ENDBRANCH  28  30
ENDBRANCH  23  24
ENDBRANCH   7  22
TORSDOF 7
ENDMDL
MODEL 5
REMARK VINA RESULT:      -7.3      3.183      7.332
REMARK  7 active torsions:
REMARK  status: ('A' for Active; 'I' for Inactive)
REMARK    1  A    between atoms: C4_6  and  C5_7 
REMARK    2  A    between atoms: C8_12  and  O1_13 
REMARK    3  A    between atoms: O1_13  and  C9_14 
REMARK    4  A    between atoms: C15_21  and  C16_22 
REMARK    5  A    between atoms: C17_23  and  C18_24 
REMARK    6  A    between atoms: C22_28  and  C23_29 
REMARK    7  A    between atoms: C23_29  and  N4_30 
ROOT
HETATM    1  C1  UNL     1      17.566  -2.396  53.282  1.00  0.00     0.072 C 
HETATM    2  C2  UNL     1      17.150  -1.242  52.446  1.00  0.00     0.052 A 
HETATM    3  N1  UNL     1      15.930  -1.168  51.886  1.00  0.00    -0.245 NA
HETATM    4  C3  UNL     1      15.641  -0.077  51.140  1.00  0.00     0.233 A 
HETATM    5  N2  UNL     1      16.497   0.922  50.934  1.00  0.00    -0.244 NA
HETATM    6  C4  UNL     1      17.755   0.928  51.466  1.00  0.00     0.074 A 
HETATM    7  C15 UNL     1      18.010  -0.194  52.212  1.00  0.00     0.068 A 
ENDROOT
BRANCH   6   8
HETATM    8  C5  UNL     1      18.570   2.115  51.214  1.00  0.00     0.162 A 
HETATM    9  C6  UNL     1      17.712   3.328  51.197  1.00  0.00     0.047 A 
HETATM   10 CL1  UNL     1      16.604   4.530  51.882  1.00  0.00    -0.086 Cl
HETATM   11  C7  UNL     1      17.799   3.867  49.944  1.00  0.00     0.139 A 
HETATM   12  N3  UNL     1      18.682   3.072  49.103  1.00  0.00    -0.238 NA
HETATM   13  C8  UNL     1      19.114   2.077  49.840  1.00  0.00     0.156 A 
BRANCH  13  14
HETATM   14  O1  UNL     1      19.979   1.023  49.534  1.00  0.00    -0.324 OA
BRANCH  14  15
HETATM   15  C9  UNL     1      21.374   1.304  49.476  1.00  0.00     0.191 A 
HETATM   16  C10 UNL     1      21.679   2.113  50.670  1.00  0.00     0.008 A 
HETATM   17  C11 UNL     1      22.151   3.309  50.884  1.00  0.00    -0.002 A 
HETATM   18  C12 UNL     1      22.468   4.067  49.684  1.00  0.00    -0.001 A 
HETATM   19  C13 UNL     1      22.221   3.410  48.566  1.00  0.00     0.013 A 
HETATM   20  C14 UNL     1      21.693   2.069  48.234  1.00  0.00     0.226 A 
HETATM   21  F1  UNL     1      22.574   1.370  47.431  1.00  0.00    -0.242 F 
ENDBRANCH  14  15
ENDBRANCH  13  14
ENDBRANCH   6   8
BRANCH   7  22
HETATM   22  C16 UNL     1      19.336  -0.314  52.747  1.00  0.00    -0.057 C 
HETATM   23  C17 UNL     1      20.452  -0.430  53.184  1.00  0.00    -0.061 C 
BRANCH  23  24
HETATM   24  C18 UNL     1      21.795  -0.551  53.702  1.00  0.00     0.018 A 
HETATM   25  C19 UNL     1      21.906  -1.218  54.911  1.00  0.00     0.020 A 
HETATM   26  C20 UNL     1      23.161  -1.384  55.487  1.00  0.00     0.002 A 
HETATM   27  C21 UNL     1      24.289  -0.891  54.863  1.00  0.00     0.009 A 
HETATM   28  C22 UNL     1      24.157  -0.232  53.660  1.00  0.00    -0.029 A 
HETATM   29  C26 UNL     1      22.908  -0.050  53.058  1.00  0.00     0.029 A 
BRANCH  28  30
HETATM   30  C23 UNL     1      25.313   0.345  52.894  1.00  0.00     0.309 C 
BRANCH  30  31
HETATM   31  N4  UNL     1      26.570  -0.075  53.437  1.00  0.00     0.084 N 
HETATM   32  C24 UNL     1      27.441   1.032  53.759  1.00  0.00     0.309 C 
HETATM   33  C25 UNL     1      27.236  -1.045  52.590  1.00  0.00     0.309 C 
ENDBRANCH  30  31
ENDBRANCH  28  30
ENDBRANCH  23  24
ENDBRANCH   7  22
TORSDOF 7
ENDMDL
MODEL 6
REMARK VINA RESULT:      -7.3      4.881      8.752
REMARK  7 active torsions:
REMARK  status: ('A' for Active; 'I' for Inactive)
REMARK    1  A    between atoms: C4_6  and  C5_7 
REMARK    2  A    between atoms: C8_12  and  O1_13 
REMARK    3  A    between atoms: O1_13  and  C9_14 
REMARK    4  A    between atoms: C15_21  and  C16_22 
REMARK    5  A    between atoms: C17_23  and  C18_24 
REMARK    6  A    between atoms: C22_28  and  C23_29 
REMARK    7  A    between atoms: C23_29  and  N4_30 
ROOT
HETATM    1  C1  UNL     1      23.417   8.180  50.456  1.00  0.00     0.072 C 
HETATM    2  C2  UNL     1      22.714   6.873  50.457  1.00  0.00     0.052 A 
HETATM    3  N1  UNL     1      21.481   6.725  50.973  1.00  0.00    -0.245 NA
HETATM    4  C3  UNL     1      20.919   5.495  50.928  1.00  0.00     0.233 A 
HETATM    5  N2  UNL     1      21.520   4.430  50.401  1.00  0.00    -0.244 NA
HETATM    6  C4  UNL     1      22.771   4.492  49.855  1.00  0.00     0.074 A 
HETATM    7  C15 UNL     1      23.306   5.752  49.921  1.00  0.00     0.068 A 
ENDROOT
BRANCH   6   8
HETATM    8  C5  UNL     1      23.287   3.264  49.254  1.00  0.00     0.162 A 
HETATM    9  C6  UNL     1      22.538   2.950  48.009  1.00  0.00     0.047 A 
HETATM   10 CL1  UNL     1      21.967   3.234  46.355  1.00  0.00    -0.086 Cl
HETATM   11  C7  UNL     1      21.909   1.753  48.207  1.00  0.00     0.139 A 
HETATM   12  N3  UNL     1      22.197   1.235  49.536  1.00  0.00    -0.238 NA
HETATM   13  C8  UNL     1      22.984   2.106  50.121  1.00  0.00     0.156 A 
BRANCH  13  14
HETATM   14  O1  UNL     1      23.558   2.106  51.395  1.00  0.00    -0.324 OA
BRANCH  14  15
HETATM   15  C9  UNL     1      24.804   1.437  51.562  1.00  0.00     0.191 A 
HETATM   16  C10 UNL     1      24.598   0.448  52.636  1.00  0.00     0.008 A 
HETATM   17  C11 UNL     1      25.115   0.237  53.814  1.00  0.00    -0.002 A 
HETATM   18  C12 UNL     1      26.149   1.181  54.207  1.00  0.00    -0.001 A 
HETATM   19  C13 UNL     1      26.394   2.103  53.295  1.00  0.00     0.013 A 
HETATM   20  C14 UNL     1      25.864   2.414  51.951  1.00  0.00     0.226 A 
HETATM   21  F1  UNL     1      26.876   2.451  51.011  1.00  0.00    -0.242 F 
ENDBRANCH  14  15
ENDBRANCH  13  14
ENDBRANCH   6   8
BRANCH   7  22
HETATM   22  C16 UNL     1      24.650   5.898  49.442  1.00  0.00    -0.057 C 
HETATM   23  C17 UNL     1      25.778   6.041  49.044  1.00  0.00    -0.061 C 
BRANCH  23  24
HETATM   24  C18 UNL     1      27.137   6.200  48.581  1.00  0.00     0.018 A 
HETATM   25  C19 UNL     1      27.912   5.052  48.615  1.00  0.00     0.020 A 
HETATM   26  C20 UNL     1      29.234   5.108  48.187  1.00  0.00     0.002 A 
HETATM   27  C21 UNL     1      29.774   6.293  47.731  1.00  0.00     0.009 A 
HETATM   28  C22 UNL     1      28.985   7.424  47.705  1.00  0.00    -0.029 A 
HETATM   29  C26 UNL     1      27.653   7.398  48.129  1.00  0.00     0.029 A 
BRANCH  28  30
HETATM   30  C23 UNL     1      29.467   8.765  47.230  1.00  0.00     0.309 C 
BRANCH  30  31
HETATM   31  N4  UNL     1      30.811   9.025  47.650  1.00  0.00     0.084 N 
HETATM   32  C24 UNL     1      30.907  10.131  48.575  1.00  0.00     0.309 C 
HETATM   33  C25 UNL     1      31.712   9.191  46.527  1.00  0.00     0.309 C 
ENDBRANCH  30  31
ENDBRANCH  28  30
ENDBRANCH  23  24
ENDBRANCH   7  22
TORSDOF 7
ENDMDL
MODEL 7
REMARK VINA RESULT:      -7.2      3.190      5.436
REMARK  7 active torsions:
REMARK  status: ('A' for Active; 'I' for Inactive)
REMARK    1  A    between atoms: C4_6  and  C5_7 
REMARK    2  A    between atoms: C8_12  and  O1_13 
REMARK    3  A    between atoms: O1_13  and  C9_14 
REMARK    4  A    between atoms: C15_21  and  C16_22 
REMARK    5  A    between atoms: C17_23  and  C18_24 
REMARK    6  A    between atoms: C22_28  and  C23_29 
REMARK    7  A    between atoms: C23_29  and  N4_30 
ROOT
HETATM    1  C1  UNL     1      27.166   1.562  52.226  1.00  0.00     0.072 C 
HETATM    2  C2  UNL     1      25.933   0.831  52.613  1.00  0.00     0.052 A 
HETATM    3  N1  UNL     1      25.972  -0.363  53.229  1.00  0.00    -0.245 NA
HETATM    4  C3  UNL     1      24.797  -0.953  53.544  1.00  0.00     0.233 A 
HETATM    5  N2  UNL     1      23.609  -0.414  53.277  1.00  0.00    -0.244 NA
HETATM    6  C4  UNL     1      23.477   0.795  52.656  1.00  0.00     0.074 A 
HETATM    7  C15 UNL     1      24.689   1.358  52.352  1.00  0.00     0.068 A 
ENDROOT
BRANCH   6   8
HETATM    8  C5  UNL     1      22.116   1.300  52.481  1.00  0.00     0.162 A 
HETATM    9  C6  UNL     1      21.217   0.709  53.506  1.00  0.00     0.047 A 
HETATM   10 CL1  UNL     1      20.632   0.396  55.150  1.00  0.00    -0.086 Cl
HETATM   11  C7  UNL     1      20.275  -0.026  52.843  1.00  0.00     0.139 A 
HETATM   12  N3  UNL     1      20.494   0.037  51.406  1.00  0.00    -0.238 NA
HETATM   13  C8  UNL     1      21.545   0.796  51.213  1.00  0.00     0.156 A 
BRANCH  13  14
HETATM   14  O1  UNL     1      22.186   1.186  50.035  1.00  0.00    -0.324 OA
BRANCH  14  15
HETATM   15  C9  UNL     1      21.387   1.745  48.997  1.00  0.00     0.191 A 
HETATM   16  C10 UNL     1      22.313   2.072  47.898  1.00  0.00     0.008 A 
HETATM   17  C11 UNL     1      22.659   3.162  47.271  1.00  0.00    -0.002 A 
HETATM   18  C12 UNL     1      21.998   4.372  47.733  1.00  0.00    -0.001 A 
HETATM   19  C13 UNL     1      21.149   4.162  48.722  1.00  0.00     0.013 A 
HETATM   20  C14 UNL     1      20.700   2.978  49.484  1.00  0.00     0.226 A 
HETATM   21  F1  UNL     1      19.326   2.838  49.427  1.00  0.00    -0.242 F 
ENDBRANCH  14  15
ENDBRANCH  13  14
ENDBRANCH   6   8
BRANCH   7  22
HETATM   22  C16 UNL     1      24.651   2.595  51.626  1.00  0.00    -0.057 C 
HETATM   23  C17 UNL     1      24.639   3.637  51.021  1.00  0.00    -0.061 C 
BRANCH  23  24
HETATM   24  C18 UNL     1      24.620   4.876  50.278  1.00  0.00     0.018 A 
HETATM   25  C19 UNL     1      25.501   4.942  49.212  1.00  0.00     0.020 A 
HETATM   26  C20 UNL     1      25.552   6.095  48.438  1.00  0.00     0.002 A 
HETATM   27  C21 UNL     1      24.734   7.169  48.725  1.00  0.00     0.009 A 
HETATM   28  C22 UNL     1      23.863   7.083  49.791  1.00  0.00    -0.029 A 
HETATM   29  C26 UNL     1      23.791   5.935  50.586  1.00  0.00     0.029 A 
BRANCH  28  30
HETATM   30  C23 UNL     1      22.929   8.188  50.195  1.00  0.00     0.309 C 
BRANCH  30  31
HETATM   31  N4  UNL     1      21.843   8.327  49.272  1.00  0.00     0.084 N 
HETATM   32  C24 UNL     1      21.642   9.692  48.843  1.00  0.00     0.309 C 
HETATM   33  C25 UNL     1      20.616   7.743  49.777  1.00  0.00     0.309 C 
ENDBRANCH  30  31
ENDBRANCH  28  30
ENDBRANCH  23  24
ENDBRANCH   7  22
TORSDOF 7
ENDMDL
MODEL 8
REMARK VINA RESULT:      -7.1      3.332      7.448
REMARK  7 active torsions:
REMARK  status: ('A' for Active; 'I' for Inactive)
REMARK    1  A    between atoms: C4_6  and  C5_7 
REMARK    2  A    between atoms: C8_12  and  O1_13 
REMARK    3  A    between atoms: O1_13  and  C9_14 
REMARK    4  A    between atoms: C15_21  and  C16_22 
REMARK    5  A    between atoms: C17_23  and  C18_24 
REMARK    6  A    between atoms: C22_28  and  C23_29 
REMARK    7  A    between atoms: C23_29  and  N4_30 
ROOT
HETATM    1  C1  UNL     1      18.825  -1.962  53.425  1.00  0.00     0.072 C 
HETATM    2  C2  UNL     1      17.892  -1.014  52.765  1.00  0.00     0.052 A 
HETATM    3  N1  UNL     1      16.603  -1.323  52.535  1.00  0.00    -0.245 NA
HETATM    4  C3  UNL     1      15.828  -0.396  51.929  1.00  0.00     0.233 A 
HETATM    5  N2  UNL     1      16.272   0.802  51.551  1.00  0.00    -0.244 NA
HETATM    6  C4  UNL     1      17.566   1.197  51.746  1.00  0.00     0.074 A 
HETATM    7  C15 UNL     1      18.318   0.230  52.361  1.00  0.00     0.068 A 
ENDROOT
BRANCH   6   8
HETATM    8  C5  UNL     1      17.905   2.560  51.341  1.00  0.00     0.162 A 
HETATM    9  C6  UNL     1      16.794   3.486  51.686  1.00  0.00     0.047 A 
HETATM   10 CL1  UNL     1      15.687   4.342  52.773  1.00  0.00    -0.086 Cl
HETATM   11  C7  UNL     1      16.325   4.008  50.513  1.00  0.00     0.139 A 
HETATM   12  N3  UNL     1      17.068   3.476  49.381  1.00  0.00    -0.238 NA
HETATM   13  C8  UNL     1      17.965   2.652  49.867  1.00  0.00     0.156 A 
BRANCH  13  14
HETATM   14  O1  UNL     1      18.935   1.877  49.226  1.00  0.00    -0.324 OA
BRANCH  14  15
HETATM   15  C9  UNL     1      20.302   2.143  49.524  1.00  0.00     0.191 A 
HETATM   16  C10 UNL     1      20.574   3.501  49.017  1.00  0.00     0.008 A 
HETATM   17  C11 UNL     1      21.384   4.016  48.135  1.00  0.00    -0.002 A 
HETATM   18  C12 UNL     1      22.247   3.058  47.462  1.00  0.00    -0.001 A 
HETATM   19  C13 UNL     1      22.063   1.813  47.861  1.00  0.00     0.013 A 
HETATM   20  C14 UNL     1      21.180   1.147  48.842  1.00  0.00     0.226 A 
HETATM   21  F1  UNL     1      21.912   0.418  49.760  1.00  0.00    -0.242 F 
ENDBRANCH  14  15
ENDBRANCH  13  14
ENDBRANCH   6   8
BRANCH   7  22
HETATM   22  C16 UNL     1      19.710   0.525  52.538  1.00  0.00    -0.057 C 
HETATM   23  C17 UNL     1      20.877   0.789  52.675  1.00  0.00    -0.061 C 
BRANCH  23  24
HETATM   24  C18 UNL     1      22.275   1.108  52.859  1.00  0.00     0.018 A 
HETATM   25  C19 UNL     1      22.648   2.384  52.468  1.00  0.00     0.020 A 
HETATM   26  C20 UNL     1      23.972   2.781  52.609  1.00  0.00     0.002 A 
HETATM   27  C21 UNL     1      24.912   1.916  53.131  1.00  0.00     0.009 A 
HETATM   28  C22 UNL     1      24.520   0.651  53.514  1.00  0.00    -0.029 A 
HETATM   29  C26 UNL     1      23.195   0.224  53.385  1.00  0.00     0.029 A 
BRANCH  28  30
HETATM   30  C23 UNL     1      25.455  -0.371  54.094  1.00  0.00     0.309 C 
BRANCH  30  31
HETATM   31  N4  UNL     1      26.698  -0.417  53.383  1.00  0.00     0.084 N 
HETATM   32  C24 UNL     1      26.887  -1.656  52.663  1.00  0.00     0.309 C 
HETATM   33  C25 UNL     1      27.830  -0.121  54.239  1.00  0.00     0.309 C 
ENDBRANCH  30  31
ENDBRANCH  28  30
ENDBRANCH  23  24
ENDBRANCH   7  22
TORSDOF 7
ENDMDL
MODEL 9
REMARK VINA RESULT:      -7.0      5.296      8.925
REMARK  7 active torsions:
REMARK  status: ('A' for Active; 'I' for Inactive)
REMARK    1  A    between atoms: C4_6  and  C5_7 
REMARK    2  A    between atoms: C8_12  and  O1_13 
REMARK    3  A    between atoms: O1_13  and  C9_14 
REMARK    4  A    between atoms: C15_21  and  C16_22 
REMARK    5  A    between atoms: C17_23  and  C18_24 
REMARK    6  A    between atoms: C22_28  and  C23_29 
REMARK    7  A    between atoms: C23_29  and  N4_30 
ROOT
HETATM    1  C1  UNL     1      29.670   5.722  48.390  1.00  0.00     0.072 C 
HETATM    2  C2  UNL     1      28.812   6.771  47.784  1.00  0.00     0.052 A 
HETATM    3  N1  UNL     1      29.328   7.829  47.134  1.00  0.00    -0.245 NA
HETATM    4  C3  UNL     1      28.468   8.734  46.613  1.00  0.00     0.233 A 
HETATM    5  N2  UNL     1      27.144   8.631  46.709  1.00  0.00    -0.244 NA
HETATM    6  C4  UNL     1      26.536   7.589  47.351  1.00  0.00     0.074 A 
HETATM    7  C15 UNL     1      27.441   6.697  47.866  1.00  0.00     0.068 A 
ENDROOT
BRANCH   6   8
HETATM    8  C5  UNL     1      25.075   7.565  47.329  1.00  0.00     0.162 A 
HETATM    9  C6  UNL     1      24.576   8.084  46.029  1.00  0.00     0.047 A 
HETATM   10 CL1  UNL     1      24.363   8.089  44.269  1.00  0.00    -0.086 Cl
HETATM   11  C7  UNL     1      23.851   9.211  46.295  1.00  0.00     0.139 A 
HETATM   12  N3  UNL     1      23.834   9.485  47.724  1.00  0.00    -0.238 NA
HETATM   13  C8  UNL     1      24.535   8.539  48.301  1.00  0.00     0.156 A 
BRANCH  13  14
HETATM   14  O1  UNL     1      24.839   8.320  49.647  1.00  0.00    -0.324 OA
BRANCH  14  15
HETATM   15  C9  UNL     1      23.754   8.174  50.558  1.00  0.00     0.191 A 
HETATM   16  C10 UNL     1      24.135   7.086  51.477  1.00  0.00     0.008 A 
HETATM   17  C11 UNL     1      23.645   5.917  51.784  1.00  0.00    -0.002 A 
HETATM   18  C12 UNL     1      22.428   5.556  51.073  1.00  0.00    -0.001 A 
HETATM   19  C13 UNL     1      22.020   6.483  50.226  1.00  0.00     0.013 A 
HETATM   20  C14 UNL     1      22.506   7.819  49.819  1.00  0.00     0.226 A 
HETATM   21  F1  UNL     1      21.531   8.781  49.998  1.00  0.00    -0.242 F 
ENDBRANCH  14  15
ENDBRANCH  13  14
ENDBRANCH   6   8
BRANCH   7  22
HETATM   22  C16 UNL     1      26.897   5.608  48.626  1.00  0.00    -0.057 C 
HETATM   23  C17 UNL     1      26.423   4.704  49.265  1.00  0.00    -0.061 C 
BRANCH  23  24
HETATM   24  C18 UNL     1      25.858   3.607  50.016  1.00  0.00     0.018 A 
HETATM   25  C19 UNL     1      24.539   3.304  49.722  1.00  0.00     0.020 A 
HETATM   26  C20 UNL     1      23.910   2.262  50.394  1.00  0.00     0.002 A 
HETATM   27  C21 UNL     1      24.590   1.532  51.348  1.00  0.00     0.009 A 
HETATM   28  C22 UNL     1      25.904   1.849  51.625  1.00  0.00    -0.029 A 
HETATM   29  C26 UNL     1      26.561   2.891  50.964  1.00  0.00     0.029 A 
BRANCH  28  30
HETATM   30  C23 UNL     1      26.739   1.123  52.641  1.00  0.00     0.309 C 
BRANCH  30  31
HETATM   31  N4  UNL     1      26.103  -0.080  53.088  1.00  0.00     0.084 N 
HETATM   32  C24 UNL     1      25.904  -0.111  54.519  1.00  0.00     0.309 C 
HETATM   33  C25 UNL     1      26.789  -1.268  52.621  1.00  0.00     0.309 C 
ENDBRANCH  30  31
ENDBRANCH  28  30
ENDBRANCH  23  24
ENDBRANCH   7  22
TORSDOF 7
ENDMDL
