MODEL 1
REMARK VINA RESULT:      -8.9      0.000      0.000
REMARK  2 active torsions:
REMARK  status: ('A' for Active; 'I' for Inactive)
REMARK       I    between atoms: C1_2  and  N1_3 
REMARK       I    between atoms: C1_2  and  N2_9 
REMARK    1  A    between atoms: N1_3  and  C2_4 
REMARK    2  A    between atoms: C11_14  and  O2_15 
ROOT
HETATM    1  O1  UNL     1      24.177   4.688  51.363  1.00  0.00    -0.247 OA
HETATM    2  C1  UNL     1      25.075   3.881  51.009  1.00  0.00     0.323 C 
HETATM    3  N1  UNL     1      25.836   4.223  49.851  1.00  0.00    -0.312 N 
HETATM    4  N2  UNL     1      25.469   2.617  51.612  1.00  0.00    -0.326 N 
HETATM    5  C7  UNL     1      26.485   1.525  51.361  1.00  0.00     0.155 C 
HETATM    6  C8  UNL     1      27.508   1.698  52.389  1.00  0.00    -0.011 C 
HETATM    7  C9  UNL     1      27.357   0.527  53.068  1.00  0.00    -0.026 C 
HETATM    8  C10 UNL     1      26.474  -0.627  52.874  1.00  0.00     0.065 C 
HETATM    9  C11 UNL     1      25.368  -0.683  53.902  1.00  0.00     0.182 C 
HETATM   10  C12 UNL     1      24.134   0.010  53.494  1.00  0.00    -0.017 A 
HETATM   11  C13 UNL     1      22.955  -0.755  53.611  1.00  0.00     0.052 A 
HETATM   12  C14 UNL     1      21.655  -0.413  53.289  1.00  0.00     0.117 A 
HETATM   13  F1  UNL     1      20.591  -1.215  53.437  1.00  0.00    -0.206 F 
HETATM   14  C15 UNL     1      21.461   0.855  52.780  1.00  0.00     0.043 A 
HETATM   15  C16 UNL     1      22.548   1.688  52.624  1.00  0.00     0.012 A 
HETATM   16  C17 UNL     1      23.808   1.279  52.966  1.00  0.00    -0.031 A 
HETATM   17  C18 UNL     1      24.922   2.173  52.843  1.00  0.00     0.167 C 
HETATM   18  H1  UNL     1      26.615   3.689  49.404  1.00  0.00     0.170 HD
ENDROOT
BRANCH   3  19
HETATM   19  C2  UNL     1      25.653   5.402  49.075  1.00  0.00     0.017 A 
HETATM   20  C3  UNL     1      24.553   5.981  48.579  1.00  0.00     0.025 A 
HETATM   21  C4  UNL     1      24.921   7.193  47.843  1.00  0.00    -0.002 A 
HETATM   22  C5  UNL     1      26.232   7.366  47.882  1.00  0.00    -0.021 A 
HETATM   23  C6  UNL     1      26.800   6.247  48.663  1.00  0.00     0.084 A 
ENDBRANCH   3  19
BRANCH   9  24
HETATM   24  O2  UNL     1      25.799  -0.504  55.182  1.00  0.00    -0.274 OA
HETATM   25 CL1  UNL     1      24.681  -1.262  56.231  1.00  0.00     0.062 Cl
ENDBRANCH   9  24
TORSDOF 2
ENDMDL
MODEL 2
REMARK VINA RESULT:      -8.7      3.904      6.573
REMARK  2 active torsions:
REMARK  status: ('A' for Active; 'I' for Inactive)
REMARK       I    between atoms: C1_2  and  N1_3 
REMARK       I    between atoms: C1_2  and  N2_9 
REMARK    1  A    between atoms: N1_3  and  C2_4 
REMARK    2  A    between atoms: C11_14  and  O2_15 
ROOT
HETATM    1  O1  UNL     1      25.541   1.836  52.611  1.00  0.00    -0.247 OA
HETATM    2  C1  UNL     1      24.835   0.842  52.921  1.00  0.00     0.323 C 
HETATM    3  N1  UNL     1      25.503  -0.267  53.522  1.00  0.00    -0.312 N 
HETATM    4  N2  UNL     1      23.404   0.641  52.756  1.00  0.00    -0.326 N 
HETATM    5  C7  UNL     1      22.384  -0.439  53.048  1.00  0.00     0.155 C 
HETATM    6  C8  UNL     1      21.621   0.043  54.197  1.00  0.00    -0.011 C 
HETATM    7  C9  UNL     1      20.392   0.166  53.625  1.00  0.00    -0.026 C 
HETATM    8  C10 UNL     1      19.892  -0.109  52.274  1.00  0.00     0.065 C 
HETATM    9  C11 UNL     1      19.625   1.157  51.493  1.00  0.00     0.182 C 
HETATM   10  C12 UNL     1      20.774   1.626  50.699  1.00  0.00    -0.017 A 
HETATM   11  C13 UNL     1      20.493   1.888  49.342  1.00  0.00     0.052 A 
HETATM   12  C14 UNL     1      21.345   2.307  48.338  1.00  0.00     0.117 A 
HETATM   13  F1  UNL     1      20.982   2.531  47.067  1.00  0.00    -0.206 F 
HETATM   14  C15 UNL     1      22.664   2.504  48.693  1.00  0.00     0.043 A 
HETATM   15  C16 UNL     1      23.047   2.277  49.997  1.00  0.00     0.012 A 
HETATM   16  C17 UNL     1      22.145   1.863  50.938  1.00  0.00    -0.031 A 
HETATM   17  C18 UNL     1      22.549   1.677  52.301  1.00  0.00     0.167 C 
HETATM   18  H1  UNL     1      25.096  -1.173  53.846  1.00  0.00     0.170 HD
ENDROOT
BRANCH   3  19
HETATM   19  C2  UNL     1      26.898  -0.326  53.794  1.00  0.00     0.017 A 
HETATM   20  C3  UNL     1      27.642   0.222  54.762  1.00  0.00     0.025 A 
HETATM   21  C4  UNL     1      29.046  -0.156  54.582  1.00  0.00    -0.002 A 
HETATM   22  C5  UNL     1      29.173  -0.931  53.517  1.00  0.00    -0.021 A 
HETATM   23  C6  UNL     1      27.825  -1.099  52.933  1.00  0.00     0.084 A 
ENDBRANCH   3  19
BRANCH   9  24
HETATM   24  O2  UNL     1      18.914   2.090  52.185  1.00  0.00    -0.274 OA
HETATM   25 CL1  UNL     1      17.401   2.287  51.412  1.00  0.00     0.062 Cl
ENDBRANCH   9  24
TORSDOF 2
ENDMDL
MODEL 3
REMARK VINA RESULT:      -8.6      2.341      3.746
REMARK  2 active torsions:
REMARK  status: ('A' for Active; 'I' for Inactive)
REMARK       I    between atoms: C1_2  and  N1_3 
REMARK       I    between atoms: C1_2  and  N2_9 
REMARK    1  A    between atoms: N1_3  and  C2_4 
REMARK    2  A    between atoms: C11_14  and  O2_15 
ROOT
HETATM    1  O1  UNL     1      27.138   3.507  49.411  1.00  0.00    -0.247 OA
HETATM    2  C1  UNL     1      26.050   3.852  49.941  1.00  0.00     0.323 C 
HETATM    3  N1  UNL     1      25.567   5.161  49.639  1.00  0.00    -0.312 N 
HETATM    4  N2  UNL     1      25.185   3.105  50.840  1.00  0.00    -0.326 N 
HETATM    5  C7  UNL     1      23.877   3.320  51.571  1.00  0.00     0.155 C 
HETATM    6  C8  UNL     1      22.890   2.519  50.850  1.00  0.00    -0.011 C 
HETATM    7  C9  UNL     1      22.558   1.627  51.823  1.00  0.00    -0.026 C 
HETATM    8  C10 UNL     1      22.994   1.466  53.215  1.00  0.00     0.065 C 
HETATM    9  C11 UNL     1      23.911   0.278  53.394  1.00  0.00     0.182 C 
HETATM   10  C12 UNL     1      25.341   0.597  53.249  1.00  0.00    -0.017 A 
HETATM   11  C13 UNL     1      26.160   0.155  54.308  1.00  0.00     0.052 A 
HETATM   12  C14 UNL     1      27.522   0.317  54.487  1.00  0.00     0.117 A 
HETATM   13  F1  UNL     1      28.218  -0.143  55.536  1.00  0.00    -0.206 F 
HETATM   14  C15 UNL     1      28.194   1.005  53.498  1.00  0.00     0.043 A 
HETATM   15  C16 UNL     1      27.487   1.482  52.415  1.00  0.00     0.012 A 
HETATM   16  C17 UNL     1      26.139   1.282  52.306  1.00  0.00    -0.031 A 
HETATM   17  C18 UNL     1      25.425   1.743  51.151  1.00  0.00     0.167 C 
HETATM   18  H1  UNL     1      24.695   5.627  49.977  1.00  0.00     0.170 HD
ENDROOT
BRANCH   3  19
HETATM   19  C2  UNL     1      26.223   6.095  48.788  1.00  0.00     0.017 A 
HETATM   20  C3  UNL     1      27.514   6.274  48.489  1.00  0.00     0.025 A 
HETATM   21  C4  UNL     1      27.655   7.389  47.549  1.00  0.00    -0.002 A 
HETATM   22  C5  UNL     1      26.466   7.896  47.267  1.00  0.00    -0.021 A 
HETATM   23  C6  UNL     1      25.465   7.119  48.029  1.00  0.00     0.084 A 
ENDBRANCH   3  19
BRANCH   9  24
HETATM   24  O2  UNL     1      23.454  -0.862  52.804  1.00  0.00    -0.274 OA
HETATM   25 CL1  UNL     1      22.090  -1.406  53.680  1.00  0.00     0.062 Cl
ENDBRANCH   9  24
TORSDOF 2
ENDMDL
MODEL 4
REMARK VINA RESULT:      -8.6      1.773      2.107
REMARK  2 active torsions:
REMARK  status: ('A' for Active; 'I' for Inactive)
REMARK       I    between atoms: C1_2  and  N1_3 
REMARK       I    between atoms: C1_2  and  N2_9 
REMARK    1  A    between atoms: N1_3  and  C2_4 
REMARK    2  A    between atoms: C11_14  and  O2_15 
ROOT
HETATM    1  O1  UNL     1      22.493   4.124  50.901  1.00  0.00    -0.247 OA
HETATM    2  C1  UNL     1      23.544   3.606  50.444  1.00  0.00     0.323 C 
HETATM    3  N1  UNL     1      23.880   3.904  49.089  1.00  0.00    -0.312 N 
HETATM    4  N2  UNL     1      24.497   2.724  51.100  1.00  0.00    -0.326 N 
HETATM    5  C7  UNL     1      25.783   2.008  50.751  1.00  0.00     0.155 C 
HETATM    6  C8  UNL     1      26.841   2.747  51.436  1.00  0.00    -0.011 C 
HETATM    7  C9  UNL     1      27.280   1.785  52.293  1.00  0.00    -0.026 C 
HETATM    8  C10 UNL     1      26.883   0.389  52.509  1.00  0.00     0.065 C 
HETATM    9  C11 UNL     1      26.101   0.207  53.790  1.00  0.00     0.182 C 
HETATM   10  C12 UNL     1      24.643   0.333  53.626  1.00  0.00    -0.017 A 
HETATM   11  C13 UNL     1      23.890  -0.734  54.160  1.00  0.00     0.052 A 
HETATM   12  C14 UNL     1      22.522  -0.930  54.146  1.00  0.00     0.117 A 
HETATM   13  F1  UNL     1      21.893  -1.985  54.685  1.00  0.00    -0.206 F 
HETATM   14  C15 UNL     1      21.766   0.044  53.527  1.00  0.00     0.043 A 
HETATM   15  C16 UNL     1      22.403   1.133  52.971  1.00  0.00     0.012 A 
HETATM   16  C17 UNL     1      23.764   1.260  53.024  1.00  0.00    -0.031 A 
HETATM   17  C18 UNL     1      24.408   2.420  52.482  1.00  0.00     0.167 C 
HETATM   18  H1  UNL     1      24.701   3.574  48.535  1.00  0.00     0.170 HD
ENDROOT
BRANCH   3  19
HETATM   19  C2  UNL     1      23.116   4.739  48.226  1.00  0.00     0.017 A 
HETATM   20  C3  UNL     1      22.092   4.476  47.407  1.00  0.00     0.025 A 
HETATM   21  C4  UNL     1      21.666   5.706  46.735  1.00  0.00    -0.002 A 
HETATM   22  C5  UNL     1      22.414   6.722  47.133  1.00  0.00    -0.021 A 
HETATM   23  C6  UNL     1      23.392   6.191  48.107  1.00  0.00     0.084 A 
ENDBRANCH   3  19
BRANCH   9  24
HETATM   24  O2  UNL     1      26.669   0.812  54.870  1.00  0.00    -0.274 OA
HETATM   25 CL1  UNL     1      28.207   0.109  55.126  1.00  0.00     0.062 Cl
ENDBRANCH   9  24
TORSDOF 2
ENDMDL
MODEL 5
REMARK VINA RESULT:      -8.3      2.585      3.891
REMARK  2 active torsions:
REMARK  status: ('A' for Active; 'I' for Inactive)
REMARK       I    between atoms: C1_2  and  N1_3 
REMARK       I    between atoms: C1_2  and  N2_9 
REMARK    1  A    between atoms: N1_3  and  C2_4 
REMARK    2  A    between atoms: C11_14  and  O2_15 
ROOT
HETATM    1  O1  UNL     1      26.379   2.827  49.426  1.00  0.00    -0.247 OA
HETATM    2  C1  UNL     1      25.450   3.565  49.843  1.00  0.00     0.323 C 
HETATM    3  N1  UNL     1      25.591   4.969  49.630  1.00  0.00    -0.312 N 
HETATM    4  N2  UNL     1      24.221   3.200  50.529  1.00  0.00    -0.326 N 
HETATM    5  C7  UNL     1      23.007   3.900  51.101  1.00  0.00     0.155 C 
HETATM    6  C8  UNL     1      21.917   3.617  50.170  1.00  0.00    -0.011 C 
HETATM    7  C9  UNL     1      21.097   2.895  50.983  1.00  0.00    -0.026 C 
HETATM    8  C10 UNL     1      21.193   2.499  52.393  1.00  0.00     0.065 C 
HETATM    9  C11 UNL     1      21.512   1.031  52.556  1.00  0.00     0.182 C 
HETATM   10  C12 UNL     1      22.953   0.736  52.637  1.00  0.00    -0.017 A 
HETATM   11  C13 UNL     1      23.337  -0.058  53.738  1.00  0.00     0.052 A 
HETATM   12  C14 UNL     1      24.598  -0.483  54.112  1.00  0.00     0.117 A 
HETATM   13  F1  UNL     1      24.866  -1.241  55.184  1.00  0.00    -0.206 F 
HETATM   14  C15 UNL     1      25.645  -0.086  53.305  1.00  0.00     0.043 A 
HETATM   15  C16 UNL     1      25.380   0.693  52.199  1.00  0.00     0.012 A 
HETATM   16  C17 UNL     1      24.104   1.075  51.892  1.00  0.00    -0.031 A 
HETATM   17  C18 UNL     1      23.839   1.846  50.712  1.00  0.00     0.167 C 
HETATM   18  H1  UNL     1      24.936   5.736  49.901  1.00  0.00     0.170 HD
ENDROOT
BRANCH   3  19
HETATM   19  C2  UNL     1      26.698   5.588  48.985  1.00  0.00     0.017 A 
HETATM   20  C3  UNL     1      27.889   5.112  48.606  1.00  0.00     0.025 A 
HETATM   21  C4  UNL     1      28.672   6.178  47.977  1.00  0.00    -0.002 A 
HETATM   22  C5  UNL     1      27.976   7.304  47.964  1.00  0.00    -0.021 A 
HETATM   23  C6  UNL     1      26.672   7.020  48.602  1.00  0.00     0.084 A 
ENDBRANCH   3  19
BRANCH   9  24
HETATM   24  O2  UNL     1      20.743   0.213  51.785  1.00  0.00    -0.274 OA
HETATM   25 CL1  UNL     1      19.295  -0.112  52.635  1.00  0.00     0.062 Cl
ENDBRANCH   9  24
TORSDOF 2
ENDMDL
MODEL 6
REMARK VINA RESULT:      -8.2      2.802      4.522
REMARK  2 active torsions:
REMARK  status: ('A' for Active; 'I' for Inactive)
REMARK       I    between atoms: C1_2  and  N1_3 
REMARK       I    between atoms: C1_2  and  N2_9 
REMARK    1  A    between atoms: N1_3  and  C2_4 
REMARK    2  A    between atoms: C11_14  and  O2_15 
ROOT
HETATM    1  O1  UNL     1      27.559   3.968  48.629  1.00  0.00    -0.247 OA
HETATM    2  C1  UNL     1      26.860   4.841  49.205  1.00  0.00     0.323 C 
HETATM    3  N1  UNL     1      27.244   6.203  49.024  1.00  0.00    -0.312 N 
HETATM    4  N2  UNL     1      25.689   4.673  50.052  1.00  0.00    -0.326 N 
HETATM    5  C7  UNL     1      24.728   5.552  50.821  1.00  0.00     0.155 C 
HETATM    6  C8  UNL     1      23.486   5.542  50.052  1.00  0.00    -0.011 C 
HETATM    7  C9  UNL     1      22.660   4.938  50.951  1.00  0.00    -0.026 C 
HETATM    8  C10 UNL     1      22.870   4.443  52.316  1.00  0.00     0.065 C 
HETATM    9  C11 UNL     1      22.912   2.934  52.377  1.00  0.00     0.182 C 
HETATM   10  C12 UNL     1      24.264   2.365  52.235  1.00  0.00    -0.017 A 
HETATM   11  C13 UNL     1      24.632   1.445  53.238  1.00  0.00     0.052 A 
HETATM   12  C14 UNL     1      25.824   0.765  53.406  1.00  0.00     0.117 A 
HETATM   13  F1  UNL     1      26.082  -0.097  54.400  1.00  0.00    -0.206 F 
HETATM   14  C15 UNL     1      26.807   1.006  52.469  1.00  0.00     0.043 A 
HETATM   15  C16 UNL     1      26.551   1.890  51.442  1.00  0.00     0.012 A 
HETATM   16  C17 UNL     1      25.345   2.527  51.340  1.00  0.00    -0.031 A 
HETATM   17  C18 UNL     1      25.077   3.407  50.241  1.00  0.00     0.167 C 
HETATM   18  H1  UNL     1      26.797   7.062  49.416  1.00  0.00     0.170 HD
ENDROOT
BRANCH   3  19
HETATM   19  C2  UNL     1      28.351   6.641  48.245  1.00  0.00     0.017 A 
HETATM   20  C3  UNL     1      29.657   6.355  48.312  1.00  0.00     0.025 A 
HETATM   21  C4  UNL     1      30.377   7.082  47.264  1.00  0.00    -0.002 A 
HETATM   22  C5  UNL     1      29.530   7.809  46.553  1.00  0.00    -0.021 A 
HETATM   23  C6  UNL     1      28.182   7.589  47.118  1.00  0.00     0.084 A 
ENDBRANCH   3  19
BRANCH   9  24
HETATM   24  O2  UNL     1      21.898   2.327  51.700  1.00  0.00    -0.274 OA
HETATM   25 CL1  UNL     1      20.563   2.183  52.759  1.00  0.00     0.062 Cl
ENDBRANCH   9  24
TORSDOF 2
ENDMDL
MODEL 7
REMARK VINA RESULT:      -7.8      8.004     10.776
REMARK  2 active torsions:
REMARK  status: ('A' for Active; 'I' for Inactive)
REMARK       I    between atoms: C1_2  and  N1_3 
REMARK       I    between atoms: C1_2  and  N2_9 
REMARK    1  A    between atoms: N1_3  and  C2_4 
REMARK    2  A    between atoms: C11_14  and  O2_15 
ROOT
HETATM    1  O1  UNL     1      32.926   6.692  48.326  1.00  0.00    -0.247 OA
HETATM    2  C1  UNL     1      31.877   6.349  47.723  1.00  0.00     0.323 C 
HETATM    3  N1  UNL     1      32.006   5.345  46.717  1.00  0.00    -0.312 N 
HETATM    4  N2  UNL     1      30.515   6.830  47.895  1.00  0.00    -0.326 N 
HETATM    5  C7  UNL     1      29.151   6.565  47.298  1.00  0.00     0.155 C 
HETATM    6  C8  UNL     1      28.419   5.808  48.312  1.00  0.00    -0.011 C 
HETATM    7  C9  UNL     1      27.425   6.694  48.593  1.00  0.00    -0.026 C 
HETATM    8  C10 UNL     1      27.098   8.022  48.063  1.00  0.00     0.065 C 
HETATM    9  C11 UNL     1      27.424   9.127  49.041  1.00  0.00     0.182 C 
HETATM   10  C12 UNL     1      28.781   9.680  48.890  1.00  0.00    -0.017 A 
HETATM   11  C13 UNL     1      28.843  11.085  48.782  1.00  0.00     0.052 A 
HETATM   12  C14 UNL     1      29.945  11.900  48.605  1.00  0.00     0.117 A 
HETATM   13  F1  UNL     1      29.904  13.237  48.513  1.00  0.00    -0.206 F 
HETATM   14  C15 UNL     1      31.169  11.270  48.521  1.00  0.00     0.043 A 
HETATM   15  C16 UNL     1      31.223   9.896  48.615  1.00  0.00     0.012 A 
HETATM   16  C17 UNL     1      30.088   9.153  48.791  1.00  0.00    -0.031 A 
HETATM   17  C18 UNL     1      30.164   7.729  48.934  1.00  0.00     0.167 C 
HETATM   18  H1  UNL     1      31.261   4.930  46.113  1.00  0.00     0.170 HD
ENDROOT
BRANCH   3  19
HETATM   19  C2  UNL     1      33.226   4.709  46.352  1.00  0.00     0.017 A 
HETATM   20  C3  UNL     1      34.045   4.886  45.309  1.00  0.00     0.025 A 
HETATM   21  C4  UNL     1      35.178   3.963  45.407  1.00  0.00    -0.002 A 
HETATM   22  C5  UNL     1      35.066   3.222  46.499  1.00  0.00    -0.021 A 
HETATM   23  C6  UNL     1      33.821   3.635  47.182  1.00  0.00     0.084 A 
ENDBRANCH   3  19
BRANCH   9  24
HETATM   24  O2  UNL     1      26.975   8.891  50.305  1.00  0.00    -0.274 OA
HETATM   25 CL1  UNL     1      25.267   8.821  50.258  1.00  0.00     0.062 Cl
ENDBRANCH   9  24
TORSDOF 2
ENDMDL
MODEL 8
REMARK VINA RESULT:      -7.7      6.153      9.031
REMARK  2 active torsions:
REMARK  status: ('A' for Active; 'I' for Inactive)
REMARK       I    between atoms: C1_2  and  N1_3 
REMARK       I    between atoms: C1_2  and  N2_9 
REMARK    1  A    between atoms: N1_3  and  C2_4 
REMARK    2  A    between atoms: C11_14  and  O2_15 
ROOT
HETATM    1  O1  UNL     1      31.249   6.085  47.531  1.00  0.00    -0.247 OA
HETATM    2  C1  UNL     1      30.982   7.119  48.196  1.00  0.00     0.323 C 
HETATM    3  N1  UNL     1      32.078   7.801  48.804  1.00  0.00    -0.312 N 
HETATM    4  N2  UNL     1      29.693   7.743  48.450  1.00  0.00    -0.326 N 
HETATM    5  C7  UNL     1      29.160   8.947  49.196  1.00  0.00     0.155 C 
HETATM    6  C8  UNL     1      28.803   9.920  48.165  1.00  0.00    -0.011 C 
HETATM    7  C9  UNL     1      27.459   9.992  48.368  1.00  0.00    -0.026 C 
HETATM    8  C10 UNL     1      26.562   9.341  49.330  1.00  0.00     0.065 C 
HETATM    9  C11 UNL     1      25.717   8.266  48.689  1.00  0.00     0.182 C 
HETATM   10  C12 UNL     1      26.321   6.923  48.729  1.00  0.00    -0.017 A 
HETATM   11  C13 UNL     1      25.487   5.910  49.244  1.00  0.00     0.052 A 
HETATM   12  C14 UNL     1      25.759   4.568  49.438  1.00  0.00     0.117 A 
HETATM   13  F1  UNL     1      24.894   3.674  49.938  1.00  0.00    -0.206 F 
HETATM   14  C15 UNL     1      27.021   4.139  49.085  1.00  0.00     0.043 A 
HETATM   15  C16 UNL     1      27.918   5.050  48.569  1.00  0.00     0.012 A 
HETATM   16  C17 UNL     1      27.577   6.364  48.404  1.00  0.00    -0.031 A 
HETATM   17  C18 UNL     1      28.505   7.290  47.823  1.00  0.00     0.167 C 
HETATM   18  H1  UNL     1      32.061   8.667  49.389  1.00  0.00     0.170 HD
ENDROOT
BRANCH   3  19
HETATM   19  C2  UNL     1      33.440   7.399  48.711  1.00  0.00     0.017 A 
HETATM   20  C3  UNL     1      34.550   8.077  48.395  1.00  0.00     0.025 A 
HETATM   21  C4  UNL     1      35.708   7.182  48.447  1.00  0.00    -0.002 A 
HETATM   22  C5  UNL     1      35.324   5.963  48.792  1.00  0.00    -0.021 A 
HETATM   23  C6  UNL     1      33.859   6.004  48.985  1.00  0.00     0.084 A 
ENDBRANCH   3  19
BRANCH   9  24
HETATM   24  O2  UNL     1      25.121   8.655  47.527  1.00  0.00    -0.274 OA
HETATM   25 CL1  UNL     1      23.750   9.598  47.923  1.00  0.00     0.062 Cl
ENDBRANCH   9  24
TORSDOF 2
ENDMDL
MODEL 9
REMARK VINA RESULT:      -7.6      3.854      6.668
REMARK  2 active torsions:
REMARK  status: ('A' for Active; 'I' for Inactive)
REMARK       I    between atoms: C1_2  and  N1_3 
REMARK       I    between atoms: C1_2  and  N2_9 
REMARK    1  A    between atoms: N1_3  and  C2_4 
REMARK    2  A    between atoms: C11_14  and  O2_15 
ROOT
HETATM    1  O1  UNL     1      24.919   2.857  53.839  1.00  0.00    -0.247 OA
HETATM    2  C1  UNL     1      24.450   1.947  53.108  1.00  0.00     0.323 C 
HETATM    3  N1  UNL     1      25.291   0.822  52.852  1.00  0.00    -0.312 N 
HETATM    4  N2  UNL     1      23.149   1.860  52.465  1.00  0.00    -0.326 N 
HETATM    5  C7  UNL     1      22.403   0.891  51.574  1.00  0.00     0.155 C 
HETATM    6  C8  UNL     1      21.402   0.261  52.432  1.00  0.00    -0.011 C 
HETATM    7  C9  UNL     1      20.265   0.706  51.830  1.00  0.00    -0.026 C 
HETATM    8  C10 UNL     1      20.028   1.546  50.650  1.00  0.00     0.065 C 
HETATM    9  C11 UNL     1      19.557   2.933  51.020  1.00  0.00     0.182 C 
HETATM   10  C12 UNL     1      20.644   3.912  51.186  1.00  0.00    -0.017 A 
HETATM   11  C13 UNL     1      20.484   5.109  50.458  1.00  0.00     0.052 A 
HETATM   12  C14 UNL     1      21.327   6.202  50.375  1.00  0.00     0.117 A 
HETATM   13  F1  UNL     1      21.087   7.303  49.650  1.00  0.00    -0.206 F 
HETATM   14  C15 UNL     1      22.497   6.132  51.103  1.00  0.00     0.043 A 
HETATM   15  C16 UNL     1      22.753   5.004  51.853  1.00  0.00     0.012 A 
HETATM   16  C17 UNL     1      21.870   3.960  51.886  1.00  0.00    -0.031 A 
HETATM   17  C18 UNL     1      22.129   2.814  52.707  1.00  0.00     0.167 C 
HETATM   18  H1  UNL     1      25.086  -0.025  52.277  1.00  0.00     0.170 HD
ENDROOT
BRANCH   3  19
HETATM   19  C2  UNL     1      26.610   0.659  53.361  1.00  0.00     0.017 A 
HETATM   20  C3  UNL     1      27.082  -0.016  54.415  1.00  0.00     0.025 A 
HETATM   21  C4  UNL     1      28.536   0.145  54.497  1.00  0.00    -0.002 A 
HETATM   22  C5  UNL     1      28.963   0.909  53.504  1.00  0.00    -0.021 A 
HETATM   23  C6  UNL     1      27.779   1.296  52.707  1.00  0.00     0.084 A 
ENDBRANCH   3  19
BRANCH   9  24
HETATM   24  O2  UNL     1      18.552   2.944  51.940  1.00  0.00    -0.274 OA
HETATM   25 CL1  UNL     1      17.105   2.483  51.152  1.00  0.00     0.062 Cl
ENDBRANCH   9  24
TORSDOF 2
ENDMDL
