MODEL 1
REMARK VINA RESULT:      -9.5      0.000      0.000
REMARK  2 active torsions:
REMARK  status: ('A' for Active; 'I' for Inactive)
REMARK    1  A    between atoms: S1_2  and  N1_5 
REMARK    2  A    between atoms: N1_5  and  C2_6 
ROOT
HETATM    1  C2  UNL     1      26.282   0.903  52.745  1.00  0.00     0.043 C 
HETATM    2  C3  UNL     1      26.057   2.178  52.420  1.00  0.00     0.035 C 
HETATM    3  C4  UNL     1      24.656   2.539  52.040  1.00  0.00     0.159 C 
HETATM    4  C5  UNL     1      23.743   1.925  53.115  1.00  0.00     0.093 C 
HETATM    5  C6  UNL     1      23.948   0.474  53.009  1.00  0.00     0.014 C 
HETATM    6  C7  UNL     1      25.168  -0.017  53.061  1.00  0.00     0.055 C 
HETATM    7  N2  UNL     1      22.886  -0.455  52.848  1.00  0.00    -0.355 N 
HETATM    8  C8  UNL     1      21.531  -0.222  52.493  1.00  0.00     0.096 A 
HETATM    9  C9  UNL     1      20.594  -0.592  53.436  1.00  0.00     0.151 A 
HETATM   10  N3  UNL     1      19.259  -0.465  53.320  1.00  0.00    -0.252 NA
HETATM   11  C10 UNL     1      18.779   0.071  52.185  1.00  0.00     0.235 A 
HETATM   12  N4  UNL     1      19.667   0.441  51.246  1.00  0.00    -0.222 NA
HETATM   13  C11 UNL     1      21.000   0.321  51.345  1.00  0.00     0.158 A 
HETATM   14  N5  UNL     1      21.559   0.828  50.140  1.00  0.00    -0.337 N 
HETATM   15  C12 UNL     1      22.184   1.991  49.611  1.00  0.00     0.069 A 
HETATM   16  C13 UNL     1      21.435   2.691  48.686  1.00  0.00     0.035 A 
HETATM   17  C14 UNL     1      21.838   3.867  48.037  1.00  0.00     0.046 A 
HETATM   18  C15 UNL     1      23.099   4.268  48.426  1.00  0.00     0.141 A 
HETATM   19  F1  UNL     1      23.576   5.408  47.843  1.00  0.00    -0.204 F 
HETATM   20  C16 UNL     1      23.901   3.617  49.342  1.00  0.00     0.108 A 
HETATM   21 CL1  UNL     1      25.464   4.270  49.710  1.00  0.00    -0.078 Cl
HETATM   22  C17 UNL     1      23.435   2.467  49.939  1.00  0.00     0.121 A 
HETATM   23  O3  UNL     1      24.293   1.869  50.845  1.00  0.00    -0.337 OA
HETATM   24  H10 UNL     1      23.008  -1.481  52.990  1.00  0.00     0.166 HD
HETATM   25  H13 UNL     1      21.532   0.182  49.319  1.00  0.00     0.167 HD
ENDROOT
BRANCH   1  26
HETATM   26  N1  UNL     1      27.631   0.500  52.767  1.00  0.00    -0.285 N 
HETATM   27  H4  UNL     1      28.017   0.332  51.817  1.00  0.00     0.178 HD
BRANCH  26  28
HETATM   28  S1  UNL     1      28.601   0.288  54.159  1.00  0.00     0.227 S 
HETATM   29  C1  UNL     1      29.985  -0.741  53.781  1.00  0.00     0.186 C 
HETATM   30  O1  UNL     1      29.082   1.621  54.682  1.00  0.00    -0.206 OA
HETATM   31  O2  UNL     1      27.818  -0.336  55.252  1.00  0.00    -0.206 OA
ENDBRANCH  26  28
ENDBRANCH   1  26
TORSDOF 2
ENDMDL
MODEL 2
REMARK VINA RESULT:      -9.3      3.981      7.000
REMARK  2 active torsions:
REMARK  status: ('A' for Active; 'I' for Inactive)
REMARK    1  A    between atoms: S1_2  and  N1_5 
REMARK    2  A    between atoms: N1_5  and  C2_6 
ROOT
HETATM    1  C2  UNL     1      23.761   3.635  49.925  1.00  0.00     0.043 C 
HETATM    2  C3  UNL     1      22.858   3.673  50.907  1.00  0.00     0.035 C 
HETATM    3  C4  UNL     1      23.209   2.959  52.174  1.00  0.00     0.159 C 
HETATM    4  C5  UNL     1      24.641   3.389  52.532  1.00  0.00     0.093 C 
HETATM    5  C6  UNL     1      25.475   2.908  51.421  1.00  0.00     0.014 C 
HETATM    6  C7  UNL     1      25.160   3.229  50.184  1.00  0.00     0.055 C 
HETATM    7  N2  UNL     1      26.626   2.098  51.604  1.00  0.00    -0.355 N 
HETATM    8  C8  UNL     1      27.052   1.381  52.754  1.00  0.00     0.096 A 
HETATM    9  C9  UNL     1      28.268   1.765  53.280  1.00  0.00     0.151 A 
HETATM   10  N3  UNL     1      28.867   1.231  54.362  1.00  0.00    -0.252 NA
HETATM   11  C10 UNL     1      28.233   0.233  54.998  1.00  0.00     0.235 A 
HETATM   12  N4  UNL     1      27.045  -0.163  54.509  1.00  0.00    -0.222 NA
HETATM   13  C11 UNL     1      26.434   0.356  53.433  1.00  0.00     0.158 A 
HETATM   14  N5  UNL     1      25.210  -0.348  53.262  1.00  0.00    -0.337 N 
HETATM   15  C12 UNL     1      23.817  -0.225  53.517  1.00  0.00     0.069 A 
HETATM   16  C13 UNL     1      23.317  -1.082  54.478  1.00  0.00     0.035 A 
HETATM   17  C14 UNL     1      21.981  -1.139  54.900  1.00  0.00     0.046 A 
HETATM   18  C15 UNL     1      21.188  -0.225  54.238  1.00  0.00     0.141 A 
HETATM   19  F1  UNL     1      19.867  -0.209  54.586  1.00  0.00    -0.204 F 
HETATM   20  C16 UNL     1      21.621   0.658  53.269  1.00  0.00     0.108 A 
HETATM   21 CL1  UNL     1      20.478   1.740  52.542  1.00  0.00    -0.078 Cl
HETATM   22  C17 UNL     1      22.949   0.655  52.907  1.00  0.00     0.121 A 
HETATM   23  O3  UNL     1      23.310   1.566  51.930  1.00  0.00    -0.337 OA
HETATM   24  H10 UNL     1      27.331   1.941  50.850  1.00  0.00     0.166 HD
HETATM   25  H13 UNL     1      25.284  -1.285  52.806  1.00  0.00     0.167 HD
ENDROOT
BRANCH   1  26
HETATM   26  N1  UNL     1      23.300   4.002  48.647  1.00  0.00    -0.285 N 
HETATM   27  H4  UNL     1      23.729   4.883  48.300  1.00  0.00     0.178 HD
BRANCH  26  28
HETATM   28  S1  UNL     1      22.162   3.148  47.699  1.00  0.00     0.227 S 
HETATM   29  C1  UNL     1      21.935   3.961  46.147  1.00  0.00     0.186 C 
HETATM   30  O1  UNL     1      22.617   1.726  47.470  1.00  0.00    -0.206 OA
HETATM   31  O2  UNL     1      20.856   3.066  48.397  1.00  0.00    -0.206 OA
ENDBRANCH  26  28
ENDBRANCH   1  26
TORSDOF 2
ENDMDL
MODEL 3
REMARK VINA RESULT:      -8.6      7.714     10.725
REMARK  2 active torsions:
REMARK  status: ('A' for Active; 'I' for Inactive)
REMARK    1  A    between atoms: S1_2  and  N1_5 
REMARK    2  A    between atoms: N1_5  and  C2_6 
ROOT
HETATM    1  C2  UNL     1      25.893   6.837  48.298  1.00  0.00     0.043 C 
HETATM    2  C3  UNL     1      26.024   7.983  47.626  1.00  0.00     0.035 C 
HETATM    3  C4  UNL     1      27.408   8.537  47.503  1.00  0.00     0.159 C 
HETATM    4  C5  UNL     1      28.306   7.369  47.063  1.00  0.00     0.093 C 
HETATM    5  C6  UNL     1      28.236   6.397  48.163  1.00  0.00     0.014 C 
HETATM    6  C7  UNL     1      27.063   5.981  48.592  1.00  0.00     0.055 C 
HETATM    7  N2  UNL     1      29.383   5.866  48.809  1.00  0.00    -0.355 N 
HETATM    8  C8  UNL     1      30.732   6.310  48.761  1.00  0.00     0.096 A 
HETATM    9  C9  UNL     1      31.639   5.409  48.244  1.00  0.00     0.151 A 
HETATM   10  N3  UNL     1      32.963   5.611  48.100  1.00  0.00    -0.252 NA
HETATM   11  C10 UNL     1      33.460   6.795  48.492  1.00  0.00     0.235 A 
HETATM   12  N4  UNL     1      32.600   7.695  49.000  1.00  0.00    -0.222 NA
HETATM   13  C11 UNL     1      31.280   7.511  49.151  1.00  0.00     0.158 A 
HETATM   14  N5  UNL     1      30.750   8.701  49.722  1.00  0.00    -0.337 N 
HETATM   15  C12 UNL     1      30.058   9.890  49.362  1.00  0.00     0.069 A 
HETATM   16  C13 UNL     1      30.796  11.052  49.462  1.00  0.00     0.035 A 
HETATM   17  C14 UNL     1      30.331  12.340  49.156  1.00  0.00     0.046 A 
HETATM   18  C15 UNL     1      29.018  12.329  48.731  1.00  0.00     0.141 A 
HETATM   19  F1  UNL     1      28.478  13.542  48.410  1.00  0.00    -0.204 F 
HETATM   20  C16 UNL     1      28.224  11.206  48.609  1.00  0.00     0.108 A 
HETATM   21 CL1  UNL     1      26.590  11.384  48.058  1.00  0.00    -0.078 Cl
HETATM   22  C17 UNL     1      28.753   9.976  48.928  1.00  0.00     0.121 A 
HETATM   23  O3  UNL     1      27.899   8.897  48.783  1.00  0.00    -0.337 OA
HETATM   24  H10 UNL     1      29.344   5.028  49.429  1.00  0.00     0.166 HD
HETATM   25  H13 UNL     1      30.883   8.810  50.753  1.00  0.00     0.167 HD
ENDROOT
BRANCH   1  26
HETATM   26  N1  UNL     1      24.586   6.503  48.701  1.00  0.00    -0.285 N 
HETATM   27  H4  UNL     1      24.054   5.995  47.966  1.00  0.00     0.178 HD
BRANCH  26  28
HETATM   28  S1  UNL     1      23.873   6.855  50.215  1.00  0.00     0.227 S 
HETATM   29  C1  UNL     1      22.116   6.915  50.058  1.00  0.00     0.186 C 
HETATM   30  O1  UNL     1      24.260   5.815  51.241  1.00  0.00    -0.206 OA
HETATM   31  O2  UNL     1      24.357   8.157  50.731  1.00  0.00    -0.206 OA
ENDBRANCH  26  28
ENDBRANCH   1  26
TORSDOF 2
ENDMDL
MODEL 4
REMARK VINA RESULT:      -8.5      4.019      5.854
REMARK  2 active torsions:
REMARK  status: ('A' for Active; 'I' for Inactive)
REMARK    1  A    between atoms: S1_2  and  N1_5 
REMARK    2  A    between atoms: N1_5  and  C2_6 
ROOT
HETATM    1  C2  UNL     1      25.416   5.550  49.927  1.00  0.00     0.043 C 
HETATM    2  C3  UNL     1      25.768   4.275  49.741  1.00  0.00     0.035 C 
HETATM    3  C4  UNL     1      24.737   3.238  50.055  1.00  0.00     0.159 C 
HETATM    4  C5  UNL     1      23.435   3.703  49.382  1.00  0.00     0.093 C 
HETATM    5  C6  UNL     1      23.100   4.977  50.034  1.00  0.00     0.014 C 
HETATM    6  C7  UNL     1      23.998   5.938  50.085  1.00  0.00     0.055 C 
HETATM    7  N2  UNL     1      21.838   5.242  50.628  1.00  0.00    -0.355 N 
HETATM    8  C8  UNL     1      20.794   4.341  50.966  1.00  0.00     0.096 A 
HETATM    9  C9  UNL     1      19.593   4.549  50.320  1.00  0.00     0.151 A 
HETATM   10  N3  UNL     1      18.470   3.822  50.480  1.00  0.00    -0.252 NA
HETATM   11  C10 UNL     1      18.509   2.796  51.345  1.00  0.00     0.235 A 
HETATM   12  N4  UNL     1      19.666   2.568  51.992  1.00  0.00    -0.222 NA
HETATM   13  C11 UNL     1      20.792   3.282  51.845  1.00  0.00     0.158 A 
HETATM   14  N5  UNL     1      21.768   2.710  52.707  1.00  0.00    -0.337 N 
HETATM   15  C12 UNL     1      22.889   1.835  52.686  1.00  0.00     0.069 A 
HETATM   16  C13 UNL     1      22.698   0.621  53.316  1.00  0.00     0.035 A 
HETATM   17  C14 UNL     1      23.653  -0.402  53.418  1.00  0.00     0.046 A 
HETATM   18  C15 UNL     1      24.842  -0.062  52.806  1.00  0.00     0.141 A 
HETATM   19  F1  UNL     1      25.834  -1.001  52.856  1.00  0.00    -0.204 F 
HETATM   20  C16 UNL     1      25.101   1.130  52.161  1.00  0.00     0.108 A 
HETATM   21 CL1  UNL     1      26.660   1.383  51.447  1.00  0.00    -0.078 Cl
HETATM   22  C17 UNL     1      24.111   2.086  52.102  1.00  0.00     0.121 A 
HETATM   23  O3  UNL     1      24.443   3.256  51.441  1.00  0.00    -0.337 OA
HETATM   24  H10 UNL     1      21.529   6.203  50.892  1.00  0.00     0.166 HD
HETATM   25  H13 UNL     1      21.696   2.975  53.716  1.00  0.00     0.167 HD
ENDROOT
BRANCH   1  26
HETATM   26  N1  UNL     1      26.469   6.483  49.961  1.00  0.00    -0.285 N 
HETATM   27  H4  UNL     1      26.733   6.759  50.928  1.00  0.00     0.178 HD
BRANCH  26  28
HETATM   28  S1  UNL     1      27.283   7.140  48.609  1.00  0.00     0.227 S 
HETATM   29  C1  UNL     1      28.114   8.630  49.067  1.00  0.00     0.186 C 
HETATM   30  O1  UNL     1      28.278   6.150  48.052  1.00  0.00    -0.206 OA
HETATM   31  O2  UNL     1      26.326   7.437  47.516  1.00  0.00    -0.206 OA
ENDBRANCH  26  28
ENDBRANCH   1  26
TORSDOF 2
ENDMDL
MODEL 5
REMARK VINA RESULT:      -8.4      3.923      5.950
REMARK  2 active torsions:
REMARK  status: ('A' for Active; 'I' for Inactive)
REMARK    1  A    between atoms: S1_2  and  N1_5 
REMARK    2  A    between atoms: N1_5  and  C2_6 
ROOT
HETATM    1  C2  UNL     1      22.052   3.444  49.989  1.00  0.00     0.043 C 
HETATM    2  C3  UNL     1      22.999   2.508  50.084  1.00  0.00     0.035 C 
HETATM    3  C4  UNL     1      22.628   1.243  50.790  1.00  0.00     0.159 C 
HETATM    4  C5  UNL     1      21.275   0.802  50.209  1.00  0.00     0.093 C 
HETATM    5  C6  UNL     1      20.339   1.880  50.558  1.00  0.00     0.014 C 
HETATM    6  C7  UNL     1      20.629   3.124  50.239  1.00  0.00     0.055 C 
HETATM    7  N2  UNL     1      19.111   1.659  51.235  1.00  0.00    -0.355 N 
HETATM    8  C8  UNL     1      18.660   0.506  51.931  1.00  0.00     0.096 A 
HETATM    9  C9  UNL     1      17.523  -0.090  51.426  1.00  0.00     0.151 A 
HETATM   10  N3  UNL     1      16.919  -1.189  51.919  1.00  0.00    -0.252 NA
HETATM   11  C10 UNL     1      17.462  -1.768  53.001  1.00  0.00     0.235 A 
HETATM   12  N4  UNL     1      18.571  -1.210  53.517  1.00  0.00    -0.222 NA
HETATM   13  C11 UNL     1      19.186  -0.117  53.041  1.00  0.00     0.158 A 
HETATM   14  N5  UNL     1      20.310   0.133  53.875  1.00  0.00    -0.337 N 
HETATM   15  C12 UNL     1      21.719  -0.054  53.920  1.00  0.00     0.069 A 
HETATM   16  C13 UNL     1      22.161  -0.968  54.856  1.00  0.00     0.035 A 
HETATM   17  C14 UNL     1      23.500  -1.321  55.079  1.00  0.00     0.046 A 
HETATM   18  C15 UNL     1      24.361  -0.641  54.243  1.00  0.00     0.141 A 
HETATM   19  F1  UNL     1      25.691  -0.921  54.390  1.00  0.00    -0.204 F 
HETATM   20  C16 UNL     1      23.989   0.284  53.289  1.00  0.00     0.108 A 
HETATM   21 CL1  UNL     1      25.214   1.043  52.325  1.00  0.00    -0.078 Cl
HETATM   22  C17 UNL     1      22.653   0.578  53.128  1.00  0.00     0.121 A 
HETATM   23  O3  UNL     1      22.355   1.514  52.154  1.00  0.00    -0.337 OA
HETATM   24  H10 UNL     1      18.358   2.379  51.288  1.00  0.00     0.166 HD
HETATM   25  H13 UNL     1      20.107   0.606  54.784  1.00  0.00     0.167 HD
ENDROOT
BRANCH   1  26
HETATM   26  N1  UNL     1      22.491   4.735  49.640  1.00  0.00    -0.285 N 
HETATM   27  H4  UNL     1      22.470   4.905  48.615  1.00  0.00     0.178 HD
BRANCH  26  28
HETATM   28  S1  UNL     1      23.017   5.951  50.721  1.00  0.00     0.227 S 
HETATM   29  C1  UNL     1      21.803   7.229  50.833  1.00  0.00     0.186 C 
HETATM   30  O1  UNL     1      23.277   5.371  52.091  1.00  0.00    -0.206 OA
HETATM   31  O2  UNL     1      24.298   6.541  50.263  1.00  0.00    -0.206 OA
ENDBRANCH  26  28
ENDBRANCH   1  26
TORSDOF 2
ENDMDL
MODEL 6
REMARK VINA RESULT:      -8.0      3.534      5.949
REMARK  2 active torsions:
REMARK  status: ('A' for Active; 'I' for Inactive)
REMARK    1  A    between atoms: S1_2  and  N1_5 
REMARK    2  A    between atoms: N1_5  and  C2_6 
ROOT
HETATM    1  C2  UNL     1      23.167   4.963  50.084  1.00  0.00     0.043 C 
HETATM    2  C3  UNL     1      24.029   4.010  49.720  1.00  0.00     0.035 C 
HETATM    3  C4  UNL     1      23.743   2.623  50.203  1.00  0.00     0.159 C 
HETATM    4  C5  UNL     1      22.256   2.361  49.915  1.00  0.00     0.093 C 
HETATM    5  C6  UNL     1      21.528   3.349  50.724  1.00  0.00     0.014 C 
HETATM    6  C7  UNL     1      21.831   4.625  50.621  1.00  0.00     0.055 C 
HETATM    7  N2  UNL     1      20.494   3.003  51.634  1.00  0.00    -0.355 N 
HETATM    8  C8  UNL     1      20.139   1.730  52.154  1.00  0.00     0.096 A 
HETATM    9  C9  UNL     1      18.867   1.294  51.846  1.00  0.00     0.151 A 
HETATM   10  N3  UNL     1      18.316   0.125  52.227  1.00  0.00    -0.252 NA
HETATM   11  C10 UNL     1      19.063  -0.703  52.976  1.00  0.00     0.235 A 
HETATM   12  N4  UNL     1      20.308  -0.304  53.292  1.00  0.00    -0.222 NA
HETATM   13  C11 UNL     1      20.872   0.855  52.923  1.00  0.00     0.158 A 
HETATM   14  N5  UNL     1      22.185   0.878  53.467  1.00  0.00    -0.337 N 
HETATM   15  C12 UNL     1      23.541   0.655  53.100  1.00  0.00     0.069 A 
HETATM   16  C13 UNL     1      24.126  -0.462  53.665  1.00  0.00     0.035 A 
HETATM   17  C14 UNL     1      25.445  -0.887  53.446  1.00  0.00     0.046 A 
HETATM   18  C15 UNL     1      26.123  -0.050  52.584  1.00  0.00     0.141 A 
HETATM   19  F1  UNL     1      27.419  -0.387  52.312  1.00  0.00    -0.204 F 
HETATM   20  C16 UNL     1      25.601   1.079  51.986  1.00  0.00     0.108 A 
HETATM   21 CL1  UNL     1      26.604   2.014  50.926  1.00  0.00    -0.078 Cl
HETATM   22  C17 UNL     1      24.296   1.432  52.249  1.00  0.00     0.121 A 
HETATM   23  O3  UNL     1      23.842   2.576  51.616  1.00  0.00    -0.337 OA
HETATM   24  H10 UNL     1      19.840   3.709  52.038  1.00  0.00     0.166 HD
HETATM   25  H13 UNL     1      22.255   1.132  54.479  1.00  0.00     0.167 HD
ENDROOT
BRANCH   1  26
HETATM   26  N1  UNL     1      23.610   6.289  49.923  1.00  0.00    -0.285 N 
HETATM   27  H4  UNL     1      23.868   6.740  50.824  1.00  0.00     0.178 HD
BRANCH  26  28
HETATM   28  S1  UNL     1      23.742   7.140  48.446  1.00  0.00     0.227 S 
HETATM   29  C1  UNL     1      22.646   6.447  47.248  1.00  0.00     0.186 C 
HETATM   30  O1  UNL     1      23.424   8.604  48.644  1.00  0.00    -0.206 OA
HETATM   31  O2  UNL     1      25.129   7.076  47.927  1.00  0.00    -0.206 OA
ENDBRANCH  26  28
ENDBRANCH   1  26
TORSDOF 2
ENDMDL
MODEL 7
REMARK VINA RESULT:      -7.9      5.706      7.606
REMARK  2 active torsions:
REMARK  status: ('A' for Active; 'I' for Inactive)
REMARK    1  A    between atoms: S1_2  and  N1_5 
REMARK    2  A    between atoms: N1_5  and  C2_6 
ROOT
HETATM    1  C2  UNL     1      27.593   7.104  48.843  1.00  0.00     0.043 C 
HETATM    2  C3  UNL     1      27.236   5.839  48.607  1.00  0.00     0.035 C 
HETATM    3  C4  UNL     1      25.800   5.489  48.841  1.00  0.00     0.159 C 
HETATM    4  C5  UNL     1      24.969   6.584  48.153  1.00  0.00     0.093 C 
HETATM    5  C6  UNL     1      25.317   7.828  48.854  1.00  0.00     0.014 C 
HETATM    6  C7  UNL     1      26.581   8.174  48.977  1.00  0.00     0.055 C 
HETATM    7  N2  UNL     1      24.352   8.700  49.423  1.00  0.00    -0.355 N 
HETATM    8  C8  UNL     1      22.975   8.472  49.687  1.00  0.00     0.096 A 
HETATM    9  C9  UNL     1      22.094   9.294  49.016  1.00  0.00     0.151 A 
HETATM   10  N3  UNL     1      20.751   9.260  49.108  1.00  0.00    -0.252 NA
HETATM   11  C10 UNL     1      20.204   8.345  49.925  1.00  0.00     0.235 A 
HETATM   12  N4  UNL     1      21.037   7.528  50.593  1.00  0.00    -0.222 NA
HETATM   13  C11 UNL     1      22.376   7.549  50.514  1.00  0.00     0.158 A 
HETATM   14  N5  UNL     1      22.866   6.529  51.377  1.00  0.00    -0.337 N 
HETATM   15  C12 UNL     1      23.363   5.198  51.347  1.00  0.00     0.069 A 
HETATM   16  C13 UNL     1      22.534   4.249  51.913  1.00  0.00     0.035 A 
HETATM   17  C14 UNL     1      22.807   2.875  51.994  1.00  0.00     0.046 A 
HETATM   18  C15 UNL     1      24.027   2.556  51.435  1.00  0.00     0.141 A 
HETATM   19  F1  UNL     1      24.379   1.236  51.469  1.00  0.00    -0.204 F 
HETATM   20  C16 UNL     1      24.903   3.451  50.855  1.00  0.00     0.108 A 
HETATM   21 CL1  UNL     1      26.398   2.867  50.200  1.00  0.00    -0.078 Cl
HETATM   22  C17 UNL     1      24.564   4.785  50.812  1.00  0.00     0.121 A 
HETATM   23  O3  UNL     1      25.490   5.624  50.217  1.00  0.00    -0.337 OA
HETATM   24  H10 UNL     1      24.578   9.673  49.723  1.00  0.00     0.166 HD
HETATM   25  H13 UNL     1      22.892   6.767  52.394  1.00  0.00     0.167 HD
ENDROOT
BRANCH   1  26
HETATM   26  N1  UNL     1      28.975   7.345  48.953  1.00  0.00    -0.285 N 
HETATM   27  H4  UNL     1      29.480   6.582  49.445  1.00  0.00     0.178 HD
BRANCH  26  28
HETATM   28  S1  UNL     1      29.812   8.716  48.367  1.00  0.00     0.227 S 
HETATM   29  C1  UNL     1      29.244   9.128  46.747  1.00  0.00     0.186 C 
HETATM   30  O1  UNL     1      29.619   9.895  49.292  1.00  0.00    -0.206 OA
HETATM   31  O2  UNL     1      31.271   8.456  48.316  1.00  0.00    -0.206 OA
ENDBRANCH  26  28
ENDBRANCH   1  26
TORSDOF 2
ENDMDL
MODEL 8
REMARK VINA RESULT:      -7.7      1.680      2.057
REMARK  2 active torsions:
REMARK  status: ('A' for Active; 'I' for Inactive)
REMARK    1  A    between atoms: S1_2  and  N1_5 
REMARK    2  A    between atoms: N1_5  and  C2_6 
ROOT
HETATM    1  C2  UNL     1      24.202   0.709  52.728  1.00  0.00     0.043 C 
HETATM    2  C3  UNL     1      23.991   1.994  52.431  1.00  0.00     0.035 C 
HETATM    3  C4  UNL     1      22.599   2.375  52.038  1.00  0.00     0.159 C 
HETATM    4  C5  UNL     1      21.664   1.742  53.081  1.00  0.00     0.093 C 
HETATM    5  C6  UNL     1      21.860   0.292  52.941  1.00  0.00     0.014 C 
HETATM    6  C7  UNL     1      23.076  -0.210  53.001  1.00  0.00     0.055 C 
HETATM    7  N2  UNL     1      20.795  -0.624  52.738  1.00  0.00    -0.355 N 
HETATM    8  C8  UNL     1      19.447  -0.372  52.367  1.00  0.00     0.096 A 
HETATM    9  C9  UNL     1      18.492  -0.759  53.284  1.00  0.00     0.151 A 
HETATM   10  N3  UNL     1      17.160  -0.619  53.148  1.00  0.00    -0.252 NA
HETATM   11  C10 UNL     1      16.703  -0.051  52.020  1.00  0.00     0.235 A 
HETATM   12  N4  UNL     1      17.610   0.337  51.106  1.00  0.00    -0.222 NA
HETATM   13  C11 UNL     1      18.940   0.204  51.225  1.00  0.00     0.158 A 
HETATM   14  N5  UNL     1      19.524   0.737  50.042  1.00  0.00    -0.337 N 
HETATM   15  C12 UNL     1      20.166   1.908  49.554  1.00  0.00     0.069 A 
HETATM   16  C13 UNL     1      19.437   2.638  48.635  1.00  0.00     0.035 A 
HETATM   17  C14 UNL     1      19.859   3.827  48.023  1.00  0.00     0.046 A 
HETATM   18  C15 UNL     1      21.117   4.208  48.443  1.00  0.00     0.141 A 
HETATM   19  F1  UNL     1      21.612   5.360  47.898  1.00  0.00    -0.204 F 
HETATM   20  C16 UNL     1      21.898   3.528  49.356  1.00  0.00     0.108 A 
HETATM   21 CL1  UNL     1      23.460   4.159  49.766  1.00  0.00    -0.078 Cl
HETATM   22  C17 UNL     1      21.414   2.367  49.915  1.00  0.00     0.121 A 
HETATM   23  O3  UNL     1      22.252   1.739  50.820  1.00  0.00    -0.337 OA
HETATM   24  H10 UNL     1      20.907  -1.655  52.856  1.00  0.00     0.166 HD
HETATM   25  H13 UNL     1      19.506   0.113  49.204  1.00  0.00     0.167 HD
ENDROOT
BRANCH   1  26
HETATM   26  N1  UNL     1      25.547   0.296  52.762  1.00  0.00    -0.285 N 
HETATM   27  H4  UNL     1      25.911   0.029  51.825  1.00  0.00     0.178 HD
BRANCH  26  28
HETATM   28  S1  UNL     1      26.545   0.213  54.147  1.00  0.00     0.227 S 
HETATM   29  C1  UNL     1      28.137  -0.413  53.711  1.00  0.00     0.186 C 
HETATM   30  O1  UNL     1      26.688   1.576  54.784  1.00  0.00    -0.206 OA
HETATM   31  O2  UNL     1      25.943  -0.671  55.174  1.00  0.00    -0.206 OA
ENDBRANCH  26  28
ENDBRANCH   1  26
TORSDOF 2
ENDMDL
MODEL 9
REMARK VINA RESULT:      -7.6      4.217      6.801
REMARK  2 active torsions:
REMARK  status: ('A' for Active; 'I' for Inactive)
REMARK    1  A    between atoms: S1_2  and  N1_5 
REMARK    2  A    between atoms: N1_5  and  C2_6 
ROOT
HETATM    1  C2  UNL     1      22.420   1.685  51.091  1.00  0.00     0.043 C 
HETATM    2  C3  UNL     1      21.547   2.306  50.294  1.00  0.00     0.035 C 
HETATM    3  C4  UNL     1      22.030   3.537  49.595  1.00  0.00     0.159 C 
HETATM    4  C5  UNL     1      23.397   3.182  48.985  1.00  0.00     0.093 C 
HETATM    5  C6  UNL     1      24.259   2.870  50.133  1.00  0.00     0.014 C 
HETATM    6  C7  UNL     1      23.868   1.976  51.017  1.00  0.00     0.055 C 
HETATM    7  N2  UNL     1      25.518   3.487  50.355  1.00  0.00    -0.355 N 
HETATM    8  C8  UNL     1      26.072   4.647  49.751  1.00  0.00     0.096 A 
HETATM    9  C9  UNL     1      27.236   4.452  49.037  1.00  0.00     0.151 A 
HETATM   10  N3  UNL     1      27.933   5.400  48.383  1.00  0.00    -0.252 NA
HETATM   11  C10 UNL     1      27.464   6.658  48.420  1.00  0.00     0.235 A 
HETATM   12  N4  UNL     1      26.331   6.880  49.109  1.00  0.00    -0.222 NA
HETATM   13  C11 UNL     1      25.624   5.949  49.766  1.00  0.00     0.158 A 
HETATM   14  N5  UNL     1      24.508   6.604  50.355  1.00  0.00    -0.337 N 
HETATM   15  C12 UNL     1      23.118   6.826  50.149  1.00  0.00     0.069 A 
HETATM   16  C13 UNL     1      22.771   8.124  49.830  1.00  0.00     0.035 A 
HETATM   17  C14 UNL     1      21.468   8.578  49.577  1.00  0.00     0.046 A 
HETATM   18  C15 UNL     1      20.537   7.566  49.684  1.00  0.00     0.141 A 
HETATM   19  F1  UNL     1      19.236   7.918  49.454  1.00  0.00    -0.204 F 
HETATM   20  C16 UNL     1      20.813   6.251  49.999  1.00  0.00     0.108 A 
HETATM   21 CL1  UNL     1      19.509   5.112  50.089  1.00  0.00    -0.078 Cl
HETATM   22  C17 UNL     1      22.119   5.881  50.233  1.00  0.00     0.121 A 
HETATM   23  O3  UNL     1      22.320   4.548  50.545  1.00  0.00    -0.337 OA
HETATM   24  H10 UNL     1      26.217   3.116  51.035  1.00  0.00     0.166 HD
HETATM   25  H13 UNL     1      24.700   7.126  51.239  1.00  0.00     0.167 HD
ENDROOT
BRANCH   1  26
HETATM   26  N1  UNL     1      21.877   0.751  51.993  1.00  0.00    -0.285 N 
HETATM   27  H4  UNL     1      22.410  -0.141  52.020  1.00  0.00     0.178 HD
BRANCH  26  28
HETATM   28  S1  UNL     1      20.495   0.977  52.975  1.00  0.00     0.227 S 
HETATM   29  C1  UNL     1      19.105   0.153  52.264  1.00  0.00     0.186 C 
HETATM   30  O1  UNL     1      20.742   0.455  54.370  1.00  0.00    -0.206 OA
HETATM   31  O2  UNL     1      20.183   2.420  53.113  1.00  0.00    -0.206 OA
ENDBRANCH  26  28
ENDBRANCH   1  26
TORSDOF 2
ENDMDL
