MODEL 1
REMARK VINA RESULT:      -7.5      0.000      0.000
REMARK  6 active torsions:
REMARK  status: ('A' for Active; 'I' for Inactive)
REMARK    1  A    between atoms: O1_2  and  C2_3 
REMARK    2  A    between atoms: C2_3  and  C3_4 
REMARK    3  A    between atoms: C3_4  and  C4_5 
REMARK    4  A    between atoms: C5_7  and  C6_8 
REMARK    5  A    between atoms: C11_15  and  S1_16 
REMARK    6  A    between atoms: S1_16  and  N3_17 
ROOT
HETATM    1  C6  UNL     1      24.457   2.944  52.353  1.00  0.00     0.163 A 
HETATM    2  C7  UNL     1      24.803   3.425  50.990  1.00  0.00     0.236 A 
HETATM    3  O2  UNL     1      25.615   4.223  50.458  1.00  0.00    -0.272 OA
HETATM    4  N2  UNL     1      23.941   2.766  50.041  1.00  0.00    -0.326 N 
HETATM    5  C8  UNL     1      23.047   1.881  50.741  1.00  0.00     0.042 A 
HETATM    6  C9  UNL     1      22.029   1.013  50.411  1.00  0.00     0.031 A 
HETATM    7  C10 UNL     1      21.330   0.279  51.326  1.00  0.00     0.027 A 
HETATM    8  C11 UNL     1      21.658   0.414  52.646  1.00  0.00     0.075 A 
HETATM    9  C12 UNL     1      22.661   1.259  53.070  1.00  0.00     0.035 A 
HETATM   10  C13 UNL     1      23.336   1.979  52.079  1.00  0.00    -0.011 A 
HETATM   11  H11 UNL     1      23.829   2.793  48.989  1.00  0.00     0.169 HD
ENDROOT
BRANCH   1  12
HETATM   12  C5  UNL     1      25.600   2.247  52.996  1.00  0.00     0.027 A 
HETATM   13  N1  UNL     1      26.375   2.487  54.162  1.00  0.00    -0.383 N 
HETATM   14  C4  UNL     1      27.205   1.320  53.954  1.00  0.00     0.114 A 
HETATM   15  H9  UNL     1      26.325   3.257  54.890  1.00  0.00     0.160 HD
HETATM   16  C14 UNL     1      26.342   1.172  52.778  1.00  0.00    -0.038 A 
HETATM   17  C15 UNL     1      26.320   0.140  51.696  1.00  0.00     0.048 C 
BRANCH  14  18
HETATM   18  C3  UNL     1      28.658   1.613  53.685  1.00  0.00     0.056 C 
BRANCH  18  19
HETATM   19  C2  UNL     1      29.569   0.509  54.083  1.00  0.00     0.169 C 
BRANCH  19  20
HETATM   20  O1  UNL     1      28.893  -0.681  54.204  1.00  0.00    -0.396 OA
HETATM   21  C1  UNL     1      29.286  -1.698  53.381  1.00  0.00     0.201 C 
ENDBRANCH  19  20
ENDBRANCH  18  19
ENDBRANCH  14  18
ENDBRANCH   1  12
BRANCH   8  22
HETATM   22  S1  UNL     1      20.722  -0.559  53.788  1.00  0.00     0.239 S 
HETATM   23  O3  UNL     1      19.364  -0.781  53.164  1.00  0.00    -0.206 OA
HETATM   24  O4  UNL     1      21.378  -1.879  53.980  1.00  0.00    -0.206 OA
BRANCH  22  25
HETATM   25  N3  UNL     1      20.575   0.345  55.229  1.00  0.00    -0.225 NA
HETATM   26  H14 UNL     1      21.547   0.616  55.567  1.00  0.00     0.136 HD
HETATM   27  H15 UNL     1      20.024   1.239  55.057  1.00  0.00     0.136 HD
ENDBRANCH  22  25
ENDBRANCH   8  22
TORSDOF 6
ENDMDL
MODEL 2
REMARK VINA RESULT:      -7.4      3.487      6.191
REMARK  6 active torsions:
REMARK  status: ('A' for Active; 'I' for Inactive)
REMARK    1  A    between atoms: O1_2  and  C2_3 
REMARK    2  A    between atoms: C2_3  and  C3_4 
REMARK    3  A    between atoms: C3_4  and  C4_5 
REMARK    4  A    between atoms: C5_7  and  C6_8 
REMARK    5  A    between atoms: C11_15  and  S1_16 
REMARK    6  A    between atoms: S1_16  and  N3_17 
ROOT
HETATM    1  C6  UNL     1      22.952   4.553  52.489  1.00  0.00     0.163 A 
HETATM    2  C7  UNL     1      21.671   4.224  51.812  1.00  0.00     0.236 A 
HETATM    3  O2  UNL     1      20.642   4.825  51.413  1.00  0.00    -0.272 OA
HETATM    4  N2  UNL     1      21.640   2.804  51.561  1.00  0.00    -0.326 N 
HETATM    5  C8  UNL     1      22.851   2.204  52.056  1.00  0.00     0.042 A 
HETATM    6  C9  UNL     1      23.394   0.939  52.116  1.00  0.00     0.031 A 
HETATM    7  C10 UNL     1      24.612   0.662  52.669  1.00  0.00     0.027 A 
HETATM    8  C11 UNL     1      25.333   1.697  53.194  1.00  0.00     0.075 A 
HETATM    9  C12 UNL     1      24.869   2.995  53.179  1.00  0.00     0.035 A 
HETATM   10  C13 UNL     1      23.615   3.207  52.597  1.00  0.00    -0.011 A 
HETATM   11  H11 UNL     1      20.949   2.140  51.113  1.00  0.00     0.169 HD
ENDROOT
BRANCH   1  12
HETATM   12  C5  UNL     1      23.780   5.480  51.676  1.00  0.00     0.027 A 
HETATM   13  N1  UNL     1      24.391   6.738  51.925  1.00  0.00    -0.383 N 
HETATM   14  C4  UNL     1      24.948   6.828  50.592  1.00  0.00     0.114 A 
HETATM   15  H9  UNL     1      24.405   7.350  52.791  1.00  0.00     0.160 HD
HETATM   16  C14 UNL     1      24.276   5.532  50.449  1.00  0.00    -0.038 A 
HETATM   17  C15 UNL     1      24.188   4.591  49.290  1.00  0.00     0.048 C 
BRANCH  14  18
HETATM   18  C3  UNL     1      24.410   7.957  49.753  1.00  0.00     0.056 C 
BRANCH  18  19
HETATM   19  C2  UNL     1      25.413   9.016  49.471  1.00  0.00     0.169 C 
BRANCH  19  20
HETATM   20  O1  UNL     1      26.412   9.026  50.416  1.00  0.00    -0.396 OA
HETATM   21  C1  UNL     1      27.666   9.348  49.982  1.00  0.00     0.201 C 
ENDBRANCH  19  20
ENDBRANCH  18  19
ENDBRANCH  14  18
ENDBRANCH   1  12
BRANCH   8  22
HETATM   22  S1  UNL     1      26.901   1.282  53.897  1.00  0.00     0.239 S 
HETATM   23  O3  UNL     1      26.627   0.674  55.252  1.00  0.00    -0.206 OA
HETATM   24  O4  UNL     1      27.580   0.267  53.049  1.00  0.00    -0.206 OA
BRANCH  22  25
HETATM   25  N3  UNL     1      27.786   2.733  54.063  1.00  0.00    -0.225 NA
HETATM   26  H14 UNL     1      28.822   2.499  54.133  1.00  0.00     0.136 HD
HETATM   27  H15 UNL     1      27.645   3.358  53.214  1.00  0.00     0.136 HD
ENDBRANCH  22  25
ENDBRANCH   8  22
TORSDOF 6
ENDMDL
MODEL 3
REMARK VINA RESULT:      -7.4      2.879      6.303
REMARK  6 active torsions:
REMARK  status: ('A' for Active; 'I' for Inactive)
REMARK    1  A    between atoms: O1_2  and  C2_3 
REMARK    2  A    between atoms: C2_3  and  C3_4 
REMARK    3  A    between atoms: C3_4  and  C4_5 
REMARK    4  A    between atoms: C5_7  and  C6_8 
REMARK    5  A    between atoms: C11_15  and  S1_16 
REMARK    6  A    between atoms: S1_16  and  N3_17 
ROOT
HETATM    1  C6  UNL     1      24.988   0.687  53.543  1.00  0.00     0.163 A 
HETATM    2  C7  UNL     1      26.062  -0.232  53.085  1.00  0.00     0.236 A 
HETATM    3  O2  UNL     1      26.558  -1.335  53.427  1.00  0.00    -0.272 OA
HETATM    4  N2  UNL     1      26.682   0.339  51.915  1.00  0.00    -0.326 N 
HETATM    5  C8  UNL     1      26.053   1.596  51.606  1.00  0.00     0.042 A 
HETATM    6  C9  UNL     1      26.192   2.581  50.652  1.00  0.00     0.031 A 
HETATM    7  C10 UNL     1      25.422   3.709  50.609  1.00  0.00     0.027 A 
HETATM    8  C11 UNL     1      24.461   3.871  51.567  1.00  0.00     0.075 A 
HETATM    9  C12 UNL     1      24.251   2.939  52.560  1.00  0.00     0.035 A 
HETATM   10  C13 UNL     1      25.074   1.808  52.543  1.00  0.00    -0.011 A 
HETATM   11  H11 UNL     1      27.465   0.046  51.267  1.00  0.00     0.169 HD
ENDROOT
BRANCH   1  12
HETATM   12  C5  UNL     1      23.652   0.041  53.490  1.00  0.00     0.027 A 
HETATM   13  N1  UNL     1      22.587   0.047  52.550  1.00  0.00    -0.383 N 
HETATM   14  C4  UNL     1      21.763  -0.835  53.349  1.00  0.00     0.114 A 
HETATM   15  H9  UNL     1      22.481   0.536  51.615  1.00  0.00     0.160 HD
HETATM   16  C14 UNL     1      22.922  -0.768  54.244  1.00  0.00    -0.038 A 
HETATM   17  C15 UNL     1      23.181  -1.407  55.571  1.00  0.00     0.048 C 
BRANCH  14  18
HETATM   18  C3  UNL     1      20.486  -0.222  53.860  1.00  0.00     0.056 C 
BRANCH  18  19
HETATM   19  C2  UNL     1      19.315  -0.471  52.980  1.00  0.00     0.169 C 
BRANCH  19  20
HETATM   20  O1  UNL     1      19.526   0.020  51.713  1.00  0.00    -0.396 OA
HETATM   21  C1  UNL     1      18.431   0.125  50.904  1.00  0.00     0.201 C 
ENDBRANCH  19  20
ENDBRANCH  18  19
ENDBRANCH  14  18
ENDBRANCH   1  12
BRANCH   8  22
HETATM   22  S1  UNL     1      23.495   5.348  51.464  1.00  0.00     0.239 S 
HETATM   23  O3  UNL     1      23.219   5.590  49.998  1.00  0.00    -0.206 OA
HETATM   24  O4  UNL     1      22.198   5.151  52.164  1.00  0.00    -0.206 OA
BRANCH  22  25
HETATM   25  N3  UNL     1      24.434   6.619  52.111  1.00  0.00    -0.225 NA
HETATM   26  H14 UNL     1      24.609   6.426  53.143  1.00  0.00     0.136 HD
HETATM   27  H15 UNL     1      25.375   6.677  51.620  1.00  0.00     0.136 HD
ENDBRANCH  22  25
ENDBRANCH   8  22
TORSDOF 6
ENDMDL
MODEL 4
REMARK VINA RESULT:      -7.4      2.596      4.281
REMARK  6 active torsions:
REMARK  status: ('A' for Active; 'I' for Inactive)
REMARK    1  A    between atoms: O1_2  and  C2_3 
REMARK    2  A    between atoms: C2_3  and  C3_4 
REMARK    3  A    between atoms: C3_4  and  C4_5 
REMARK    4  A    between atoms: C5_7  and  C6_8 
REMARK    5  A    between atoms: C11_15  and  S1_16 
REMARK    6  A    between atoms: S1_16  and  N3_17 
ROOT
HETATM    1  C6  UNL     1      22.659  -0.899  53.180  1.00  0.00     0.163 A 
HETATM    2  C7  UNL     1      22.072  -0.981  54.543  1.00  0.00     0.236 A 
HETATM    3  O2  UNL     1      22.310  -1.562  55.631  1.00  0.00    -0.272 OA
HETATM    4  N2  UNL     1      20.901  -0.140  54.586  1.00  0.00    -0.326 N 
HETATM    5  C8  UNL     1      20.706   0.476  53.300  1.00  0.00     0.042 A 
HETATM    6  C9  UNL     1      19.802   1.345  52.728  1.00  0.00     0.031 A 
HETATM    7  C10 UNL     1      19.874   1.769  51.431  1.00  0.00     0.027 A 
HETATM    8  C11 UNL     1      20.900   1.306  50.657  1.00  0.00     0.075 A 
HETATM    9  C12 UNL     1      21.850   0.434  51.143  1.00  0.00     0.035 A 
HETATM   10  C13 UNL     1      21.717   0.042  52.479  1.00  0.00    -0.011 A 
HETATM   11  H11 UNL     1      20.187   0.108  55.326  1.00  0.00     0.169 HD
ENDROOT
BRANCH   1  12
HETATM   12  C5  UNL     1      24.033  -0.338  53.207  1.00  0.00     0.027 A 
HETATM   13  N1  UNL     1      25.334  -0.908  53.251  1.00  0.00    -0.383 N 
HETATM   14  C4  UNL     1      25.992   0.381  53.245  1.00  0.00     0.114 A 
HETATM   15  H9  UNL     1      25.655  -1.919  53.278  1.00  0.00     0.160 HD
HETATM   16  C14 UNL     1      24.606   0.857  53.200  1.00  0.00    -0.038 A 
HETATM   17  C15 UNL     1      24.039   2.240  53.160  1.00  0.00     0.048 C 
BRANCH  14  18
HETATM   18  C3  UNL     1      26.770   0.703  54.494  1.00  0.00     0.056 C 
BRANCH  18  19
HETATM   19  C2  UNL     1      28.205   0.327  54.413  1.00  0.00     0.169 C 
BRANCH  19  20
HETATM   20  O1  UNL     1      28.358  -1.005  54.109  1.00  0.00    -0.396 OA
HETATM   21  C1  UNL     1      29.488  -1.355  53.427  1.00  0.00     0.201 C 
ENDBRANCH  19  20
ENDBRANCH  18  19
ENDBRANCH  14  18
ENDBRANCH   1  12
BRANCH   8  22
HETATM   22  S1  UNL     1      20.944   1.887  48.988  1.00  0.00     0.239 S 
HETATM   23  O3  UNL     1      21.670   3.212  49.004  1.00  0.00    -0.206 OA
HETATM   24  O4  UNL     1      21.712   0.935  48.143  1.00  0.00    -0.206 OA
BRANCH  22  25
HETATM   25  N3  UNL     1      19.328   2.100  48.478  1.00  0.00    -0.225 NA
HETATM   26  H14 UNL     1      18.757   1.255  48.781  1.00  0.00     0.136 HD
HETATM   27  H15 UNL     1      18.903   2.965  48.928  1.00  0.00     0.136 HD
ENDBRANCH  22  25
ENDBRANCH   8  22
TORSDOF 6
ENDMDL
MODEL 5
REMARK VINA RESULT:      -7.1      2.802      6.479
REMARK  6 active torsions:
REMARK  status: ('A' for Active; 'I' for Inactive)
REMARK    1  A    between atoms: O1_2  and  C2_3 
REMARK    2  A    between atoms: C2_3  and  C3_4 
REMARK    3  A    between atoms: C3_4  and  C4_5 
REMARK    4  A    between atoms: C5_7  and  C6_8 
REMARK    5  A    between atoms: C11_15  and  S1_16 
REMARK    6  A    between atoms: S1_16  and  N3_17 
ROOT
HETATM    1  C6  UNL     1      23.649   2.183  52.941  1.00  0.00     0.163 A 
HETATM    2  C7  UNL     1      22.562   1.175  52.844  1.00  0.00     0.236 A 
HETATM    3  O2  UNL     1      21.318   1.154  52.663  1.00  0.00    -0.272 OA
HETATM    4  N2  UNL     1      23.139  -0.136  53.008  1.00  0.00    -0.326 N 
HETATM    5  C8  UNL     1      24.559  -0.012  53.213  1.00  0.00     0.042 A 
HETATM    6  C9  UNL     1      25.622  -0.862  53.426  1.00  0.00     0.031 A 
HETATM    7  C10 UNL     1      26.910  -0.439  53.595  1.00  0.00     0.027 A 
HETATM    8  C11 UNL     1      27.158   0.904  53.552  1.00  0.00     0.075 A 
HETATM    9  C12 UNL     1      26.157   1.829  53.346  1.00  0.00     0.035 A 
HETATM   10  C13 UNL     1      24.863   1.326  53.179  1.00  0.00    -0.011 A 
HETATM   11  H11 UNL     1      22.761  -1.124  53.010  1.00  0.00     0.169 HD
ENDROOT
BRANCH   1  12
HETATM   12  C5  UNL     1      23.795   2.956  51.682  1.00  0.00     0.027 A 
HETATM   13  N1  UNL     1      24.388   2.688  50.419  1.00  0.00    -0.383 N 
HETATM   14  C4  UNL     1      24.035   3.984  49.881  1.00  0.00     0.114 A 
HETATM   15  H9  UNL     1      24.895   1.831  50.051  1.00  0.00     0.160 HD
HETATM   16  C14 UNL     1      23.457   4.151  51.219  1.00  0.00    -0.038 A 
HETATM   17  C15 UNL     1      22.729   5.298  51.842  1.00  0.00     0.048 C 
BRANCH  14  18
HETATM   18  C3  UNL     1      25.204   4.872  49.543  1.00  0.00     0.056 C 
BRANCH  18  19
HETATM   19  C2  UNL     1      24.855   5.988  48.626  1.00  0.00     0.169 C 
BRANCH  19  20
HETATM   20  O1  UNL     1      24.785   7.185  49.297  1.00  0.00    -0.396 OA
HETATM   21  C1  UNL     1      25.635   7.349  50.354  1.00  0.00     0.201 C 
ENDBRANCH  19  20
ENDBRANCH  18  19
ENDBRANCH  14  18
ENDBRANCH   1  12
BRANCH   8  22
HETATM   22  S1  UNL     1      28.842   1.396  53.777  1.00  0.00     0.239 S 
HETATM   23  O3  UNL     1      29.064   1.528  55.266  1.00  0.00    -0.206 OA
HETATM   24  O4  UNL     1      29.749   0.341  53.253  1.00  0.00    -0.206 OA
BRANCH  22  25
HETATM   25  N3  UNL     1      29.039   2.908  53.009  1.00  0.00    -0.225 NA
HETATM   26  H14 UNL     1      28.791   2.807  51.979  1.00  0.00     0.136 HD
HETATM   27  H15 UNL     1      28.388   3.634  53.436  1.00  0.00     0.136 HD
ENDBRANCH  22  25
ENDBRANCH   8  22
TORSDOF 6
ENDMDL
MODEL 6
REMARK VINA RESULT:      -7.1      4.409      7.124
REMARK  6 active torsions:
REMARK  status: ('A' for Active; 'I' for Inactive)
REMARK    1  A    between atoms: O1_2  and  C2_3 
REMARK    2  A    between atoms: C2_3  and  C3_4 
REMARK    3  A    between atoms: C3_4  and  C4_5 
REMARK    4  A    between atoms: C5_7  and  C6_8 
REMARK    5  A    between atoms: C11_15  and  S1_16 
REMARK    6  A    between atoms: S1_16  and  N3_17 
ROOT
HETATM    1  C6  UNL     1      25.284   3.762  49.282  1.00  0.00     0.163 A 
HETATM    2  C7  UNL     1      23.989   4.481  49.404  1.00  0.00     0.236 A 
HETATM    3  O2  UNL     1      22.787   4.208  49.648  1.00  0.00    -0.272 OA
HETATM    4  N2  UNL     1      24.222   5.884  49.169  1.00  0.00    -0.326 N 
HETATM    5  C8  UNL     1      25.619   6.098  48.894  1.00  0.00     0.042 A 
HETATM    6  C9  UNL     1      26.433   7.169  48.599  1.00  0.00     0.031 A 
HETATM    7  C10 UNL     1      27.777   7.063  48.376  1.00  0.00     0.027 A 
HETATM    8  C11 UNL     1      28.346   5.823  48.449  1.00  0.00     0.075 A 
HETATM    9  C12 UNL     1      27.610   4.694  48.736  1.00  0.00     0.035 A 
HETATM   10  C13 UNL     1      26.241   4.876  48.954  1.00  0.00    -0.011 A 
HETATM   11  H11 UNL     1      23.615   6.750  49.155  1.00  0.00     0.169 HD
ENDROOT
BRANCH   1  12
HETATM   12  C5  UNL     1      25.667   3.102  50.556  1.00  0.00     0.027 A 
HETATM   13  N1  UNL     1      26.828   3.130  51.374  1.00  0.00    -0.383 N 
HETATM   14  C4  UNL     1      26.272   2.210  52.343  1.00  0.00     0.114 A 
HETATM   15  H9  UNL     1      27.745   3.653  51.270  1.00  0.00     0.160 HD
HETATM   16  C14 UNL     1      25.130   2.258  51.424  1.00  0.00    -0.038 A 
HETATM   17  C15 UNL     1      23.801   1.573  51.466  1.00  0.00     0.048 C 
BRANCH  14  18
HETATM   18  C3  UNL     1      26.989   0.890  52.450  1.00  0.00     0.056 C 
BRANCH  18  19
HETATM   19  C2  UNL     1      27.302   0.497  53.848  1.00  0.00     0.169 C 
BRANCH  19  20
HETATM   20  O1  UNL     1      26.706  -0.697  54.179  1.00  0.00    -0.396 OA
HETATM   21  C1  UNL     1      25.350  -0.683  54.340  1.00  0.00     0.201 C 
ENDBRANCH  19  20
ENDBRANCH  18  19
ENDBRANCH  14  18
ENDBRANCH   1  12
BRANCH   8  22
HETATM   22  S1  UNL     1      30.087   5.744  48.152  1.00  0.00     0.239 S 
HETATM   23  O3  UNL     1      30.371   4.377  47.574  1.00  0.00    -0.206 OA
HETATM   24  O4  UNL     1      30.475   6.772  47.151  1.00  0.00    -0.206 OA
BRANCH  22  25
HETATM   25  N3  UNL     1      30.871   5.929  49.658  1.00  0.00    -0.225 NA
HETATM   26  H14 UNL     1      30.135   6.021  50.421  1.00  0.00     0.136 HD
HETATM   27  H15 UNL     1      31.470   5.077  49.877  1.00  0.00     0.136 HD
ENDBRANCH  22  25
ENDBRANCH   8  22
TORSDOF 6
ENDMDL
MODEL 7
REMARK VINA RESULT:      -7.0      2.673      4.708
REMARK  6 active torsions:
REMARK  status: ('A' for Active; 'I' for Inactive)
REMARK    1  A    between atoms: O1_2  and  C2_3 
REMARK    2  A    between atoms: C2_3  and  C3_4 
REMARK    3  A    between atoms: C3_4  and  C4_5 
REMARK    4  A    between atoms: C5_7  and  C6_8 
REMARK    5  A    between atoms: C11_15  and  S1_16 
REMARK    6  A    between atoms: S1_16  and  N3_17 
ROOT
HETATM    1  C6  UNL     1      23.877   1.293  51.820  1.00  0.00     0.163 A 
HETATM    2  C7  UNL     1      22.741   0.583  52.463  1.00  0.00     0.236 A 
HETATM    3  O2  UNL     1      22.467  -0.579  52.857  1.00  0.00    -0.272 OA
HETATM    4  N2  UNL     1      21.675   1.529  52.679  1.00  0.00    -0.326 N 
HETATM    5  C8  UNL     1      22.078   2.823  52.193  1.00  0.00     0.042 A 
HETATM    6  C9  UNL     1      21.527   4.083  52.113  1.00  0.00     0.031 A 
HETATM    7  C10 UNL     1      22.172   5.162  51.578  1.00  0.00     0.027 A 
HETATM    8  C11 UNL     1      23.436   4.981  51.092  1.00  0.00     0.075 A 
HETATM    9  C12 UNL     1      24.067   3.756  51.129  1.00  0.00     0.035 A 
HETATM   10  C13 UNL     1      23.349   2.696  51.692  1.00  0.00    -0.011 A 
HETATM   11  H11 UNL     1      20.705   1.479  53.098  1.00  0.00     0.169 HD
ENDROOT
BRANCH   1  12
HETATM   12  C5  UNL     1      25.093   1.268  52.671  1.00  0.00     0.027 A 
HETATM   13  N1  UNL     1      25.608   2.118  53.686  1.00  0.00    -0.383 N 
HETATM   14  C4  UNL     1      26.779   1.296  53.901  1.00  0.00     0.114 A 
HETATM   15  H9  UNL     1      25.233   3.019  54.101  1.00  0.00     0.160 HD
HETATM   16  C14 UNL     1      26.155   0.494  52.844  1.00  0.00    -0.038 A 
HETATM   17  C15 UNL     1      26.586  -0.778  52.186  1.00  0.00     0.048 C 
BRANCH  14  18
HETATM   18  C3  UNL     1      28.090   1.953  53.555  1.00  0.00     0.056 C 
BRANCH  18  19
HETATM   19  C2  UNL     1      29.259   1.338  54.234  1.00  0.00     0.169 C 
BRANCH  19  20
HETATM   20  O1  UNL     1      29.876   0.410  53.428  1.00  0.00    -0.396 OA
HETATM   21  C1  UNL     1      29.832  -0.891  53.842  1.00  0.00     0.201 C 
ENDBRANCH  19  20
ENDBRANCH  18  19
ENDBRANCH  14  18
ENDBRANCH   1  12
BRANCH   8  22
HETATM   22  S1  UNL     1      24.224   6.409  50.410  1.00  0.00     0.239 S 
HETATM   23  O3  UNL     1      25.655   6.022  50.118  1.00  0.00    -0.206 OA
HETATM   24  O4  UNL     1      23.564   6.787  49.133  1.00  0.00    -0.206 OA
BRANCH  22  25
HETATM   25  N3  UNL     1      24.170   7.637  51.596  1.00  0.00    -0.225 NA
HETATM   26  H14 UNL     1      25.135   8.076  51.683  1.00  0.00     0.136 HD
HETATM   27  H15 UNL     1      23.484   8.399  51.315  1.00  0.00     0.136 HD
ENDBRANCH  22  25
ENDBRANCH   8  22
TORSDOF 6
ENDMDL
MODEL 8
REMARK VINA RESULT:      -6.6      8.036     10.427
REMARK  6 active torsions:
REMARK  status: ('A' for Active; 'I' for Inactive)
REMARK    1  A    between atoms: O1_2  and  C2_3 
REMARK    2  A    between atoms: C2_3  and  C3_4 
REMARK    3  A    between atoms: C3_4  and  C4_5 
REMARK    4  A    between atoms: C5_7  and  C6_8 
REMARK    5  A    between atoms: C11_15  and  S1_16 
REMARK    6  A    between atoms: S1_16  and  N3_17 
ROOT
HETATM    1  C6  UNL     1      28.869   6.465  47.976  1.00  0.00     0.163 A 
HETATM    2  C7  UNL     1      27.887   5.531  48.587  1.00  0.00     0.236 A 
HETATM    3  O2  UNL     1      27.663   4.295  48.614  1.00  0.00    -0.272 OA
HETATM    4  N2  UNL     1      26.945   6.302  49.359  1.00  0.00    -0.326 N 
HETATM    5  C8  UNL     1      27.278   7.700  49.264  1.00  0.00     0.042 A 
HETATM    6  C9  UNL     1      26.778   8.888  49.752  1.00  0.00     0.031 A 
HETATM    7  C10 UNL     1      27.325  10.109  49.481  1.00  0.00     0.027 A 
HETATM    8  C11 UNL     1      28.430  10.157  48.678  1.00  0.00     0.075 A 
HETATM    9  C12 UNL     1      28.998   9.021  48.144  1.00  0.00     0.035 A 
HETATM   10  C13 UNL     1      28.388   7.804  48.464  1.00  0.00    -0.011 A 
HETATM   11  H11 UNL     1      26.100   6.072  49.952  1.00  0.00     0.169 HD
ENDROOT
BRANCH   1  12
HETATM   12  C5  UNL     1      30.250   6.200  48.454  1.00  0.00     0.027 A 
HETATM   13  N1  UNL     1      31.076   6.772  49.458  1.00  0.00    -0.383 N 
HETATM   14  C4  UNL     1      32.181   5.882  49.177  1.00  0.00     0.114 A 
HETATM   15  H9  UNL     1      30.900   7.564  50.142  1.00  0.00     0.160 HD
HETATM   16  C14 UNL     1      31.244   5.371  48.173  1.00  0.00    -0.038 A 
HETATM   17  C15 UNL     1      31.379   4.272  47.167  1.00  0.00     0.048 C 
BRANCH  14  18
HETATM   18  C3  UNL     1      33.422   6.556  48.652  1.00  0.00     0.056 C 
BRANCH  18  19
HETATM   19  C2  UNL     1      34.649   5.730  48.791  1.00  0.00     0.169 C 
BRANCH  19  20
HETATM   20  O1  UNL     1      34.835   4.919  47.697  1.00  0.00    -0.396 OA
HETATM   21  C1  UNL     1      34.862   3.573  47.927  1.00  0.00     0.201 C 
ENDBRANCH  19  20
ENDBRANCH  18  19
ENDBRANCH  14  18
ENDBRANCH   1  12
BRANCH   8  22
HETATM   22  S1  UNL     1      29.097  11.764  48.360  1.00  0.00     0.239 S 
HETATM   23  O3  UNL     1      30.601  11.629  48.396  1.00  0.00    -0.206 OA
HETATM   24  O4  UNL     1      28.693  12.216  47.002  1.00  0.00    -0.206 OA
BRANCH  22  25
HETATM   25  N3  UNL     1      28.561  12.796  49.610  1.00  0.00    -0.225 NA
HETATM   26  H14 UNL     1      28.968  13.766  49.455  1.00  0.00     0.136 HD
HETATM   27  H15 UNL     1      27.500  12.877  49.601  1.00  0.00     0.136 HD
ENDBRANCH  22  25
ENDBRANCH   8  22
TORSDOF 6
ENDMDL
MODEL 9
REMARK VINA RESULT:      -6.4      2.707      5.738
REMARK  6 active torsions:
REMARK  status: ('A' for Active; 'I' for Inactive)
REMARK    1  A    between atoms: O1_2  and  C2_3 
REMARK    2  A    between atoms: C2_3  and  C3_4 
REMARK    3  A    between atoms: C3_4  and  C4_5 
REMARK    4  A    between atoms: C5_7  and  C6_8 
REMARK    5  A    between atoms: C11_15  and  S1_16 
REMARK    6  A    between atoms: S1_16  and  N3_17 
ROOT
HETATM    1  C6  UNL     1      24.784   2.415  50.932  1.00  0.00     0.163 A 
HETATM    2  C7  UNL     1      26.182   2.916  50.906  1.00  0.00     0.236 A 
HETATM    3  O2  UNL     1      26.890   3.677  50.199  1.00  0.00    -0.272 OA
HETATM    4  N2  UNL     1      26.892   2.346  52.024  1.00  0.00    -0.326 N 
HETATM    5  C8  UNL     1      26.004   1.490  52.768  1.00  0.00     0.042 A 
HETATM    6  C9  UNL     1      26.082   0.692  53.888  1.00  0.00     0.031 A 
HETATM    7  C10 UNL     1      25.034  -0.035  54.376  1.00  0.00     0.027 A 
HETATM    8  C11 UNL     1      23.840   0.031  53.715  1.00  0.00     0.075 A 
HETATM    9  C12 UNL     1      23.669   0.801  52.585  1.00  0.00     0.035 A 
HETATM   10  C13 UNL     1      24.784   1.521  52.142  1.00  0.00    -0.011 A 
HETATM   11  H11 UNL     1      27.878   2.419  52.398  1.00  0.00     0.169 HD
ENDROOT
BRANCH   1  12
HETATM   12  C5  UNL     1      23.806   3.520  51.099  1.00  0.00     0.027 A 
HETATM   13  N1  UNL     1      22.829   4.113  50.255  1.00  0.00    -0.383 N 
HETATM   14  C4  UNL     1      22.409   5.061  51.263  1.00  0.00     0.114 A 
HETATM   15  H9  UNL     1      22.547   3.901  49.254  1.00  0.00     0.160 HD
HETATM   16  C14 UNL     1      23.444   4.376  52.043  1.00  0.00    -0.038 A 
HETATM   17  C15 UNL     1      23.923   4.584  53.444  1.00  0.00     0.048 C 
BRANCH  14  18
HETATM   18  C3  UNL     1      22.672   6.506  50.926  1.00  0.00     0.056 C 
BRANCH  18  19
HETATM   19  C2  UNL     1      21.479   7.219  50.403  1.00  0.00     0.169 C 
BRANCH  19  20
HETATM   20  O1  UNL     1      20.842   6.486  49.430  1.00  0.00    -0.396 OA
HETATM   21  C1  UNL     1      19.476   6.506  49.439  1.00  0.00     0.201 C 
ENDBRANCH  19  20
ENDBRANCH  18  19
ENDBRANCH  14  18
ENDBRANCH   1  12
BRANCH   8  22
HETATM   22  S1  UNL     1      22.518  -0.930  54.390  1.00  0.00     0.239 S 
HETATM   23  O3  UNL     1      21.421   0.038  54.767  1.00  0.00    -0.206 OA
HETATM   24  O4  UNL     1      21.994  -1.861  53.356  1.00  0.00    -0.206 OA
BRANCH  22  25
HETATM   25  N3  UNL     1      23.119  -1.721  55.779  1.00  0.00    -0.225 NA
HETATM   26  H14 UNL     1      24.093  -2.095  55.568  1.00  0.00     0.136 HD
HETATM   27  H15 UNL     1      23.194  -1.042  56.594  1.00  0.00     0.136 HD
ENDBRANCH  22  25
ENDBRANCH   8  22
TORSDOF 6
ENDMDL
