MODEL 1
REMARK VINA RESULT:      -7.3      0.000      0.000
REMARK  7 active torsions:
REMARK  status: ('A' for Active; 'I' for Inactive)
REMARK    1  A    between atoms: C2_2  and  C18_22 
REMARK    2  A    between atoms: C3_3  and  C4_4 
REMARK    3  A    between atoms: C4_4  and  N1_5 
REMARK       I    between atoms: N1_5  and  C5_6 
REMARK    4  A    between atoms: C5_6  and  C6_8 
REMARK    5  A    between atoms: C11_13  and  N2_14 
REMARK    6  A    between atoms: N2_14  and  C12_15 
REMARK    7  A    between atoms: C12_15  and  C13_16 
ROOT
HETATM    1  C6  UNL     1      25.327   2.533  51.201  1.00  0.00     0.058 A 
HETATM    2  C7  UNL     1      26.440   3.104  50.636  1.00  0.00     0.019 A 
HETATM    3  C8  UNL     1      26.250   4.017  49.623  1.00  0.00     0.001 A 
HETATM    4  C9  UNL     1      25.014   4.384  49.150  1.00  0.00     0.002 A 
HETATM    5  C10 UNL     1      23.911   3.803  49.726  1.00  0.00     0.030 A 
HETATM    6  C11 UNL     1      24.068   2.869  50.761  1.00  0.00     0.044 A 
ENDROOT
BRANCH   1   7
HETATM    7  C5  UNL     1      25.601   1.577  52.262  1.00  0.00     0.254 C 
HETATM    8  N1  UNL     1      26.102   0.268  52.037  1.00  0.00    -0.353 N 
HETATM    9  H7  UNL     1      26.305  -0.072  51.042  1.00  0.00     0.163 HD
HETATM   10  O1  UNL     1      25.507   1.551  53.519  1.00  0.00    -0.268 OA
BRANCH   8  11
HETATM   11  C4  UNL     1      26.362  -0.688  53.133  1.00  0.00     0.150 C 
BRANCH  11  12
HETATM   12  C3  UNL     1      27.648  -1.404  52.974  1.00  0.00    -0.003 C 
HETATM   13  C2  UNL     1      28.716  -0.730  53.616  1.00  0.00    -0.058 C 
HETATM   14  C1  UNL     1      30.242  -1.059  53.745  1.00  0.00     0.045 C 
BRANCH  13  15
HETATM   15  C18 UNL     1      28.751   0.566  54.376  1.00  0.00     0.256 C 
HETATM   16  F1  UNL     1      28.842   1.586  53.432  1.00  0.00    -0.251 F 
ENDBRANCH  13  15
ENDBRANCH  11  12
ENDBRANCH   8  11
ENDBRANCH   1   7
BRANCH   6  17
HETATM   17  N2  UNL     1      22.919   2.282  51.333  1.00  0.00    -0.385 N 
HETATM   18  H12 UNL     1      22.413   2.876  52.034  1.00  0.00     0.160 HD
BRANCH  17  19
HETATM   19  C12 UNL     1      22.169   1.071  51.268  1.00  0.00     0.158 C 
BRANCH  19  20
HETATM   20  C13 UNL     1      21.976   0.333  52.541  1.00  0.00    -0.038 A 
HETATM   21  C14 UNL     1      22.700  -0.739  52.997  1.00  0.00     0.028 A 
HETATM   22  C15 UNL     1      22.391  -1.319  54.234  1.00  0.00     0.116 A 
HETATM   23  N3  UNL     1      21.363  -0.810  54.988  1.00  0.00    -0.273 NA
HETATM   24  C16 UNL     1      20.677   0.241  54.509  1.00  0.00     0.116 A 
HETATM   25  C17 UNL     1      20.926   0.870  53.287  1.00  0.00     0.028 A 
ENDBRANCH  19  20
ENDBRANCH  17  19
ENDBRANCH   6  17
TORSDOF 7
ENDMDL
MODEL 2
REMARK VINA RESULT:      -7.3      2.373      5.286
REMARK  7 active torsions:
REMARK  status: ('A' for Active; 'I' for Inactive)
REMARK    1  A    between atoms: C2_2  and  C18_22 
REMARK    2  A    between atoms: C3_3  and  C4_4 
REMARK    3  A    between atoms: C4_4  and  N1_5 
REMARK       I    between atoms: N1_5  and  C5_6 
REMARK    4  A    between atoms: C5_6  and  C6_8 
REMARK    5  A    between atoms: C11_13  and  N2_14 
REMARK    6  A    between atoms: N2_14  and  C12_15 
REMARK    7  A    between atoms: C12_15  and  C13_16 
ROOT
HETATM    1  C6  UNL     1      27.054   1.564  52.881  1.00  0.00     0.058 A 
HETATM    2  C7  UNL     1      28.326   2.025  53.112  1.00  0.00     0.019 A 
HETATM    3  C8  UNL     1      29.042   1.451  54.139  1.00  0.00     0.001 A 
HETATM    4  C9  UNL     1      28.554   0.448  54.939  1.00  0.00     0.002 A 
HETATM    5  C10 UNL     1      27.280  -0.003  54.696  1.00  0.00     0.030 A 
HETATM    6  C11 UNL     1      26.522   0.560  53.658  1.00  0.00     0.044 A 
ENDROOT
BRANCH   1   7
HETATM    7  C5  UNL     1      26.354   2.215  51.786  1.00  0.00     0.254 C 
HETATM    8  N1  UNL     1      26.894   3.287  51.029  1.00  0.00    -0.353 N 
HETATM    9  H7  UNL     1      27.873   3.666  51.246  1.00  0.00     0.163 HD
HETATM   10  O1  UNL     1      25.234   2.103  51.218  1.00  0.00    -0.268 OA
BRANCH   8  11
HETATM   11  C4  UNL     1      26.158   3.938  49.926  1.00  0.00     0.150 C 
BRANCH  11  12
HETATM   12  C3  UNL     1      27.057   4.552  48.922  1.00  0.00    -0.003 C 
HETATM   13  C2  UNL     1      26.889   5.957  48.845  1.00  0.00    -0.058 C 
HETATM   14  C1  UNL     1      27.582   7.053  47.966  1.00  0.00     0.045 C 
BRANCH  13  15
HETATM   15  C18 UNL     1      25.953   6.881  49.571  1.00  0.00     0.256 C 
HETATM   16  F1  UNL     1      26.736   7.877  50.149  1.00  0.00    -0.251 F 
ENDBRANCH  13  15
ENDBRANCH  11  12
ENDBRANCH   8  11
ENDBRANCH   1   7
BRANCH   6  17
HETATM   17  N2  UNL     1      25.213   0.083  53.430  1.00  0.00    -0.385 N 
HETATM   18  H12 UNL     1      24.801   0.329  52.497  1.00  0.00     0.160 HD
BRANCH  17  19
HETATM   19  C12 UNL     1      24.200  -0.672  54.091  1.00  0.00     0.158 C 
BRANCH  19  20
HETATM   20  C13 UNL     1      22.792  -0.301  53.804  1.00  0.00    -0.038 A 
HETATM   21  C14 UNL     1      21.664  -1.007  54.133  1.00  0.00     0.028 A 
HETATM   22  C15 UNL     1      20.400  -0.510  53.792  1.00  0.00     0.116 A 
HETATM   23  N3  UNL     1      20.295   0.689  53.130  1.00  0.00    -0.273 NA
HETATM   24  C16 UNL     1      21.422   1.352  52.825  1.00  0.00     0.116 A 
HETATM   25  C17 UNL     1      22.714   0.920  53.131  1.00  0.00     0.028 A 
ENDBRANCH  19  20
ENDBRANCH  17  19
ENDBRANCH   6  17
TORSDOF 7
ENDMDL
MODEL 3
REMARK VINA RESULT:      -7.3      2.052      6.164
REMARK  7 active torsions:
REMARK  status: ('A' for Active; 'I' for Inactive)
REMARK    1  A    between atoms: C2_2  and  C18_22 
REMARK    2  A    between atoms: C3_3  and  C4_4 
REMARK    3  A    between atoms: C4_4  and  N1_5 
REMARK       I    between atoms: N1_5  and  C5_6 
REMARK    4  A    between atoms: C5_6  and  C6_8 
REMARK    5  A    between atoms: C11_13  and  N2_14 
REMARK    6  A    between atoms: N2_14  and  C12_15 
REMARK    7  A    between atoms: C12_15  and  C13_16 
ROOT
HETATM    1  C6  UNL     1      22.339   0.853  53.038  1.00  0.00     0.058 A 
HETATM    2  C7  UNL     1      20.968   0.835  53.101  1.00  0.00     0.019 A 
HETATM    3  C8  UNL     1      20.367  -0.245  53.708  1.00  0.00     0.001 A 
HETATM    4  C9  UNL     1      21.062  -1.298  54.251  1.00  0.00     0.002 A 
HETATM    5  C10 UNL     1      22.433  -1.264  54.180  1.00  0.00     0.030 A 
HETATM    6  C11 UNL     1      23.079  -0.179  53.568  1.00  0.00     0.044 A 
ENDROOT
BRANCH   1   7
HETATM    7  C5  UNL     1      22.907   2.020  52.381  1.00  0.00     0.254 C 
HETATM    8  N1  UNL     1      23.329   2.037  51.026  1.00  0.00    -0.353 N 
HETATM    9  H7  UNL     1      23.237   1.160  50.417  1.00  0.00     0.163 HD
HETATM   10  O1  UNL     1      23.190   3.206  52.702  1.00  0.00    -0.268 OA
BRANCH   8  11
HETATM   11  C4  UNL     1      23.912   3.234  50.386  1.00  0.00     0.150 C 
BRANCH  11  12
HETATM   12  C3  UNL     1      25.301   3.014  49.922  1.00  0.00    -0.003 C 
HETATM   13  C2  UNL     1      25.906   4.211  49.465  1.00  0.00    -0.058 C 
HETATM   14  C1  UNL     1      27.329   4.517  48.887  1.00  0.00     0.045 C 
BRANCH  13  15
HETATM   15  C18 UNL     1      25.367   5.609  49.351  1.00  0.00     0.256 C 
HETATM   16  F1  UNL     1      25.535   6.210  50.597  1.00  0.00    -0.251 F 
ENDBRANCH  13  15
ENDBRANCH  11  12
ENDBRANCH   8  11
ENDBRANCH   1   7
BRANCH   6  17
HETATM   17  N2  UNL     1      24.488  -0.170  53.503  1.00  0.00    -0.385 N 
HETATM   18  H12 UNL     1      24.893   0.039  52.558  1.00  0.00     0.160 HD
BRANCH  17  19
HETATM   19  C12 UNL     1      25.618  -0.362  54.352  1.00  0.00     0.158 C 
BRANCH  19  20
HETATM   20  C13 UNL     1      26.817   0.465  54.070  1.00  0.00    -0.038 A 
HETATM   21  C14 UNL     1      28.059   0.347  54.639  1.00  0.00     0.028 A 
HETATM   22  C15 UNL     1      29.093   1.210  54.252  1.00  0.00     0.116 A 
HETATM   23  N3  UNL     1      28.859   2.171  53.300  1.00  0.00    -0.273 NA
HETATM   24  C16 UNL     1      27.629   2.256  52.765  1.00  0.00     0.116 A 
HETATM   25  C17 UNL     1      26.552   1.434  53.100  1.00  0.00     0.028 A 
ENDBRANCH  19  20
ENDBRANCH  17  19
ENDBRANCH   6  17
TORSDOF 7
ENDMDL
MODEL 4
REMARK VINA RESULT:      -7.2      2.266      5.187
REMARK  7 active torsions:
REMARK  status: ('A' for Active; 'I' for Inactive)
REMARK    1  A    between atoms: C2_2  and  C18_22 
REMARK    2  A    between atoms: C3_3  and  C4_4 
REMARK    3  A    between atoms: C4_4  and  N1_5 
REMARK       I    between atoms: N1_5  and  C5_6 
REMARK    4  A    between atoms: C5_6  and  C6_8 
REMARK    5  A    between atoms: C11_13  and  N2_14 
REMARK    6  A    between atoms: N2_14  and  C12_15 
REMARK    7  A    between atoms: C12_15  and  C13_16 
ROOT
HETATM    1  C6  UNL     1      26.761   1.831  53.317  1.00  0.00     0.058 A 
HETATM    2  C7  UNL     1      27.986   2.449  53.371  1.00  0.00     0.019 A 
HETATM    3  C8  UNL     1      29.024   1.769  53.968  1.00  0.00     0.001 A 
HETATM    4  C9  UNL     1      28.899   0.514  54.510  1.00  0.00     0.002 A 
HETATM    5  C10 UNL     1      27.668  -0.091  54.448  1.00  0.00     0.030 A 
HETATM    6  C11 UNL     1      26.588   0.573  53.846  1.00  0.00     0.044 A 
ENDROOT
BRANCH   1   7
HETATM    7  C5  UNL     1      25.711   2.606  52.676  1.00  0.00     0.254 C 
HETATM    8  N1  UNL     1      25.843   3.214  51.400  1.00  0.00    -0.353 N 
HETATM    9  H7  UNL     1      26.753   3.117  50.844  1.00  0.00     0.163 HD
HETATM   10  O1  UNL     1      24.535   2.964  52.956  1.00  0.00    -0.268 OA
BRANCH   8  11
HETATM   11  C4  UNL     1      24.762   4.005  50.776  1.00  0.00     0.150 C 
BRANCH  11  12
HETATM   12  C3  UNL     1      24.542   3.648  49.355  1.00  0.00    -0.003 C 
HETATM   13  C2  UNL     1      23.363   2.883  49.175  1.00  0.00    -0.058 C 
HETATM   14  C1  UNL     1      22.692   2.269  47.900  1.00  0.00     0.045 C 
BRANCH  13  15
HETATM   15  C18 UNL     1      22.358   2.369  50.166  1.00  0.00     0.256 C 
HETATM   16  F1  UNL     1      22.033   1.072  49.777  1.00  0.00    -0.251 F 
ENDBRANCH  13  15
ENDBRANCH  11  12
ENDBRANCH   8  11
ENDBRANCH   1   7
BRANCH   6  17
HETATM   17  N2  UNL     1      25.331  -0.067  53.800  1.00  0.00    -0.385 N 
HETATM   18  H12 UNL     1      24.826   0.002  52.883  1.00  0.00     0.160 HD
BRANCH  17  19
HETATM   19  C12 UNL     1      24.465  -0.826  54.641  1.00  0.00     0.158 C 
BRANCH  19  20
HETATM   20  C13 UNL     1      23.025  -0.839  54.282  1.00  0.00    -0.038 A 
HETATM   21  C14 UNL     1      22.051  -1.661  54.788  1.00  0.00     0.028 A 
HETATM   22  C15 UNL     1      20.728  -1.538  54.344  1.00  0.00     0.116 A 
HETATM   23  N3  UNL     1      20.410  -0.590  53.403  1.00  0.00    -0.273 NA
HETATM   24  C16 UNL     1      21.391   0.197  52.931  1.00  0.00     0.116 A 
HETATM   25  C17 UNL     1      22.729   0.132  53.324  1.00  0.00     0.028 A 
ENDBRANCH  19  20
ENDBRANCH  17  19
ENDBRANCH   6  17
TORSDOF 7
ENDMDL
MODEL 5
REMARK VINA RESULT:      -7.0      2.448      5.866
REMARK  7 active torsions:
REMARK  status: ('A' for Active; 'I' for Inactive)
REMARK    1  A    between atoms: C2_2  and  C18_22 
REMARK    2  A    between atoms: C3_3  and  C4_4 
REMARK    3  A    between atoms: C4_4  and  N1_5 
REMARK       I    between atoms: N1_5  and  C5_6 
REMARK    4  A    between atoms: C5_6  and  C6_8 
REMARK    5  A    between atoms: C11_13  and  N2_14 
REMARK    6  A    between atoms: N2_14  and  C12_15 
REMARK    7  A    between atoms: C12_15  and  C13_16 
ROOT
HETATM    1  C6  UNL     1      23.926   2.097  51.017  1.00  0.00     0.058 A 
HETATM    2  C7  UNL     1      22.726   1.439  50.899  1.00  0.00     0.019 A 
HETATM    3  C8  UNL     1      21.920   1.758  49.829  1.00  0.00     0.001 A 
HETATM    4  C9  UNL     1      22.250   2.693  48.880  1.00  0.00     0.002 A 
HETATM    5  C10 UNL     1      23.453   3.342  49.011  1.00  0.00     0.030 A 
HETATM    6  C11 UNL     1      24.300   3.042  50.089  1.00  0.00     0.044 A 
ENDROOT
BRANCH   1   7
HETATM    7  C5  UNL     1      24.724   1.714  52.170  1.00  0.00     0.254 C 
HETATM    8  N1  UNL     1      25.028   0.371  52.511  1.00  0.00    -0.353 N 
HETATM    9  H7  UNL     1      24.668  -0.438  51.907  1.00  0.00     0.163 HD
HETATM   10  O1  UNL     1      25.318   2.307  53.111  1.00  0.00    -0.268 OA
BRANCH   8  11
HETATM   11  C4  UNL     1      25.835   0.009  53.695  1.00  0.00     0.150 C 
BRANCH  11  12
HETATM   12  C3  UNL     1      26.875  -1.000  53.390  1.00  0.00    -0.003 C 
HETATM   13  C2  UNL     1      28.183  -0.481  53.551  1.00  0.00    -0.058 C 
HETATM   14  C1  UNL     1      29.600  -1.121  53.360  1.00  0.00     0.045 C 
BRANCH  13  15
HETATM   15  C18 UNL     1      28.662   0.890  53.935  1.00  0.00     0.256 C 
HETATM   16  F1  UNL     1      29.026   0.830  55.278  1.00  0.00    -0.251 F 
ENDBRANCH  13  15
ENDBRANCH  11  12
ENDBRANCH   8  11
ENDBRANCH   1   7
BRANCH   6  17
HETATM   17  N2  UNL     1      25.529   3.726  50.205  1.00  0.00    -0.385 N 
HETATM   18  H12 UNL     1      25.618   4.349  51.044  1.00  0.00     0.160 HD
BRANCH  17  19
HETATM   19  C12 UNL     1      26.770   3.857  49.516  1.00  0.00     0.158 C 
BRANCH  19  20
HETATM   20  C13 UNL     1      27.025   5.151  48.836  1.00  0.00    -0.038 A 
HETATM   21  C14 UNL     1      26.123   6.157  48.602  1.00  0.00     0.028 A 
HETATM   22  C15 UNL     1      26.530   7.328  47.948  1.00  0.00     0.116 A 
HETATM   23  N3  UNL     1      27.836   7.464  47.545  1.00  0.00    -0.273 NA
HETATM   24  C16 UNL     1      28.690   6.458  47.793  1.00  0.00     0.116 A 
HETATM   25  C17 UNL     1      28.358   5.264  48.437  1.00  0.00     0.028 A 
ENDBRANCH  19  20
ENDBRANCH  17  19
ENDBRANCH   6  17
TORSDOF 7
ENDMDL
MODEL 6
REMARK VINA RESULT:      -7.0      2.356      6.144
REMARK  7 active torsions:
REMARK  status: ('A' for Active; 'I' for Inactive)
REMARK    1  A    between atoms: C2_2  and  C18_22 
REMARK    2  A    between atoms: C3_3  and  C4_4 
REMARK    3  A    between atoms: C4_4  and  N1_5 
REMARK       I    between atoms: N1_5  and  C5_6 
REMARK    4  A    between atoms: C5_6  and  C6_8 
REMARK    5  A    between atoms: C11_13  and  N2_14 
REMARK    6  A    between atoms: N2_14  and  C12_15 
REMARK    7  A    between atoms: C12_15  and  C13_16 
ROOT
HETATM    1  C6  UNL     1      23.129   1.429  52.109  1.00  0.00     0.058 A 
HETATM    2  C7  UNL     1      21.807   1.518  52.465  1.00  0.00     0.019 A 
HETATM    3  C8  UNL     1      21.359   0.707  53.485  1.00  0.00     0.001 A 
HETATM    4  C9  UNL     1      22.162  -0.180  54.159  1.00  0.00     0.002 A 
HETATM    5  C10 UNL     1      23.483  -0.257  53.791  1.00  0.00     0.030 A 
HETATM    6  C11 UNL     1      23.972   0.555  52.756  1.00  0.00     0.044 A 
ENDROOT
BRANCH   1   7
HETATM    7  C5  UNL     1      23.532   2.310  51.025  1.00  0.00     0.254 C 
HETATM    8  N1  UNL     1      24.816   2.906  50.926  1.00  0.00    -0.353 N 
HETATM    9  H7  UNL     1      25.561   2.719  51.673  1.00  0.00     0.163 HD
HETATM   10  O1  UNL     1      23.001   2.786  49.984  1.00  0.00    -0.268 OA
BRANCH   8  11
HETATM   11  C4  UNL     1      25.197   3.806  49.817  1.00  0.00     0.150 C 
BRANCH  11  12
HETATM   12  C3  UNL     1      26.642   3.740  49.499  1.00  0.00    -0.003 C 
HETATM   13  C2  UNL     1      27.110   4.935  48.900  1.00  0.00    -0.058 C 
HETATM   14  C1  UNL     1      28.524   5.371  48.386  1.00  0.00     0.045 C 
BRANCH  13  15
HETATM   15  C18 UNL     1      26.390   6.199  48.522  1.00  0.00     0.256 C 
HETATM   16  F1  UNL     1      26.324   6.985  49.669  1.00  0.00    -0.251 F 
ENDBRANCH  13  15
ENDBRANCH  11  12
ENDBRANCH   8  11
ENDBRANCH   1   7
BRANCH   6  17
HETATM   17  N2  UNL     1      25.332   0.454  52.392  1.00  0.00    -0.385 N 
HETATM   18  H12 UNL     1      25.515   0.016  51.457  1.00  0.00     0.160 HD
BRANCH  17  19
HETATM   19  C12 UNL     1      26.622   0.773  52.908  1.00  0.00     0.158 C 
BRANCH  19  20
HETATM   20  C13 UNL     1      27.575  -0.353  53.072  1.00  0.00    -0.038 A 
HETATM   21  C14 UNL     1      28.872  -0.284  53.510  1.00  0.00     0.028 A 
HETATM   22  C15 UNL     1      29.640  -1.452  53.616  1.00  0.00     0.116 A 
HETATM   23  N3  UNL     1      29.088  -2.664  53.282  1.00  0.00    -0.273 NA
HETATM   24  C16 UNL     1      27.814  -2.691  52.857  1.00  0.00     0.116 A 
HETATM   25  C17 UNL     1      26.989  -1.572  52.725  1.00  0.00     0.028 A 
ENDBRANCH  19  20
ENDBRANCH  17  19
ENDBRANCH   6  17
TORSDOF 7
ENDMDL
MODEL 7
REMARK VINA RESULT:      -6.9      2.018      6.620
REMARK  7 active torsions:
REMARK  status: ('A' for Active; 'I' for Inactive)
REMARK    1  A    between atoms: C2_2  and  C18_22 
REMARK    2  A    between atoms: C3_3  and  C4_4 
REMARK    3  A    between atoms: C4_4  and  N1_5 
REMARK       I    between atoms: N1_5  and  C5_6 
REMARK    4  A    between atoms: C5_6  and  C6_8 
REMARK    5  A    between atoms: C11_13  and  N2_14 
REMARK    6  A    between atoms: N2_14  and  C12_15 
REMARK    7  A    between atoms: C12_15  and  C13_16 
ROOT
HETATM    1  C6  UNL     1      22.912   0.643  52.683  1.00  0.00     0.058 A 
HETATM    2  C7  UNL     1      21.544   0.744  52.733  1.00  0.00     0.019 A 
HETATM    3  C8  UNL     1      20.881   0.029  53.705  1.00  0.00     0.001 A 
HETATM    4  C9  UNL     1      21.511  -0.777  54.621  1.00  0.00     0.002 A 
HETATM    5  C10 UNL     1      22.880  -0.868  54.558  1.00  0.00     0.030 A 
HETATM    6  C11 UNL     1      23.588  -0.152  53.581  1.00  0.00     0.044 A 
ENDROOT
BRANCH   1   7
HETATM    7  C5  UNL     1      23.547   1.421  51.632  1.00  0.00     0.254 C 
HETATM    8  N1  UNL     1      22.863   1.918  50.493  1.00  0.00    -0.353 N 
HETATM    9  H7  UNL     1      21.815   1.731  50.364  1.00  0.00     0.163 HD
HETATM   10  O1  UNL     1      24.706   1.852  51.383  1.00  0.00    -0.268 OA
BRANCH   8  11
HETATM   11  C4  UNL     1      23.535   2.698  49.434  1.00  0.00     0.150 C 
BRANCH  11  12
HETATM   12  C3  UNL     1      22.914   4.027  49.223  1.00  0.00    -0.003 C 
HETATM   13  C2  UNL     1      23.882   5.054  49.108  1.00  0.00    -0.058 C 
HETATM   14  C1  UNL     1      23.756   6.599  48.882  1.00  0.00     0.045 C 
BRANCH  13  15
HETATM   15  C18 UNL     1      25.382   5.013  49.198  1.00  0.00     0.256 C 
HETATM   16  F1  UNL     1      25.743   5.797  50.291  1.00  0.00    -0.251 F 
ENDBRANCH  13  15
ENDBRANCH  11  12
ENDBRANCH   8  11
ENDBRANCH   1   7
BRANCH   6  17
HETATM   17  N2  UNL     1      24.994  -0.266  53.533  1.00  0.00    -0.385 N 
HETATM   18  H12 UNL     1      25.522   0.476  54.053  1.00  0.00     0.160 HD
BRANCH  17  19
HETATM   19  C12 UNL     1      25.998  -1.112  52.976  1.00  0.00     0.158 C 
BRANCH  19  20
HETATM   20  C13 UNL     1      27.410  -0.708  53.193  1.00  0.00    -0.038 A 
HETATM   21  C14 UNL     1      28.510  -1.525  53.235  1.00  0.00     0.028 A 
HETATM   22  C15 UNL     1      29.783  -0.979  53.443  1.00  0.00     0.116 A 
HETATM   23  N3  UNL     1      29.925   0.378  53.602  1.00  0.00    -0.273 NA
HETATM   24  C16 UNL     1      28.824   1.146  53.555  1.00  0.00     0.116 A 
HETATM   25  C17 UNL     1      27.526   0.674  53.353  1.00  0.00     0.028 A 
ENDBRANCH  19  20
ENDBRANCH  17  19
ENDBRANCH   6  17
TORSDOF 7
ENDMDL
MODEL 8
REMARK VINA RESULT:      -6.8      2.624      5.649
REMARK  7 active torsions:
REMARK  status: ('A' for Active; 'I' for Inactive)
REMARK    1  A    between atoms: C2_2  and  C18_22 
REMARK    2  A    between atoms: C3_3  and  C4_4 
REMARK    3  A    between atoms: C4_4  and  N1_5 
REMARK       I    between atoms: N1_5  and  C5_6 
REMARK    4  A    between atoms: C5_6  and  C6_8 
REMARK    5  A    between atoms: C11_13  and  N2_14 
REMARK    6  A    between atoms: N2_14  and  C12_15 
REMARK    7  A    between atoms: C12_15  and  C13_16 
ROOT
HETATM    1  C6  UNL     1      23.192   2.408  50.303  1.00  0.00     0.058 A 
HETATM    2  C7  UNL     1      22.337   2.468  49.231  1.00  0.00     0.019 A 
HETATM    3  C8  UNL     1      21.350   1.511  49.141  1.00  0.00     0.001 A 
HETATM    4  C9  UNL     1      21.179   0.506  50.061  1.00  0.00     0.002 A 
HETATM    5  C10 UNL     1      22.042   0.460  51.128  1.00  0.00     0.030 A 
HETATM    6  C11 UNL     1      23.059   1.419  51.251  1.00  0.00     0.044 A 
ENDROOT
BRANCH   1   7
HETATM    7  C5  UNL     1      24.210   3.446  50.334  1.00  0.00     0.254 C 
HETATM    8  N1  UNL     1      24.822   3.989  49.174  1.00  0.00    -0.353 N 
HETATM    9  H7  UNL     1      24.542   3.641  48.200  1.00  0.00     0.163 HD
HETATM   10  O1  UNL     1      24.815   4.111  51.218  1.00  0.00    -0.268 OA
BRANCH   8  11
HETATM   11  C4  UNL     1      25.861   5.037  49.234  1.00  0.00     0.150 C 
BRANCH  11  12
HETATM   12  C3  UNL     1      27.222   4.507  48.983  1.00  0.00    -0.003 C 
HETATM   13  C2  UNL     1      28.085   5.492  48.444  1.00  0.00    -0.058 C 
HETATM   14  C1  UNL     1      29.590   5.449  48.011  1.00  0.00     0.045 C 
BRANCH  13  15
HETATM   15  C18 UNL     1      27.837   6.926  48.071  1.00  0.00     0.256 C 
HETATM   16  F1  UNL     1      28.497   7.709  49.015  1.00  0.00    -0.251 F 
ENDBRANCH  13  15
ENDBRANCH  11  12
ENDBRANCH   8  11
ENDBRANCH   1   7
BRANCH   6  17
HETATM   17  N2  UNL     1      23.938   1.348  52.353  1.00  0.00    -0.385 N 
HETATM   18  H12 UNL     1      24.634   2.129  52.423  1.00  0.00     0.160 HD
BRANCH  17  19
HETATM   19  C12 UNL     1      24.208   0.511  53.475  1.00  0.00     0.158 C 
BRANCH  19  20
HETATM   20  C13 UNL     1      25.623   0.116  53.691  1.00  0.00    -0.038 A 
HETATM   21  C14 UNL     1      26.452   0.521  54.705  1.00  0.00     0.028 A 
HETATM   22  C15 UNL     1      27.768   0.046  54.768  1.00  0.00     0.116 A 
HETATM   23  N3  UNL     1      28.223  -0.829  53.813  1.00  0.00    -0.273 NA
HETATM   24  C16 UNL     1      27.382  -1.203  52.835  1.00  0.00     0.116 A 
HETATM   25  C17 UNL     1      26.060  -0.771  52.706  1.00  0.00     0.028 A 
ENDBRANCH  19  20
ENDBRANCH  17  19
ENDBRANCH   6  17
TORSDOF 7
ENDMDL
MODEL 9
REMARK VINA RESULT:      -6.6      2.352      6.740
REMARK  7 active torsions:
REMARK  status: ('A' for Active; 'I' for Inactive)
REMARK    1  A    between atoms: C2_2  and  C18_22 
REMARK    2  A    between atoms: C3_3  and  C4_4 
REMARK    3  A    between atoms: C4_4  and  N1_5 
REMARK       I    between atoms: N1_5  and  C5_6 
REMARK    4  A    between atoms: C5_6  and  C6_8 
REMARK    5  A    between atoms: C11_13  and  N2_14 
REMARK    6  A    between atoms: N2_14  and  C12_15 
REMARK    7  A    between atoms: C12_15  and  C13_16 
ROOT
HETATM    1  C6  UNL     1      22.715   1.437  52.911  1.00  0.00     0.058 A 
HETATM    2  C7  UNL     1      21.406   1.040  53.031  1.00  0.00     0.019 A 
HETATM    3  C8  UNL     1      21.160  -0.233  53.495  1.00  0.00     0.001 A 
HETATM    4  C9  UNL     1      22.147  -1.122  53.840  1.00  0.00     0.002 A 
HETATM    5  C10 UNL     1      23.452  -0.710  53.715  1.00  0.00     0.030 A 
HETATM    6  C11 UNL     1      23.739   0.581  53.246  1.00  0.00     0.044 A 
ENDROOT
BRANCH   1   7
HETATM    7  C5  UNL     1      22.903   2.790  52.414  1.00  0.00     0.254 C 
HETATM    8  N1  UNL     1      21.895   3.535  51.748  1.00  0.00    -0.353 N 
HETATM    9  H7  UNL     1      20.925   3.111  51.585  1.00  0.00     0.163 HD
HETATM   10  O1  UNL     1      23.839   3.634  52.385  1.00  0.00    -0.268 OA
BRANCH   8  11
HETATM   11  C4  UNL     1      22.116   4.906  51.244  1.00  0.00     0.150 C 
BRANCH  11  12
HETATM   12  C3  UNL     1      21.561   5.111  49.886  1.00  0.00    -0.003 C 
HETATM   13  C2  UNL     1      22.497   4.788  48.874  1.00  0.00    -0.058 C 
HETATM   14  C1  UNL     1      22.413   4.827  47.310  1.00  0.00     0.045 C 
BRANCH  13  15
HETATM   15  C18 UNL     1      23.922   4.318  48.960  1.00  0.00     0.256 C 
HETATM   16  F1  UNL     1      24.724   5.457  48.967  1.00  0.00    -0.251 F 
ENDBRANCH  13  15
ENDBRANCH  11  12
ENDBRANCH   8  11
ENDBRANCH   1   7
BRANCH   6  17
HETATM   17  N2  UNL     1      25.087   0.979  53.120  1.00  0.00    -0.385 N 
HETATM   18  H12 UNL     1      25.437   1.624  53.870  1.00  0.00     0.160 HD
BRANCH  17  19
HETATM   19  C12 UNL     1      26.204   0.780  52.256  1.00  0.00     0.158 C 
BRANCH  19  20
HETATM   20  C13 UNL     1      27.197  -0.243  52.669  1.00  0.00    -0.038 A 
HETATM   21  C14 UNL     1      28.398  -0.029  53.295  1.00  0.00     0.028 A 
HETATM   22  C15 UNL     1      29.221  -1.113  53.625  1.00  0.00     0.116 A 
HETATM   23  N3  UNL     1      28.819  -2.391  53.321  1.00  0.00    -0.273 NA
HETATM   24  C16 UNL     1      27.637  -2.561  52.708  1.00  0.00     0.116 A 
HETATM   25  C17 UNL     1      26.765  -1.531  52.348  1.00  0.00     0.028 A 
ENDBRANCH  19  20
ENDBRANCH  17  19
ENDBRANCH   6  17
TORSDOF 7
ENDMDL
