MODEL 1
REMARK VINA RESULT:      -8.8      0.000      0.000
REMARK  7 active torsions:
REMARK  status: ('A' for Active; 'I' for Inactive)
REMARK    1  A    between atoms: C1_2  and  C2_5 
REMARK    2  A    between atoms: C6_9  and  N1_10 
REMARK    3  A    between atoms: N1_10  and  C7_11 
REMARK    4  A    between atoms: N2_12  and  C8_13 
REMARK    5  A    between atoms: C8_13  and  N3_14 
REMARK    6  A    between atoms: N3_14  and  C9_15 
REMARK    7  A    between atoms: C9_15  and  N4_16 
ROOT
HETATM    1  C8  UNL     1      26.724   5.237  48.954  1.00  0.00     0.229 C 
ENDROOT
BRANCH   1   2
HETATM    2  N2  UNL     1      27.834   6.005  48.541  1.00  0.00    -0.237 NA
HETATM    3  C7  UNL     1      28.900   5.319  48.183  1.00  0.00     0.208 C 
BRANCH   3   4
HETATM    4  N1  UNL     1      29.921   6.221  47.799  1.00  0.00    -0.351 N 
HETATM    5  H4  UNL     1      29.694   7.175  47.382  1.00  0.00     0.166 HD
BRANCH   4   6
HETATM    6  C6  UNL     1      31.298   5.915  47.933  1.00  0.00     0.033 A 
HETATM    7  C5  UNL     1      32.225   6.894  48.279  1.00  0.00     0.029 A 
HETATM    8  C4  UNL     1      33.580   6.723  48.431  1.00  0.00     0.003 A 
HETATM    9  C3  UNL     1      34.060   5.458  48.219  1.00  0.00     0.016 A 
HETATM   10  C2  UNL     1      33.223   4.420  47.874  1.00  0.00     0.050 A 
HETATM   11  C21 UNL     1      31.877   4.682  47.743  1.00  0.00     0.045 A 
BRANCH  10  12
HETATM   12  C1  UNL     1      33.762   3.040  47.646  1.00  0.00     0.417 C 
HETATM   13  F1  UNL     1      33.804   2.776  46.307  1.00  0.00    -0.166 F 
HETATM   14  F2  UNL     1      32.949   2.117  48.268  1.00  0.00    -0.166 F 
HETATM   15  F3  UNL     1      35.010   2.948  48.255  1.00  0.00    -0.166 F 
ENDBRANCH  10  12
ENDBRANCH   4   6
ENDBRANCH   3   4
ENDBRANCH   1   2
BRANCH   1  16
HETATM   16  N3  UNL     1      25.993   4.416  49.597  1.00  0.00    -0.264 NA
BRANCH  16  17
HETATM   17  C9  UNL     1      26.594   3.157  50.047  1.00  0.00     0.272 C 
BRANCH  17  18
HETATM   18  N4  UNL     1      26.340   2.798  51.325  1.00  0.00    -0.366 N 
HETATM   19  C10 UNL     1      24.888   2.756  51.646  1.00  0.00     0.126 C 
HETATM   20  C11 UNL     1      24.699   2.113  52.979  1.00  0.00     0.058 C 
HETATM   21  C12 UNL     1      24.979   0.724  53.203  1.00  0.00    -0.060 C 
HETATM   22  C13 UNL     1      24.658  -0.431  53.630  1.00  0.00    -0.018 C 
HETATM   23  C20 UNL     1      26.334   0.518  53.925  1.00  0.00     0.007 C 
HETATM   24  C14 UNL     1      25.938  -1.092  53.131  1.00  0.00     0.054 C 
HETATM   25  C15 UNL     1      26.701  -0.355  52.049  1.00  0.00     0.174 C 
HETATM   26  O1  UNL     1      26.816   0.882  52.097  1.00  0.00    -0.363 OA
HETATM   27  C16 UNL     1      26.904   2.114  52.303  1.00  0.00     0.244 C 
HETATM   28  C17 UNL     1      28.275   2.315  52.927  1.00  0.00     0.026 C 
HETATM   29  C18 UNL     1      28.509   1.471  53.972  1.00  0.00     0.000 C 
HETATM   30  C19 UNL     1      27.538   0.532  54.411  1.00  0.00     0.000 C 
ENDBRANCH  17  18
ENDBRANCH  16  17
ENDBRANCH   1  16
TORSDOF 7
ENDMDL
MODEL 2
REMARK VINA RESULT:      -8.7      4.909      6.817
REMARK  7 active torsions:
REMARK  status: ('A' for Active; 'I' for Inactive)
REMARK    1  A    between atoms: C1_2  and  C2_5 
REMARK    2  A    between atoms: C6_9  and  N1_10 
REMARK    3  A    between atoms: N1_10  and  C7_11 
REMARK    4  A    between atoms: N2_12  and  C8_13 
REMARK    5  A    between atoms: C8_13  and  N3_14 
REMARK    6  A    between atoms: N3_14  and  C9_15 
REMARK    7  A    between atoms: C9_15  and  N4_16 
ROOT
HETATM    1  C8  UNL     1      24.106   5.376  49.416  1.00  0.00     0.229 C 
ENDROOT
BRANCH   1   2
HETATM    2  N2  UNL     1      25.247   4.978  50.146  1.00  0.00    -0.237 NA
HETATM    3  C7  UNL     1      25.497   3.685  50.151  1.00  0.00     0.208 C 
BRANCH   3   4
HETATM    4  N1  UNL     1      26.662   3.444  50.919  1.00  0.00    -0.351 N 
HETATM    5  H4  UNL     1      27.478   4.130  50.923  1.00  0.00     0.166 HD
BRANCH   4   6
HETATM    6  C6  UNL     1      26.823   2.283  51.716  1.00  0.00     0.033 A 
HETATM    7  C5  UNL     1      25.897   1.244  51.674  1.00  0.00     0.029 A 
HETATM    8  C4  UNL     1      25.941   0.078  52.400  1.00  0.00     0.003 A 
HETATM    9  C3  UNL     1      27.004  -0.069  53.250  1.00  0.00     0.016 A 
HETATM   10  C2  UNL     1      27.975   0.902  53.362  1.00  0.00     0.050 A 
HETATM   11  C21 UNL     1      27.852   2.040  52.596  1.00  0.00     0.045 A 
BRANCH  10  12
HETATM   12  C1  UNL     1      29.135   0.727  54.295  1.00  0.00     0.417 C 
HETATM   13  F1  UNL     1      30.163   0.109  53.641  1.00  0.00    -0.166 F 
HETATM   14  F2  UNL     1      28.751  -0.042  55.372  1.00  0.00    -0.166 F 
HETATM   15  F3  UNL     1      29.487   1.975  54.799  1.00  0.00    -0.166 F 
ENDBRANCH  10  12
ENDBRANCH   4   6
ENDBRANCH   3   4
ENDBRANCH   1   2
BRANCH   1  16
HETATM   16  N3  UNL     1      22.992   5.343  48.799  1.00  0.00    -0.264 NA
BRANCH  16  17
HETATM   17  C9  UNL     1      22.625   4.111  48.096  1.00  0.00     0.272 C 
BRANCH  17  18
HETATM   18  N4  UNL     1      21.839   3.247  48.776  1.00  0.00    -0.366 N 
HETATM   19  C10 UNL     1      22.122   1.820  48.461  1.00  0.00     0.126 C 
HETATM   20  C11 UNL     1      21.395   0.951  49.432  1.00  0.00     0.058 C 
HETATM   21  C12 UNL     1      21.740   0.905  50.823  1.00  0.00    -0.060 C 
HETATM   22  C13 UNL     1      22.032   0.272  51.887  1.00  0.00    -0.018 C 
HETATM   23  C20 UNL     1      20.755   1.730  51.689  1.00  0.00     0.007 C 
HETATM   24  C14 UNL     1      22.274   1.535  52.705  1.00  0.00     0.054 C 
HETATM   25  C15 UNL     1      22.546   2.804  51.923  1.00  0.00     0.174 C 
HETATM   26  O1  UNL     1      21.905   3.048  50.886  1.00  0.00    -0.363 OA
HETATM   27  C16 UNL     1      21.147   3.195  49.899  1.00  0.00     0.244 C 
HETATM   28  C17 UNL     1      20.052   4.134  50.377  1.00  0.00     0.026 C 
HETATM   29  C18 UNL     1      19.497   3.741  51.560  1.00  0.00     0.000 C 
HETATM   30  C19 UNL     1      19.916   2.561  52.230  1.00  0.00     0.000 C 
ENDBRANCH  17  18
ENDBRANCH  16  17
ENDBRANCH   1  16
TORSDOF 7
ENDMDL
MODEL 3
REMARK VINA RESULT:      -8.6      6.290      8.307
REMARK  7 active torsions:
REMARK  status: ('A' for Active; 'I' for Inactive)
REMARK    1  A    between atoms: C1_2  and  C2_5 
REMARK    2  A    between atoms: C6_9  and  N1_10 
REMARK    3  A    between atoms: N1_10  and  C7_11 
REMARK    4  A    between atoms: N2_12  and  C8_13 
REMARK    5  A    between atoms: C8_13  and  N3_14 
REMARK    6  A    between atoms: N3_14  and  C9_15 
REMARK    7  A    between atoms: C9_15  and  N4_16 
ROOT
HETATM    1  C8  UNL     1      21.351  -0.359  54.422  1.00  0.00     0.229 C 
ENDROOT
BRANCH   1   2
HETATM    2  N2  UNL     1      20.867   0.135  53.191  1.00  0.00    -0.237 NA
HETATM    3  C7  UNL     1      20.453   1.385  53.202  1.00  0.00     0.208 C 
BRANCH   3   4
HETATM    4  N1  UNL     1      20.000   1.732  51.907  1.00  0.00    -0.351 N 
HETATM    5  H4  UNL     1      18.965   1.884  51.701  1.00  0.00     0.166 HD
BRANCH   4   6
HETATM    6  C6  UNL     1      20.880   1.890  50.807  1.00  0.00     0.033 A 
HETATM    7  C5  UNL     1      20.763   1.097  49.669  1.00  0.00     0.029 A 
HETATM    8  C4  UNL     1      21.557   1.150  48.548  1.00  0.00     0.003 A 
HETATM    9  C3  UNL     1      22.563   2.079  48.560  1.00  0.00     0.016 A 
HETATM   10  C2  UNL     1      22.760   2.911  49.639  1.00  0.00     0.050 A 
HETATM   11  C21 UNL     1      21.918   2.789  50.722  1.00  0.00     0.045 A 
BRANCH  10  12
HETATM   12  C1  UNL     1      23.865   3.925  49.638  1.00  0.00     0.417 C 
HETATM   13  F1  UNL     1      23.999   4.463  50.886  1.00  0.00    -0.166 F 
HETATM   14  F2  UNL     1      23.573   4.926  48.738  1.00  0.00    -0.166 F 
HETATM   15  F3  UNL     1      25.028   3.308  49.187  1.00  0.00    -0.166 F 
ENDBRANCH  10  12
ENDBRANCH   4   6
ENDBRANCH   3   4
ENDBRANCH   1   2
BRANCH   1  16
HETATM   16  N3  UNL     1      21.975  -1.060  55.283  1.00  0.00    -0.264 NA
BRANCH  16  17
HETATM   17  C9  UNL     1      23.284  -1.607  54.914  1.00  0.00     0.272 C 
BRANCH  17  18
HETATM   18  N4  UNL     1      24.273  -0.706  54.717  1.00  0.00    -0.366 N 
HETATM   19  C10 UNL     1      25.236  -0.633  55.849  1.00  0.00     0.126 C 
HETATM   20  C11 UNL     1      26.413   0.186  55.439  1.00  0.00     0.058 C 
HETATM   21  C12 UNL     1      27.339  -0.256  54.437  1.00  0.00    -0.060 C 
HETATM   22  C13 UNL     1      28.520  -0.487  54.023  1.00  0.00    -0.018 C 
HETATM   23  C20 UNL     1      27.093   0.441  53.076  1.00  0.00     0.007 C 
HETATM   24  C14 UNL     1      28.059  -1.076  52.695  1.00  0.00     0.054 C 
HETATM   25  C15 UNL     1      26.624  -1.560  52.634  1.00  0.00     0.174 C 
HETATM   26  O1  UNL     1      25.720  -0.905  53.180  1.00  0.00    -0.363 OA
HETATM   27  C16 UNL     1      24.907  -0.119  53.719  1.00  0.00     0.244 C 
HETATM   28  C17 UNL     1      24.321   0.692  52.576  1.00  0.00     0.026 C 
HETATM   29  C18 UNL     1      25.277   1.219  51.757  1.00  0.00     0.000 C 
HETATM   30  C19 UNL     1      26.663   1.021  51.996  1.00  0.00     0.000 C 
ENDBRANCH  17  18
ENDBRANCH  16  17
ENDBRANCH   1  16
TORSDOF 7
ENDMDL
MODEL 4
REMARK VINA RESULT:      -8.4      3.434      9.152
REMARK  7 active torsions:
REMARK  status: ('A' for Active; 'I' for Inactive)
REMARK    1  A    between atoms: C1_2  and  C2_5 
REMARK    2  A    between atoms: C6_9  and  N1_10 
REMARK    3  A    between atoms: N1_10  and  C7_11 
REMARK    4  A    between atoms: N2_12  and  C8_13 
REMARK    5  A    between atoms: C8_13  and  N3_14 
REMARK    6  A    between atoms: N3_14  and  C9_15 
REMARK    7  A    between atoms: C9_15  and  N4_16 
ROOT
HETATM    1  C8  UNL     1      28.156   5.202  48.486  1.00  0.00     0.229 C 
ENDROOT
BRANCH   1   2
HETATM    2  N2  UNL     1      26.902   4.910  49.064  1.00  0.00    -0.237 NA
HETATM    3  C7  UNL     1      26.759   3.686  49.528  1.00  0.00     0.208 C 
BRANCH   3   4
HETATM    4  N1  UNL     1      25.459   3.548  50.071  1.00  0.00    -0.351 N 
HETATM    5  H4  UNL     1      24.672   4.217  49.809  1.00  0.00     0.166 HD
BRANCH   4   6
HETATM    6  C6  UNL     1      25.123   2.527  50.995  1.00  0.00     0.033 A 
HETATM    7  C5  UNL     1      23.827   2.395  51.486  1.00  0.00     0.029 A 
HETATM    8  C4  UNL     1      23.383   1.456  52.385  1.00  0.00     0.003 A 
HETATM    9  C3  UNL     1      24.315   0.564  52.842  1.00  0.00     0.016 A 
HETATM   10  C2  UNL     1      25.624   0.610  52.415  1.00  0.00     0.050 A 
HETATM   11  C21 UNL     1      25.983   1.586  51.512  1.00  0.00     0.045 A 
BRANCH  10  12
HETATM   12  C1  UNL     1      26.634  -0.375  52.922  1.00  0.00     0.417 C 
HETATM   13  F1  UNL     1      26.424  -0.609  54.251  1.00  0.00    -0.166 F 
HETATM   14  F2  UNL     1      27.904   0.131  52.743  1.00  0.00    -0.166 F 
HETATM   15  F3  UNL     1      26.550  -1.529  52.149  1.00  0.00    -0.166 F 
ENDBRANCH  10  12
ENDBRANCH   4   6
ENDBRANCH   3   4
ENDBRANCH   1   2
BRANCH   1  16
HETATM   16  N3  UNL     1      29.381   5.116  48.146  1.00  0.00    -0.264 NA
BRANCH  16  17
HETATM   17  C9  UNL     1      30.088   6.348  47.786  1.00  0.00     0.272 C 
BRANCH  17  18
HETATM   18  N4  UNL     1      31.422   6.237  47.596  1.00  0.00    -0.366 N 
HETATM   19  C10 UNL     1      32.180   6.025  48.858  1.00  0.00     0.126 C 
HETATM   20  C11 UNL     1      33.590   5.664  48.529  1.00  0.00     0.058 C 
HETATM   21  C12 UNL     1      33.932   4.422  47.898  1.00  0.00    -0.060 C 
HETATM   22  C13 UNL     1      34.613   3.350  47.825  1.00  0.00    -0.018 C 
HETATM   23  C20 UNL     1      34.221   4.604  46.387  1.00  0.00     0.007 C 
HETATM   24  C14 UNL     1      33.853   2.817  46.617  1.00  0.00     0.054 C 
HETATM   25  C15 UNL     1      32.485   3.418  46.361  1.00  0.00     0.174 C 
HETATM   26  O1  UNL     1      32.300   4.638  46.514  1.00  0.00    -0.363 OA
HETATM   27  C16 UNL     1      32.272   5.883  46.649  1.00  0.00     0.244 C 
HETATM   28  C17 UNL     1      32.400   6.438  45.241  1.00  0.00     0.026 C 
HETATM   29  C18 UNL     1      33.440   5.890  44.549  1.00  0.00     0.000 C 
HETATM   30  C19 UNL     1      34.301   4.921  45.130  1.00  0.00     0.000 C 
ENDBRANCH  17  18
ENDBRANCH  16  17
ENDBRANCH   1  16
TORSDOF 7
ENDMDL
MODEL 5
REMARK VINA RESULT:      -8.4      4.515      7.527
REMARK  7 active torsions:
REMARK  status: ('A' for Active; 'I' for Inactive)
REMARK    1  A    between atoms: C1_2  and  C2_5 
REMARK    2  A    between atoms: C6_9  and  N1_10 
REMARK    3  A    between atoms: N1_10  and  C7_11 
REMARK    4  A    between atoms: N2_12  and  C8_13 
REMARK    5  A    between atoms: C8_13  and  N3_14 
REMARK    6  A    between atoms: N3_14  and  C9_15 
REMARK    7  A    between atoms: C9_15  and  N4_16 
ROOT
HETATM    1  C8  UNL     1      22.069   1.965  51.109  1.00  0.00     0.229 C 
ENDROOT
BRANCH   1   2
HETATM    2  N2  UNL     1      23.049   1.052  51.553  1.00  0.00    -0.237 NA
HETATM    3  C7  UNL     1      23.535   1.278  52.756  1.00  0.00     0.208 C 
BRANCH   3   4
HETATM    4  N1  UNL     1      24.499   0.287  53.057  1.00  0.00    -0.351 N 
HETATM    5  H4  UNL     1      24.223  -0.731  53.209  1.00  0.00     0.166 HD
BRANCH   4   6
HETATM    6  C6  UNL     1      25.880   0.581  53.185  1.00  0.00     0.033 A 
HETATM    7  C5  UNL     1      26.336   1.894  53.255  1.00  0.00     0.029 A 
HETATM    8  C4  UNL     1      27.642   2.303  53.372  1.00  0.00     0.003 A 
HETATM    9  C3  UNL     1      28.586   1.313  53.424  1.00  0.00     0.016 A 
HETATM   10  C2  UNL     1      28.236  -0.018  53.365  1.00  0.00     0.050 A 
HETATM   11  C21 UNL     1      26.902  -0.338  53.247  1.00  0.00     0.045 A 
BRANCH  10  12
HETATM   12  C1  UNL     1      29.281  -1.092  53.425  1.00  0.00     0.417 C 
HETATM   13  F1  UNL     1      28.737  -2.286  53.044  1.00  0.00    -0.166 F 
HETATM   14  F2  UNL     1      29.760  -1.199  54.712  1.00  0.00    -0.166 F 
HETATM   15  F3  UNL     1      30.355  -0.707  52.628  1.00  0.00    -0.166 F 
ENDBRANCH  10  12
ENDBRANCH   4   6
ENDBRANCH   3   4
ENDBRANCH   1   2
BRANCH   1  16
HETATM   16  N3  UNL     1      21.394   3.035  50.951  1.00  0.00    -0.264 NA
BRANCH  16  17
HETATM   17  C9  UNL     1      22.109   4.314  50.957  1.00  0.00     0.272 C 
BRANCH  17  18
HETATM   18  N4  UNL     1      22.969   4.521  49.935  1.00  0.00    -0.366 N 
HETATM   19  C10 UNL     1      22.393   5.351  48.842  1.00  0.00     0.126 C 
HETATM   20  C11 UNL     1      23.479   5.735  47.894  1.00  0.00     0.058 C 
HETATM   21  C12 UNL     1      24.537   6.629  48.267  1.00  0.00    -0.060 C 
HETATM   22  C13 UNL     1      25.263   7.654  48.067  1.00  0.00    -0.018 C 
HETATM   23  C20 UNL     1      25.851   5.868  48.579  1.00  0.00     0.007 C 
HETATM   24  C14 UNL     1      26.019   7.513  49.383  1.00  0.00     0.054 C 
HETATM   25  C15 UNL     1      25.355   6.673  50.456  1.00  0.00     0.174 C 
HETATM   26  O1  UNL     1      24.769   5.620  50.152  1.00  0.00    -0.363 OA
HETATM   27  C16 UNL     1      24.270   4.559  49.713  1.00  0.00     0.244 C 
HETATM   28  C17 UNL     1      25.306   3.485  49.998  1.00  0.00     0.026 C 
HETATM   29  C18 UNL     1      26.556   3.830  49.573  1.00  0.00     0.000 C 
HETATM   30  C19 UNL     1      26.812   5.065  48.920  1.00  0.00     0.000 C 
ENDBRANCH  17  18
ENDBRANCH  16  17
ENDBRANCH   1  16
TORSDOF 7
ENDMDL
MODEL 6
REMARK VINA RESULT:      -8.3      6.062      8.357
REMARK  7 active torsions:
REMARK  status: ('A' for Active; 'I' for Inactive)
REMARK    1  A    between atoms: C1_2  and  C2_5 
REMARK    2  A    between atoms: C6_9  and  N1_10 
REMARK    3  A    between atoms: N1_10  and  C7_11 
REMARK    4  A    between atoms: N2_12  and  C8_13 
REMARK    5  A    between atoms: C8_13  and  N3_14 
REMARK    6  A    between atoms: N3_14  and  C9_15 
REMARK    7  A    between atoms: C9_15  and  N4_16 
ROOT
HETATM    1  C8  UNL     1      24.975   5.155  49.392  1.00  0.00     0.229 C 
ENDROOT
BRANCH   1   2
HETATM    2  N2  UNL     1      25.668   4.405  50.366  1.00  0.00    -0.237 NA
HETATM    3  C7  UNL     1      25.925   3.153  50.046  1.00  0.00     0.208 C 
BRANCH   3   4
HETATM    4  N1  UNL     1      26.618   2.537  51.115  1.00  0.00    -0.351 N 
HETATM    5  H4  UNL     1      27.581   2.876  51.424  1.00  0.00     0.166 HD
BRANCH   4   6
HETATM    6  C6  UNL     1      26.089   1.434  51.832  1.00  0.00     0.033 A 
HETATM    7  C5  UNL     1      26.892   0.356  52.194  1.00  0.00     0.029 A 
HETATM    8  C4  UNL     1      26.496  -0.767  52.879  1.00  0.00     0.003 A 
HETATM    9  C3  UNL     1      25.176  -0.825  53.237  1.00  0.00     0.016 A 
HETATM   10  C2  UNL     1      24.301   0.192  52.927  1.00  0.00     0.050 A 
HETATM   11  C21 UNL     1      24.784   1.281  52.237  1.00  0.00     0.045 A 
BRANCH  10  12
HETATM   12  C1  UNL     1      22.858   0.115  53.327  1.00  0.00     0.417 C 
HETATM   13  F1  UNL     1      22.757  -0.388  54.593  1.00  0.00    -0.166 F 
HETATM   14  F2  UNL     1      22.178  -0.706  52.454  1.00  0.00    -0.166 F 
HETATM   15  F3  UNL     1      22.299   1.383  53.203  1.00  0.00    -0.166 F 
ENDBRANCH  10  12
ENDBRANCH   4   6
ENDBRANCH   3   4
ENDBRANCH   1   2
BRANCH   1  16
HETATM   16  N3  UNL     1      24.116   5.501  48.516  1.00  0.00    -0.264 NA
BRANCH  16  17
HETATM   17  C9  UNL     1      22.710   5.587  48.920  1.00  0.00     0.272 C 
BRANCH  17  18
HETATM   18  N4  UNL     1      22.286   4.659  49.806  1.00  0.00    -0.366 N 
HETATM   19  C10 UNL     1      21.777   5.246  51.075  1.00  0.00     0.126 C 
HETATM   20  C11 UNL     1      21.105   4.179  51.874  1.00  0.00     0.058 C 
HETATM   21  C12 UNL     1      19.880   3.565  51.449  1.00  0.00    -0.060 C 
HETATM   22  C13 UNL     1      18.682   3.189  51.656  1.00  0.00    -0.018 C 
HETATM   23  C20 UNL     1      20.121   2.165  50.832  1.00  0.00     0.007 C 
HETATM   24  C14 UNL     1      18.470   2.704  50.227  1.00  0.00     0.054 C 
HETATM   25  C15 UNL     1      19.416   3.256  49.180  1.00  0.00     0.174 C 
HETATM   26  O1  UNL     1      20.624   3.395  49.439  1.00  0.00    -0.363 OA
HETATM   27  C16 UNL     1      21.818   3.424  49.815  1.00  0.00     0.244 C 
HETATM   28  C17 UNL     1      22.449   2.172  49.229  1.00  0.00     0.026 C 
HETATM   29  C18 UNL     1      21.724   1.045  49.484  1.00  0.00     0.000 C 
HETATM   30  C19 UNL     1      20.521   1.081  50.238  1.00  0.00     0.000 C 
ENDBRANCH  17  18
ENDBRANCH  16  17
ENDBRANCH   1  16
TORSDOF 7
ENDMDL
MODEL 7
REMARK VINA RESULT:      -8.3      5.848      8.027
REMARK  7 active torsions:
REMARK  status: ('A' for Active; 'I' for Inactive)
REMARK    1  A    between atoms: C1_2  and  C2_5 
REMARK    2  A    between atoms: C6_9  and  N1_10 
REMARK    3  A    between atoms: N1_10  and  C7_11 
REMARK    4  A    between atoms: N2_12  and  C8_13 
REMARK    5  A    between atoms: C8_13  and  N3_14 
REMARK    6  A    between atoms: N3_14  and  C9_15 
REMARK    7  A    between atoms: C9_15  and  N4_16 
ROOT
HETATM    1  C8  UNL     1      20.598   0.482  53.260  1.00  0.00     0.229 C 
ENDROOT
BRANCH   1   2
HETATM    2  N2  UNL     1      21.879   0.343  53.835  1.00  0.00    -0.237 NA
HETATM    3  C7  UNL     1      22.699  -0.476  53.210  1.00  0.00     0.208 C 
BRANCH   3   4
HETATM    4  N1  UNL     1      23.933  -0.510  53.902  1.00  0.00    -0.351 N 
HETATM    5  H4  UNL     1      24.041  -1.036  54.823  1.00  0.00     0.166 HD
BRANCH   4   6
HETATM    6  C6  UNL     1      25.092   0.153  53.427  1.00  0.00     0.033 A 
HETATM    7  C5  UNL     1      25.058   0.930  52.273  1.00  0.00     0.029 A 
HETATM    8  C4  UNL     1      26.111   1.612  51.713  1.00  0.00     0.003 A 
HETATM    9  C3  UNL     1      27.313   1.511  52.360  1.00  0.00     0.016 A 
HETATM   10  C2  UNL     1      27.450   0.766  53.510  1.00  0.00     0.050 A 
HETATM   11  C21 UNL     1      26.341   0.114  54.003  1.00  0.00     0.045 A 
BRANCH  10  12
HETATM   12  C1  UNL     1      28.772   0.666  54.210  1.00  0.00     0.417 C 
HETATM   13  F1  UNL     1      29.230   1.916  54.513  1.00  0.00    -0.166 F 
HETATM   14  F2  UNL     1      29.682   0.033  53.391  1.00  0.00    -0.166 F 
HETATM   15  F3  UNL     1      28.616  -0.141  55.333  1.00  0.00    -0.166 F 
ENDBRANCH  10  12
ENDBRANCH   4   6
ENDBRANCH   3   4
ENDBRANCH   1   2
BRANCH   1  16
HETATM   16  N3  UNL     1      19.660   0.784  52.451  1.00  0.00    -0.264 NA
BRANCH  16  17
HETATM   17  C9  UNL     1      19.947   0.751  51.014  1.00  0.00     0.272 C 
BRANCH  17  18
HETATM   18  N4  UNL     1      20.387   1.906  50.468  1.00  0.00    -0.366 N 
HETATM   19  C10 UNL     1      19.444   3.042  50.654  1.00  0.00     0.126 C 
HETATM   20  C11 UNL     1      20.118   4.311  50.250  1.00  0.00     0.058 C 
HETATM   21  C12 UNL     1      21.218   4.860  50.989  1.00  0.00    -0.060 C 
HETATM   22  C13 UNL     1      21.803   5.820  51.585  1.00  0.00    -0.018 C 
HETATM   23  C20 UNL     1      22.576   4.579  50.296  1.00  0.00     0.007 C 
HETATM   24  C14 UNL     1      22.976   4.965  52.049  1.00  0.00     0.054 C 
HETATM   25  C15 UNL     1      22.752   3.467  52.071  1.00  0.00     0.174 C 
HETATM   26  O1  UNL     1      22.122   2.915  51.152  1.00  0.00    -0.363 OA
HETATM   27  C16 UNL     1      21.526   2.487  50.137  1.00  0.00     0.244 C 
HETATM   28  C17 UNL     1      22.622   1.963  49.225  1.00  0.00     0.026 C 
HETATM   29  C18 UNL     1      23.634   2.861  49.045  1.00  0.00     0.000 C 
HETATM   30  C19 UNL     1      23.615   4.145  49.649  1.00  0.00     0.000 C 
ENDBRANCH  17  18
ENDBRANCH  16  17
ENDBRANCH   1  16
TORSDOF 7
ENDMDL
MODEL 8
REMARK VINA RESULT:      -8.2      4.759      9.711
REMARK  7 active torsions:
REMARK  status: ('A' for Active; 'I' for Inactive)
REMARK    1  A    between atoms: C1_2  and  C2_5 
REMARK    2  A    between atoms: C6_9  and  N1_10 
REMARK    3  A    between atoms: N1_10  and  C7_11 
REMARK    4  A    between atoms: N2_12  and  C8_13 
REMARK    5  A    between atoms: C8_13  and  N3_14 
REMARK    6  A    between atoms: N3_14  and  C9_15 
REMARK    7  A    between atoms: C9_15  and  N4_16 
ROOT
HETATM    1  C8  UNL     1      28.097   5.115  48.526  1.00  0.00     0.229 C 
ENDROOT
BRANCH   1   2
HETATM    2  N2  UNL     1      26.878   4.777  49.152  1.00  0.00    -0.237 NA
HETATM    3  C7  UNL     1      26.757   3.518  49.521  1.00  0.00     0.208 C 
BRANCH   3   4
HETATM    4  N1  UNL     1      25.491   3.335  50.127  1.00  0.00    -0.351 N 
HETATM    5  H4  UNL     1      24.668   3.974  49.902  1.00  0.00     0.166 HD
BRANCH   4   6
HETATM    6  C6  UNL     1      25.238   2.308  51.070  1.00  0.00     0.033 A 
HETATM    7  C5  UNL     1      26.273   1.538  51.594  1.00  0.00     0.029 A 
HETATM    8  C4  UNL     1      26.153   0.515  52.504  1.00  0.00     0.003 A 
HETATM    9  C3  UNL     1      24.885   0.230  52.933  1.00  0.00     0.016 A 
HETATM   10  C2  UNL     1      23.795   0.935  52.475  1.00  0.00     0.050 A 
HETATM   11  C21 UNL     1      24.006   1.945  51.563  1.00  0.00     0.045 A 
BRANCH  10  12
HETATM   12  C1  UNL     1      22.412   0.612  52.955  1.00  0.00     0.417 C 
HETATM   13  F1  UNL     1      22.480  -0.043  54.151  1.00  0.00    -0.166 F 
HETATM   14  F2  UNL     1      21.776  -0.188  52.031  1.00  0.00    -0.166 F 
HETATM   15  F3  UNL     1      21.683   1.796  53.028  1.00  0.00    -0.166 F 
ENDBRANCH  10  12
ENDBRANCH   4   6
ENDBRANCH   3   4
ENDBRANCH   1   2
BRANCH   1  16
HETATM   16  N3  UNL     1      29.304   5.065  48.121  1.00  0.00    -0.264 NA
BRANCH  16  17
HETATM   17  C9  UNL     1      30.011   6.328  47.891  1.00  0.00     0.272 C 
BRANCH  17  18
HETATM   18  N4  UNL     1      31.345   6.237  47.689  1.00  0.00    -0.366 N 
HETATM   19  C10 UNL     1      32.113   5.985  48.939  1.00  0.00     0.126 C 
HETATM   20  C11 UNL     1      33.524   5.650  48.588  1.00  0.00     0.058 C 
HETATM   21  C12 UNL     1      33.874   4.437  47.908  1.00  0.00    -0.060 C 
HETATM   22  C13 UNL     1      34.564   3.375  47.790  1.00  0.00    -0.018 C 
HETATM   23  C20 UNL     1      34.152   4.680  46.403  1.00  0.00     0.007 C 
HETATM   24  C14 UNL     1      33.802   2.882  46.565  1.00  0.00     0.054 C 
HETATM   25  C15 UNL     1      32.428   3.479  46.341  1.00  0.00     0.174 C 
HETATM   26  O1  UNL     1      32.232   4.691  46.542  1.00  0.00    -0.363 OA
HETATM   27  C16 UNL     1      32.193   5.929  46.726  1.00  0.00     0.244 C 
HETATM   28  C17 UNL     1      32.307   6.539  45.339  1.00  0.00     0.026 C 
HETATM   29  C18 UNL     1      33.349   6.029  44.621  1.00  0.00     0.000 C 
HETATM   30  C19 UNL     1      34.222   5.046  45.159  1.00  0.00     0.000 C 
ENDBRANCH  17  18
ENDBRANCH  16  17
ENDBRANCH   1  16
TORSDOF 7
ENDMDL
MODEL 9
REMARK VINA RESULT:      -8.2      5.976      9.365
REMARK  7 active torsions:
REMARK  status: ('A' for Active; 'I' for Inactive)
REMARK    1  A    between atoms: C1_2  and  C2_5 
REMARK    2  A    between atoms: C6_9  and  N1_10 
REMARK    3  A    between atoms: N1_10  and  C7_11 
REMARK    4  A    between atoms: N2_12  and  C8_13 
REMARK    5  A    between atoms: C8_13  and  N3_14 
REMARK    6  A    between atoms: N3_14  and  C9_15 
REMARK    7  A    between atoms: C9_15  and  N4_16 
ROOT
HETATM    1  C8  UNL     1      18.893   2.652  50.049  1.00  0.00     0.229 C 
ENDROOT
BRANCH   1   2
HETATM    2  N2  UNL     1      19.226   1.418  50.647  1.00  0.00    -0.237 NA
HETATM    3  C7  UNL     1      19.386   1.443  51.954  1.00  0.00     0.208 C 
BRANCH   3   4
HETATM    4  N1  UNL     1      19.715   0.142  52.403  1.00  0.00    -0.351 N 
HETATM    5  H4  UNL     1      19.035  -0.673  52.300  1.00  0.00     0.166 HD
BRANCH   4   6
HETATM    6  C6  UNL     1      20.954  -0.161  53.022  1.00  0.00     0.033 A 
HETATM    7  C5  UNL     1      21.021  -0.991  54.137  1.00  0.00     0.029 A 
HETATM    8  C4  UNL     1      22.155  -1.350  54.825  1.00  0.00     0.003 A 
HETATM    9  C3  UNL     1      23.336  -0.834  54.360  1.00  0.00     0.016 A 
HETATM   10  C2  UNL     1      23.375  -0.004  53.262  1.00  0.00     0.050 A 
HETATM   11  C21 UNL     1      22.189   0.304  52.633  1.00  0.00     0.045 A 
BRANCH  10  12
HETATM   12  C1  UNL     1      24.675   0.552  52.763  1.00  0.00     0.417 C 
HETATM   13  F1  UNL     1      24.507   1.061  51.507  1.00  0.00    -0.166 F 
HETATM   14  F2  UNL     1      25.622  -0.448  52.728  1.00  0.00    -0.166 F 
HETATM   15  F3  UNL     1      25.127   1.500  53.676  1.00  0.00    -0.166 F 
ENDBRANCH  10  12
ENDBRANCH   4   6
ENDBRANCH   3   4
ENDBRANCH   1   2
BRANCH   1  16
HETATM   16  N3  UNL     1      18.909   3.885  49.729  1.00  0.00    -0.264 NA
BRANCH  16  17
HETATM   17  C9  UNL     1      20.118   4.422  49.098  1.00  0.00     0.272 C 
BRANCH  17  18
HETATM   18  N4  UNL     1      21.293   3.907  49.526  1.00  0.00    -0.366 N 
HETATM   19  C10 UNL     1      22.100   3.299  48.434  1.00  0.00     0.126 C 
HETATM   20  C11 UNL     1      23.467   2.992  48.947  1.00  0.00     0.058 C 
HETATM   21  C12 UNL     1      24.395   4.023  49.311  1.00  0.00    -0.060 C 
HETATM   22  C13 UNL     1      25.542   4.571  49.257  1.00  0.00    -0.018 C 
HETATM   23  C20 UNL     1      24.474   4.211  50.847  1.00  0.00     0.007 C 
HETATM   24  C14 UNL     1      25.135   5.763  50.116  1.00  0.00     0.054 C 
HETATM   25  C15 UNL     1      23.650   6.041  50.224  1.00  0.00     0.174 C 
HETATM   26  O1  UNL     1      22.844   5.101  50.339  1.00  0.00    -0.363 OA
HETATM   27  C16 UNL     1      22.157   4.068  50.510  1.00  0.00     0.244 C 
HETATM   28  C17 UNL     1      21.905   4.004  52.007  1.00  0.00     0.026 C 
HETATM   29  C18 UNL     1      23.045   4.146  52.743  1.00  0.00     0.000 C 
HETATM   30  C19 UNL     1      24.316   4.314  52.132  1.00  0.00     0.000 C 
ENDBRANCH  17  18
ENDBRANCH  16  17
ENDBRANCH   1  16
TORSDOF 7
ENDMDL
