MODEL 1
REMARK VINA RESULT:      -6.9      0.000      0.000
REMARK  6 active torsions:
REMARK  status: ('A' for Active; 'I' for Inactive)
REMARK    1  A    between atoms: O1_2  and  C2_3 
REMARK    2  A    between atoms: N1_6  and  C5_7 
REMARK    3  A    between atoms: C5_7  and  N2_8 
REMARK    4  A    between atoms: C6_9  and  N3_10 
REMARK    5  A    between atoms: C7_11  and  N4_12 
REMARK    6  A    between atoms: N4_12  and  C9_14 
ROOT
HETATM    1  N2  UNL     1      23.526   2.407  52.310  1.00  0.00    -0.263 NA
HETATM    2  C6  UNL     1      23.045   3.379  51.611  1.00  0.00     0.229 C 
ENDROOT
BRANCH   2   3
HETATM    3  N3  UNL     1      23.720   4.628  51.865  1.00  0.00    -0.237 NA
HETATM    4  C7  UNL     1      24.157   5.237  50.791  1.00  0.00     0.211 C 
BRANCH   4   5
HETATM    5  N4  UNL     1      24.361   5.375  49.388  1.00  0.00    -0.346 N 
HETATM    6  C8  UNL     1      23.238   5.368  48.445  1.00  0.00     0.157 C 
BRANCH   5   7
HETATM    7  C9  UNL     1      25.737   5.518  48.992  1.00  0.00     0.036 A 
HETATM    8  C10 UNL     1      26.617   4.526  49.106  1.00  0.00    -0.053 A 
HETATM    9  C11 UNL     1      26.558   3.126  49.599  1.00  0.00     0.046 C 
HETATM   10  C12 UNL     1      27.955   4.977  48.614  1.00  0.00     0.063 A 
HETATM   11  C13 UNL     1      27.657   6.383  48.210  1.00  0.00    -0.020 A 
HETATM   12  C14 UNL     1      26.379   6.698  48.427  1.00  0.00     0.026 A 
ENDBRANCH   5   7
ENDBRANCH   4   5
ENDBRANCH   2   3
BRANCH   1  13
HETATM   13  C5  UNL     1      24.625   2.711  53.205  1.00  0.00     0.274 C 
BRANCH  13  14
HETATM   14  N1  UNL     1      25.577   1.622  53.278  1.00  0.00    -0.369 N 
HETATM   15  C4  UNL     1      25.134   0.306  52.856  1.00  0.00     0.154 A 
HETATM   16  C3  UNL     1      26.181  -0.712  52.974  1.00  0.00     0.029 A 
HETATM   17  C2  UNL     1      27.406  -0.475  53.416  1.00  0.00     0.067 A 
HETATM   18  C16 UNL     1      27.770   0.894  53.823  1.00  0.00     0.053 A 
HETATM   19  C15 UNL     1      26.875   1.867  53.745  1.00  0.00     0.090 A 
BRANCH  17  20
HETATM   20  O1  UNL     1      28.423  -1.411  53.542  1.00  0.00    -0.356 OA
HETATM   21  C1  UNL     1      29.751  -0.932  53.601  1.00  0.00     0.210 C 
ENDBRANCH  17  20
ENDBRANCH  13  14
ENDBRANCH   1  13
TORSDOF 6
ENDMDL
MODEL 2
REMARK VINA RESULT:      -6.7      2.460      6.738
REMARK  6 active torsions:
REMARK  status: ('A' for Active; 'I' for Inactive)
REMARK    1  A    between atoms: O1_2  and  C2_3 
REMARK    2  A    between atoms: N1_6  and  C5_7 
REMARK    3  A    between atoms: C5_7  and  N2_8 
REMARK    4  A    between atoms: C6_9  and  N3_10 
REMARK    5  A    between atoms: C7_11  and  N4_12 
REMARK    6  A    between atoms: N4_12  and  C9_14 
ROOT
HETATM    1  N2  UNL     1      24.151   3.621  51.976  1.00  0.00    -0.263 NA
HETATM    2  C6  UNL     1      24.412   2.587  52.702  1.00  0.00     0.229 C 
ENDROOT
BRANCH   2   3
HETATM    3  N3  UNL     1      24.634   1.400  51.913  1.00  0.00    -0.237 NA
HETATM    4  C7  UNL     1      25.242   0.430  52.552  1.00  0.00     0.211 C 
BRANCH   4   5
HETATM    5  N4  UNL     1      25.863  -0.167  53.685  1.00  0.00    -0.346 N 
HETATM    6  C8  UNL     1      25.073  -0.753  54.773  1.00  0.00     0.157 C 
BRANCH   5   7
HETATM    7  C9  UNL     1      27.302  -0.143  53.665  1.00  0.00     0.036 A 
HETATM    8  C10 UNL     1      28.024  -1.175  53.236  1.00  0.00    -0.053 A 
HETATM    9  C11 UNL     1      27.708  -2.524  52.702  1.00  0.00     0.046 C 
HETATM   10  C12 UNL     1      29.481  -0.851  53.336  1.00  0.00     0.063 A 
HETATM   11  C13 UNL     1      29.432   0.534  53.891  1.00  0.00    -0.020 A 
HETATM   12  C14 UNL     1      28.177   0.945  54.083  1.00  0.00     0.026 A 
ENDBRANCH   5   7
ENDBRANCH   4   5
ENDBRANCH   2   3
BRANCH   1  13
HETATM   13  C5  UNL     1      24.124   3.435  50.538  1.00  0.00     0.274 C 
BRANCH  13  14
HETATM   14  N1  UNL     1      25.141   4.224  49.874  1.00  0.00    -0.369 N 
HETATM   15  C4  UNL     1      26.419   3.593  49.607  1.00  0.00     0.154 A 
HETATM   16  C3  UNL     1      27.364   4.487  48.933  1.00  0.00     0.029 A 
HETATM   17  C2  UNL     1      27.098   5.739  48.596  1.00  0.00     0.067 A 
HETATM   18  C16 UNL     1      25.770   6.298  48.905  1.00  0.00     0.053 A 
HETATM   19  C15 UNL     1      24.863   5.549  49.515  1.00  0.00     0.090 A 
BRANCH  17  20
HETATM   20  O1  UNL     1      27.965   6.614  47.957  1.00  0.00    -0.356 OA
HETATM   21  C1  UNL     1      29.321   6.234  47.853  1.00  0.00     0.210 C 
ENDBRANCH  17  20
ENDBRANCH  13  14
ENDBRANCH   1  13
TORSDOF 6
ENDMDL
MODEL 3
REMARK VINA RESULT:      -6.7      2.811      4.924
REMARK  6 active torsions:
REMARK  status: ('A' for Active; 'I' for Inactive)
REMARK    1  A    between atoms: O1_2  and  C2_3 
REMARK    2  A    between atoms: N1_6  and  C5_7 
REMARK    3  A    between atoms: C5_7  and  N2_8 
REMARK    4  A    between atoms: C6_9  and  N3_10 
REMARK    5  A    between atoms: C7_11  and  N4_12 
REMARK    6  A    between atoms: N4_12  and  C9_14 
ROOT
HETATM    1  N2  UNL     1      26.744   1.348  54.393  1.00  0.00    -0.263 NA
HETATM    2  C6  UNL     1      27.122   2.150  53.455  1.00  0.00     0.229 C 
ENDROOT
BRANCH   2   3
HETATM    3  N3  UNL     1      27.192   1.502  52.169  1.00  0.00    -0.237 NA
HETATM    4  C7  UNL     1      26.587   2.148  51.203  1.00  0.00     0.211 C 
BRANCH   4   5
HETATM    5  N4  UNL     1      25.831   3.224  50.657  1.00  0.00    -0.346 N 
HETATM    6  C8  UNL     1      26.425   4.178  49.713  1.00  0.00     0.157 C 
BRANCH   5   7
HETATM    7  C9  UNL     1      24.465   3.288  51.104  1.00  0.00     0.036 A 
HETATM    8  C10 UNL     1      23.439   3.033  50.296  1.00  0.00    -0.053 A 
HETATM    9  C11 UNL     1      23.302   2.649  48.868  1.00  0.00     0.046 C 
HETATM   10  C12 UNL     1      22.154   3.181  51.047  1.00  0.00     0.063 A 
HETATM   11  C13 UNL     1      22.652   3.559  52.402  1.00  0.00    -0.020 A 
HETATM   12  C14 UNL     1      23.984   3.623  52.439  1.00  0.00     0.026 A 
ENDBRANCH   5   7
ENDBRANCH   4   5
ENDBRANCH   2   3
BRANCH   1  13
HETATM   13  C5  UNL     1      26.460  -0.024  54.020  1.00  0.00     0.274 C 
BRANCH  13  14
HETATM   14  N1  UNL     1      25.078  -0.375  54.273  1.00  0.00    -0.369 N 
HETATM   15  C4  UNL     1      24.785  -1.160  55.458  1.00  0.00     0.154 A 
HETATM   16  C3  UNL     1      23.357  -1.452  55.607  1.00  0.00     0.029 A 
HETATM   17  C2  UNL     1      22.420  -1.052  54.762  1.00  0.00     0.067 A 
HETATM   18  C16 UNL     1      22.809  -0.256  53.585  1.00  0.00     0.053 A 
HETATM   19  C15 UNL     1      24.082   0.047  53.382  1.00  0.00     0.090 A 
BRANCH  17  20
HETATM   20  O1  UNL     1      21.061  -1.308  54.871  1.00  0.00    -0.356 OA
HETATM   21  C1  UNL     1      20.243  -0.990  53.763  1.00  0.00     0.210 C 
ENDBRANCH  17  20
ENDBRANCH  13  14
ENDBRANCH   1  13
TORSDOF 6
ENDMDL
MODEL 4
REMARK VINA RESULT:      -6.5      3.995      6.957
REMARK  6 active torsions:
REMARK  status: ('A' for Active; 'I' for Inactive)
REMARK    1  A    between atoms: O1_2  and  C2_3 
REMARK    2  A    between atoms: N1_6  and  C5_7 
REMARK    3  A    between atoms: C5_7  and  N2_8 
REMARK    4  A    between atoms: C6_9  and  N3_10 
REMARK    5  A    between atoms: C7_11  and  N4_12 
REMARK    6  A    between atoms: N4_12  and  C9_14 
ROOT
HETATM    1  N2  UNL     1      23.276   2.710  52.481  1.00  0.00    -0.263 NA
HETATM    2  C6  UNL     1      24.557   2.620  52.603  1.00  0.00     0.229 C 
ENDROOT
BRANCH   2   3
HETATM    3  N3  UNL     1      25.128   1.646  51.706  1.00  0.00    -0.237 NA
HETATM    4  C7  UNL     1      25.781   0.678  52.301  1.00  0.00     0.211 C 
BRANCH   4   5
HETATM    5  N4  UNL     1      26.290  -0.018  53.434  1.00  0.00    -0.346 N 
HETATM    6  C8  UNL     1      25.408  -0.480  54.511  1.00  0.00     0.157 C 
BRANCH   5   7
HETATM    7  C9  UNL     1      27.715  -0.222  53.425  1.00  0.00     0.036 A 
HETATM    8  C10 UNL     1      28.578   0.784  53.544  1.00  0.00    -0.053 A 
HETATM    9  C11 UNL     1      28.454   2.256  53.704  1.00  0.00     0.046 C 
HETATM   10  C12 UNL     1      29.977   0.259  53.499  1.00  0.00     0.063 A 
HETATM   11  C13 UNL     1      29.733  -1.204  53.336  1.00  0.00    -0.020 A 
HETATM   12  C14 UNL     1      28.430  -1.485  53.292  1.00  0.00     0.026 A 
ENDBRANCH   5   7
ENDBRANCH   4   5
ENDBRANCH   2   3
BRANCH   1  13
HETATM   13  C5  UNL     1      22.637   1.855  51.501  1.00  0.00     0.274 C 
BRANCH  13  14
HETATM   14  N1  UNL     1      21.599   1.037  52.093  1.00  0.00    -0.369 N 
HETATM   15  C4  UNL     1      21.913   0.329  53.320  1.00  0.00     0.154 A 
HETATM   16  C3  UNL     1      20.787  -0.462  53.824  1.00  0.00     0.029 A 
HETATM   17  C2  UNL     1      19.604  -0.535  53.236  1.00  0.00     0.067 A 
HETATM   18  C16 UNL     1      19.373   0.219  51.992  1.00  0.00     0.053 A 
HETATM   19  C15 UNL     1      20.344   0.957  51.475  1.00  0.00     0.090 A 
BRANCH  17  20
HETATM   20  O1  UNL     1      18.515  -1.272  53.682  1.00  0.00    -0.356 OA
HETATM   21  C1  UNL     1      17.342  -1.251  52.895  1.00  0.00     0.210 C 
ENDBRANCH  17  20
ENDBRANCH  13  14
ENDBRANCH   1  13
TORSDOF 6
ENDMDL
MODEL 5
REMARK VINA RESULT:      -6.4      2.771      5.568
REMARK  6 active torsions:
REMARK  status: ('A' for Active; 'I' for Inactive)
REMARK    1  A    between atoms: O1_2  and  C2_3 
REMARK    2  A    between atoms: N1_6  and  C5_7 
REMARK    3  A    between atoms: C5_7  and  N2_8 
REMARK    4  A    between atoms: C6_9  and  N3_10 
REMARK    5  A    between atoms: C7_11  and  N4_12 
REMARK    6  A    between atoms: N4_12  and  C9_14 
ROOT
HETATM    1  N2  UNL     1      24.672   3.017  51.393  1.00  0.00    -0.263 NA
HETATM    2  C6  UNL     1      23.511   3.411  50.991  1.00  0.00     0.229 C 
ENDROOT
BRANCH   2   3
HETATM    3  N3  UNL     1      22.551   3.483  52.064  1.00  0.00    -0.237 NA
HETATM    4  C7  UNL     1      21.758   2.443  52.152  1.00  0.00     0.211 C 
BRANCH   4   5
HETATM    5  N4  UNL     1      21.266   1.168  51.752  1.00  0.00    -0.346 N 
HETATM    6  C8  UNL     1      20.648   0.963  50.438  1.00  0.00     0.157 C 
BRANCH   5   7
HETATM    7  C9  UNL     1      21.426   0.126  52.732  1.00  0.00     0.036 A 
HETATM    8  C10 UNL     1      20.392  -0.551  53.225  1.00  0.00    -0.053 A 
HETATM    9  C11 UNL     1      18.923  -0.520  53.012  1.00  0.00     0.046 C 
HETATM   10  C12 UNL     1      20.875  -1.561  54.217  1.00  0.00     0.063 A 
HETATM   11  C13 UNL     1      22.348  -1.322  54.181  1.00  0.00    -0.020 A 
HETATM   12  C14 UNL     1      22.669  -0.349  53.326  1.00  0.00     0.026 A 
ENDBRANCH   5   7
ENDBRANCH   4   5
ENDBRANCH   2   3
BRANCH   1  13
HETATM   13  C5  UNL     1      24.823   2.721  52.804  1.00  0.00     0.274 C 
BRANCH  13  14
HETATM   14  N1  UNL     1      25.753   1.633  53.030  1.00  0.00    -0.369 N 
HETATM   15  C4  UNL     1      26.045   0.751  51.916  1.00  0.00     0.154 A 
HETATM   16  C3  UNL     1      26.996  -0.308  52.265  1.00  0.00     0.029 A 
HETATM   17  C2  UNL     1      27.540  -0.458  53.462  1.00  0.00     0.067 A 
HETATM   18  C16 UNL     1      27.186   0.487  54.535  1.00  0.00     0.053 A 
HETATM   19  C15 UNL     1      26.332   1.470  54.295  1.00  0.00     0.090 A 
BRANCH  17  20
HETATM   20  O1  UNL     1      28.443  -1.446  53.829  1.00  0.00    -0.356 OA
HETATM   21  C1  UNL     1      29.792  -1.278  53.446  1.00  0.00     0.210 C 
ENDBRANCH  17  20
ENDBRANCH  13  14
ENDBRANCH   1  13
TORSDOF 6
ENDMDL
MODEL 6
REMARK VINA RESULT:      -6.2      1.071      2.063
REMARK  6 active torsions:
REMARK  status: ('A' for Active; 'I' for Inactive)
REMARK    1  A    between atoms: O1_2  and  C2_3 
REMARK    2  A    between atoms: N1_6  and  C5_7 
REMARK    3  A    between atoms: C5_7  and  N2_8 
REMARK    4  A    between atoms: C6_9  and  N3_10 
REMARK    5  A    between atoms: C7_11  and  N4_12 
REMARK    6  A    between atoms: N4_12  and  C9_14 
ROOT
HETATM    1  N2  UNL     1      22.932   2.574  52.763  1.00  0.00    -0.263 NA
HETATM    2  C6  UNL     1      22.662   3.618  52.054  1.00  0.00     0.229 C 
ENDROOT
BRANCH   2   3
HETATM    3  N3  UNL     1      23.014   3.448  50.666  1.00  0.00    -0.237 NA
HETATM    4  C7  UNL     1      23.821   4.366  50.195  1.00  0.00     0.211 C 
BRANCH   4   5
HETATM    5  N4  UNL     1      24.618   5.543  50.287  1.00  0.00    -0.346 N 
HETATM    6  C8  UNL     1      24.189   6.700  51.081  1.00  0.00     0.157 C 
BRANCH   5   7
HETATM    7  C9  UNL     1      25.852   5.493  49.549  1.00  0.00     0.036 A 
HETATM    8  C10 UNL     1      26.326   6.544  48.885  1.00  0.00    -0.053 A 
HETATM    9  C11 UNL     1      25.867   7.940  48.669  1.00  0.00     0.046 C 
HETATM   10  C12 UNL     1      27.617   6.184  48.222  1.00  0.00     0.063 A 
HETATM   11  C13 UNL     1      27.770   4.759  48.637  1.00  0.00    -0.020 A 
HETATM   12  C14 UNL     1      26.753   4.357  49.402  1.00  0.00     0.026 A 
ENDBRANCH   5   7
ENDBRANCH   4   5
ENDBRANCH   2   3
BRANCH   1  13
HETATM   13  C5  UNL     1      23.522   1.440  52.081  1.00  0.00     0.274 C 
BRANCH  13  14
HETATM   14  N1  UNL     1      24.727   0.980  52.741  1.00  0.00    -0.369 N 
HETATM   15  C4  UNL     1      25.825   1.919  52.875  1.00  0.00     0.154 A 
HETATM   16  C3  UNL     1      26.986   1.342  53.558  1.00  0.00     0.029 A 
HETATM   17  C2  UNL     1      27.044   0.099  54.012  1.00  0.00     0.067 A 
HETATM   18  C16 UNL     1      25.879  -0.785  53.833  1.00  0.00     0.053 A 
HETATM   19  C15 UNL     1      24.793  -0.333  53.224  1.00  0.00     0.090 A 
BRANCH  17  20
HETATM   20  O1  UNL     1      28.123  -0.481  54.663  1.00  0.00    -0.356 OA
HETATM   21  C1  UNL     1      29.367  -0.487  53.994  1.00  0.00     0.210 C 
ENDBRANCH  17  20
ENDBRANCH  13  14
ENDBRANCH   1  13
TORSDOF 6
ENDMDL
MODEL 7
REMARK VINA RESULT:      -6.2      2.342      6.252
REMARK  6 active torsions:
REMARK  status: ('A' for Active; 'I' for Inactive)
REMARK    1  A    between atoms: O1_2  and  C2_3 
REMARK    2  A    between atoms: N1_6  and  C5_7 
REMARK    3  A    between atoms: C5_7  and  N2_8 
REMARK    4  A    between atoms: C6_9  and  N3_10 
REMARK    5  A    between atoms: C7_11  and  N4_12 
REMARK    6  A    between atoms: N4_12  and  C9_14 
ROOT
HETATM    1  N2  UNL     1      22.666   3.076  49.749  1.00  0.00    -0.263 NA
HETATM    2  C6  UNL     1      22.292   2.188  50.607  1.00  0.00     0.229 C 
ENDROOT
BRANCH   2   3
HETATM    3  N3  UNL     1      22.578   2.578  51.965  1.00  0.00    -0.237 NA
HETATM    4  C7  UNL     1      23.060   1.618  52.716  1.00  0.00     0.211 C 
BRANCH   4   5
HETATM    5  N4  UNL     1      23.499   0.288  52.970  1.00  0.00    -0.346 N 
HETATM    6  C8  UNL     1      22.548  -0.819  53.123  1.00  0.00     0.157 C 
BRANCH   5   7
HETATM    7  C9  UNL     1      24.927   0.132  53.062  1.00  0.00     0.036 A 
HETATM    8  C10 UNL     1      25.517  -0.399  54.129  1.00  0.00    -0.053 A 
HETATM    9  C11 UNL     1      25.041  -0.947  55.425  1.00  0.00     0.046 C 
HETATM   10  C12 UNL     1      26.999  -0.425  53.928  1.00  0.00     0.063 A 
HETATM   11  C13 UNL     1      27.118   0.180  52.569  1.00  0.00    -0.020 A 
HETATM   12  C14 UNL     1      25.925   0.504  52.067  1.00  0.00     0.026 A 
ENDBRANCH   5   7
ENDBRANCH   4   5
ENDBRANCH   2   3
BRANCH   1  13
HETATM   13  C5  UNL     1      23.288   4.280  50.265  1.00  0.00     0.274 C 
BRANCH  13  14
HETATM   14  N1  UNL     1      24.654   4.420  49.804  1.00  0.00    -0.369 N 
HETATM   15  C4  UNL     1      25.517   3.255  49.881  1.00  0.00     0.154 A 
HETATM   16  C3  UNL     1      26.871   3.518  49.387  1.00  0.00     0.029 A 
HETATM   17  C2  UNL     1      27.281   4.686  48.918  1.00  0.00     0.067 A 
HETATM   18  C16 UNL     1      26.336   5.815  48.876  1.00  0.00     0.053 A 
HETATM   19  C15 UNL     1      25.094   5.653  49.306  1.00  0.00     0.090 A 
BRANCH  17  20
HETATM   20  O1  UNL     1      28.553   4.972  48.442  1.00  0.00    -0.356 OA
HETATM   21  C1  UNL     1      28.798   6.281  47.972  1.00  0.00     0.210 C 
ENDBRANCH  17  20
ENDBRANCH  13  14
ENDBRANCH   1  13
TORSDOF 6
ENDMDL
MODEL 8
REMARK VINA RESULT:      -6.1      3.122      7.554
REMARK  6 active torsions:
REMARK  status: ('A' for Active; 'I' for Inactive)
REMARK    1  A    between atoms: O1_2  and  C2_3 
REMARK    2  A    between atoms: N1_6  and  C5_7 
REMARK    3  A    between atoms: C5_7  and  N2_8 
REMARK    4  A    between atoms: C6_9  and  N3_10 
REMARK    5  A    between atoms: C7_11  and  N4_12 
REMARK    6  A    between atoms: N4_12  and  C9_14 
ROOT
HETATM    1  N2  UNL     1      24.002   3.577  50.120  1.00  0.00    -0.263 NA
HETATM    2  C6  UNL     1      23.997   2.506  50.839  1.00  0.00     0.229 C 
ENDROOT
BRANCH   2   3
HETATM    3  N3  UNL     1      24.468   2.740  52.182  1.00  0.00    -0.237 NA
HETATM    4  C7  UNL     1      24.566   1.661  52.919  1.00  0.00     0.211 C 
BRANCH   4   5
HETATM    5  N4  UNL     1      24.460   0.262  53.164  1.00  0.00    -0.346 N 
HETATM    6  C8  UNL     1      25.639  -0.611  53.149  1.00  0.00     0.157 C 
BRANCH   5   7
HETATM    7  C9  UNL     1      23.124  -0.204  53.423  1.00  0.00     0.036 A 
HETATM    8  C10 UNL     1      22.809  -0.887  54.521  1.00  0.00    -0.053 A 
HETATM    9  C11 UNL     1      23.562  -1.362  55.710  1.00  0.00     0.046 C 
HETATM   10  C12 UNL     1      21.354  -1.231  54.504  1.00  0.00     0.063 A 
HETATM   11  C13 UNL     1      20.926  -0.619  53.211  1.00  0.00    -0.020 A 
HETATM   12  C14 UNL     1      21.945  -0.027  52.585  1.00  0.00     0.026 A 
ENDBRANCH   5   7
ENDBRANCH   4   5
ENDBRANCH   2   3
BRANCH   1  13
HETATM   13  C5  UNL     1      24.459   4.800  50.751  1.00  0.00     0.274 C 
BRANCH  13  14
HETATM   14  N1  UNL     1      25.531   5.424  50.002  1.00  0.00    -0.369 N 
HETATM   15  C4  UNL     1      25.620   6.872  50.026  1.00  0.00     0.154 A 
HETATM   16  C3  UNL     1      26.741   7.385  49.235  1.00  0.00     0.029 A 
HETATM   17  C2  UNL     1      27.591   6.625  48.564  1.00  0.00     0.067 A 
HETATM   18  C16 UNL     1      27.426   5.162  48.596  1.00  0.00     0.053 A 
HETATM   19  C15 UNL     1      26.434   4.624  49.290  1.00  0.00     0.090 A 
BRANCH  17  20
HETATM   20  O1  UNL     1      28.663   7.075  47.805  1.00  0.00    -0.356 OA
HETATM   21  C1  UNL     1      28.381   7.910  46.702  1.00  0.00     0.210 C 
ENDBRANCH  17  20
ENDBRANCH  13  14
ENDBRANCH   1  13
TORSDOF 6
ENDMDL
MODEL 9
REMARK VINA RESULT:      -6.1      3.322      6.893
REMARK  6 active torsions:
REMARK  status: ('A' for Active; 'I' for Inactive)
REMARK    1  A    between atoms: O1_2  and  C2_3 
REMARK    2  A    between atoms: N1_6  and  C5_7 
REMARK    3  A    between atoms: C5_7  and  N2_8 
REMARK    4  A    between atoms: C6_9  and  N3_10 
REMARK    5  A    between atoms: C7_11  and  N4_12 
REMARK    6  A    between atoms: N4_12  and  C9_14 
ROOT
HETATM    1  N2  UNL     1      22.489   4.996  50.006  1.00  0.00    -0.263 NA
HETATM    2  C6  UNL     1      21.662   4.152  50.524  1.00  0.00     0.229 C 
ENDROOT
BRANCH   2   3
HETATM    3  N3  UNL     1      22.010   3.799  51.878  1.00  0.00    -0.237 NA
HETATM    4  C7  UNL     1      21.974   2.513  52.130  1.00  0.00     0.211 C 
BRANCH   4   5
HETATM    5  N4  UNL     1      21.767   1.146  51.791  1.00  0.00    -0.346 N 
HETATM    6  C8  UNL     1      21.442   0.735  50.421  1.00  0.00     0.157 C 
BRANCH   5   7
HETATM    7  C9  UNL     1      21.904   0.226  52.890  1.00  0.00     0.036 A 
HETATM    8  C10 UNL     1      20.863  -0.419  53.411  1.00  0.00    -0.053 A 
HETATM    9  C11 UNL     1      19.405  -0.451  53.130  1.00  0.00     0.046 C 
HETATM   10  C12 UNL     1      21.320  -1.296  54.532  1.00  0.00     0.063 A 
HETATM   11  C13 UNL     1      22.788  -1.023  54.534  1.00  0.00    -0.020 A 
HETATM   12  C14 UNL     1      23.127  -0.145  53.589  1.00  0.00     0.026 A 
ENDBRANCH   5   7
ENDBRANCH   4   5
ENDBRANCH   2   3
BRANCH   1  13
HETATM   13  C5  UNL     1      23.593   5.440  50.834  1.00  0.00     0.274 C 
BRANCH  13  14
HETATM   14  N1  UNL     1      24.871   5.226  50.188  1.00  0.00    -0.369 N 
HETATM   15  C4  UNL     1      25.377   3.867  50.124  1.00  0.00     0.154 A 
HETATM   16  C3  UNL     1      26.674   3.776  49.448  1.00  0.00     0.029 A 
HETATM   17  C2  UNL     1      27.329   4.810  48.945  1.00  0.00     0.067 A 
HETATM   18  C16 UNL     1      26.739   6.155  49.054  1.00  0.00     0.053 A 
HETATM   19  C15 UNL     1      25.568   6.317  49.653  1.00  0.00     0.090 A 
BRANCH  17  20
HETATM   20  O1  UNL     1      28.557   4.762  48.300  1.00  0.00    -0.356 OA
HETATM   21  C1  UNL     1      29.186   5.990  47.995  1.00  0.00     0.210 C 
ENDBRANCH  17  20
ENDBRANCH  13  14
ENDBRANCH   1  13
TORSDOF 6
ENDMDL
