MODEL 1
REMARK VINA RESULT:      -8.1      0.000      0.000
REMARK  4 active torsions:
REMARK  status: ('A' for Active; 'I' for Inactive)
REMARK    1  A    between atoms: O1_2  and  C2_3 
REMARK    2  A    between atoms: C5_6  and  C6_7 
REMARK    3  A    between atoms: N1_9  and  C8_10 
REMARK    4  A    between atoms: C10_12  and  C11_13 
ROOT
HETATM    1  C6  UNL     1      24.597   0.580  53.313  1.00  0.00     0.075 C 
HETATM    2  C7  UNL     1      24.953   1.278  52.253  1.00  0.00     0.121 C 
HETATM    3  N1  UNL     1      26.270   1.848  52.100  1.00  0.00    -0.343 N 
HETATM    4  C12 UNL     1      27.097   1.918  53.312  1.00  0.00     0.255 C 
HETATM    5  N2  UNL     1      27.597   0.830  52.833  1.00  0.00    -0.251 NA
HETATM    6  C13 UNL     1      28.640   0.257  53.650  1.00  0.00     0.253 C 
HETATM    7  N3  UNL     1      27.984  -0.443  54.498  1.00  0.00    -0.153 NA
HETATM    8  N4  UNL     1      26.588  -0.534  54.503  1.00  0.00    -0.218 N 
HETATM    9  N5  UNL     1      25.516   0.354  54.374  1.00  0.00    -0.283 N 
HETATM   10  H10 UNL     1      25.940  -1.343  54.612  1.00  0.00     0.210 HD
HETATM   11  H11 UNL     1      25.242   1.013  55.113  1.00  0.00     0.188 HD
ENDROOT
BRANCH   1  12
HETATM   12  C5  UNL     1      23.267   0.007  53.464  1.00  0.00    -0.006 A 
HETATM   13  C4  UNL     1      22.209   0.364  52.646  1.00  0.00     0.016 A 
HETATM   14  C3  UNL     1      20.948  -0.162  52.768  1.00  0.00     0.037 A 
HETATM   15  C2  UNL     1      20.670  -1.094  53.735  1.00  0.00     0.068 A 
HETATM   16  C15 UNL     1      21.685  -1.485  54.577  1.00  0.00     0.037 A 
HETATM   17  C14 UNL     1      22.926  -0.930  54.412  1.00  0.00     0.016 A 
BRANCH  15  18
HETATM   18  O1  UNL     1      19.396  -1.628  53.862  1.00  0.00    -0.356 OA
HETATM   19  C1  UNL     1      18.343  -1.043  53.140  1.00  0.00     0.210 C 
ENDBRANCH  15  18
ENDBRANCH   1  12
BRANCH   3  20
HETATM   20  C8  UNL     1      26.680   2.296  50.784  1.00  0.00     0.095 A 
HETATM   21  C9  UNL     1      25.809   4.022  50.224  1.00  0.00     0.087 A 
HETATM   22  C10 UNL     1      26.137   3.385  50.419  1.00  0.00    -0.029 A 
HETATM   23  C11 UNL     1      26.361   2.940  50.563  1.00  0.00    -0.029 A 
ENDBRANCH   3  20
TORSDOF 4
ENDMDL
MODEL 2
REMARK VINA RESULT:      -7.5      3.239      6.272
REMARK  4 active torsions:
REMARK  status: ('A' for Active; 'I' for Inactive)
REMARK    1  A    between atoms: O1_2  and  C2_3 
REMARK    2  A    between atoms: C5_6  and  C6_7 
REMARK    3  A    between atoms: N1_9  and  C8_10 
REMARK    4  A    between atoms: C10_12  and  C11_13 
ROOT
HETATM    1  C6  UNL     1      25.749   1.970  52.107  1.00  0.00     0.075 C 
HETATM    2  C7  UNL     1      26.716   1.076  52.164  1.00  0.00     0.121 C 
HETATM    3  N1  UNL     1      26.733   0.006  53.130  1.00  0.00    -0.343 N 
HETATM    4  C12 UNL     1      25.816   0.138  54.270  1.00  0.00     0.255 C 
HETATM    5  N2  UNL     1      25.073  -0.630  53.547  1.00  0.00    -0.251 NA
HETATM    6  C13 UNL     1      23.807  -0.960  54.158  1.00  0.00     0.253 C 
HETATM    7  N3  UNL     1      23.066   0.031  53.828  1.00  0.00    -0.153 NA
HETATM    8  N4  UNL     1      23.518   1.105  53.054  1.00  0.00    -0.218 N 
HETATM    9  N5  UNL     1      24.656   1.915  53.016  1.00  0.00    -0.283 N 
HETATM   10  H10 UNL     1      23.095   1.615  52.250  1.00  0.00     0.210 HD
HETATM   11  H11 UNL     1      24.852   2.641  53.717  1.00  0.00     0.188 HD
ENDROOT
BRANCH   1  12
HETATM   12  C5  UNL     1      25.735   3.051  51.131  1.00  0.00    -0.006 A 
HETATM   13  C4  UNL     1      24.734   4.006  51.097  1.00  0.00     0.016 A 
HETATM   14  C3  UNL     1      24.700   5.032  50.189  1.00  0.00     0.037 A 
HETATM   15  C2  UNL     1      25.685   5.164  49.243  1.00  0.00     0.068 A 
HETATM   16  C15 UNL     1      26.705   4.241  49.231  1.00  0.00     0.037 A 
HETATM   17  C14 UNL     1      26.693   3.236  50.160  1.00  0.00     0.016 A 
BRANCH  15  18
HETATM   18  O1  UNL     1      25.653   6.200  48.323  1.00  0.00    -0.356 OA
HETATM   19  C1  UNL     1      26.811   6.973  48.133  1.00  0.00     0.210 C 
ENDBRANCH  15  18
ENDBRANCH   1  12
BRANCH   3  20
HETATM   20  C8  UNL     1      27.632  -1.110  52.909  1.00  0.00     0.095 A 
HETATM   21  C9  UNL     1      29.479  -0.802  53.648  1.00  0.00     0.087 A 
HETATM   22  C10 UNL     1      28.801  -0.928  53.371  1.00  0.00    -0.029 A 
HETATM   23  C11 UNL     1      28.325  -1.007  53.180  1.00  0.00    -0.029 A 
ENDBRANCH   3  20
TORSDOF 4
ENDMDL
MODEL 3
REMARK VINA RESULT:      -7.5      4.385      6.045
REMARK  4 active torsions:
REMARK  status: ('A' for Active; 'I' for Inactive)
REMARK    1  A    between atoms: O1_2  and  C2_3 
REMARK    2  A    between atoms: C5_6  and  C6_7 
REMARK    3  A    between atoms: N1_9  and  C8_10 
REMARK    4  A    between atoms: C10_12  and  C11_13 
ROOT
HETATM    1  C6  UNL     1      25.772   2.613  51.041  1.00  0.00     0.075 C 
HETATM    2  C7  UNL     1      26.327   3.598  50.363  1.00  0.00     0.121 C 
HETATM    3  N1  UNL     1      25.563   4.514  49.552  1.00  0.00    -0.343 N 
HETATM    4  C12 UNL     1      24.187   4.112  49.230  1.00  0.00     0.255 C 
HETATM    5  N2  UNL     1      23.907   4.882  50.226  1.00  0.00    -0.251 NA
HETATM    6  C13 UNL     1      22.495   4.969  50.516  1.00  0.00     0.253 C 
HETATM    7  N3  UNL     1      22.297   3.955  51.273  1.00  0.00    -0.153 NA
HETATM    8  N4  UNL     1      23.310   3.064  51.643  1.00  0.00    -0.218 N 
HETATM    9  N5  UNL     1      24.365   2.408  51.001  1.00  0.00    -0.283 N 
HETATM   10  H10 UNL     1      23.559   2.628  52.556  1.00  0.00     0.210 HD
HETATM   11  H11 UNL     1      24.226   1.617  50.360  1.00  0.00     0.188 HD
ENDROOT
BRANCH   1  12
HETATM   12  C5  UNL     1      26.545   1.690  51.859  1.00  0.00    -0.006 A 
HETATM   13  C4  UNL     1      26.289   0.330  51.885  1.00  0.00     0.016 A 
HETATM   14  C3  UNL     1      27.004  -0.559  52.646  1.00  0.00     0.037 A 
HETATM   15  C2  UNL     1      28.036  -0.129  53.440  1.00  0.00     0.068 A 
HETATM   16  C15 UNL     1      28.334   1.214  53.453  1.00  0.00     0.037 A 
HETATM   17  C14 UNL     1      27.591   2.059  52.675  1.00  0.00     0.016 A 
BRANCH  15  18
HETATM   18  O1  UNL     1      28.761  -1.026  54.211  1.00  0.00    -0.356 OA
HETATM   19  C1  UNL     1      30.072  -1.346  53.823  1.00  0.00     0.210 C 
ENDBRANCH  15  18
ENDBRANCH   1  12
BRANCH   3  20
HETATM   20  C8  UNL     1      26.193   5.749  49.125  1.00  0.00     0.095 A 
HETATM   21  C9  UNL     1      27.994   5.469  48.272  1.00  0.00     0.087 A 
HETATM   22  C10 UNL     1      27.331   5.585  48.585  1.00  0.00    -0.029 A 
HETATM   23  C11 UNL     1      26.867   5.657  48.805  1.00  0.00    -0.029 A 
ENDBRANCH   3  20
TORSDOF 4
ENDMDL
MODEL 4
REMARK VINA RESULT:      -7.4      3.830      6.376
REMARK  4 active torsions:
REMARK  status: ('A' for Active; 'I' for Inactive)
REMARK    1  A    between atoms: O1_2  and  C2_3 
REMARK    2  A    between atoms: C5_6  and  C6_7 
REMARK    3  A    between atoms: N1_9  and  C8_10 
REMARK    4  A    between atoms: C10_12  and  C11_13 
ROOT
HETATM    1  C6  UNL     1      25.308   2.343  51.604  1.00  0.00     0.075 C 
HETATM    2  C7  UNL     1      24.254   1.732  51.102  1.00  0.00     0.121 C 
HETATM    3  N1  UNL     1      23.191   2.436  50.428  1.00  0.00    -0.343 N 
HETATM    4  C12 UNL     1      23.150   3.892  50.614  1.00  0.00     0.255 C 
HETATM    5  N2  UNL     1      23.762   3.887  49.479  1.00  0.00    -0.251 NA
HETATM    6  C13 UNL     1      24.081   5.205  48.982  1.00  0.00     0.253 C 
HETATM    7  N3  UNL     1      25.197   5.462  49.558  1.00  0.00    -0.153 NA
HETATM    8  N4  UNL     1      25.831   4.575  50.434  1.00  0.00    -0.218 N 
HETATM    9  N5  UNL     1      25.446   3.755  51.498  1.00  0.00    -0.283 N 
HETATM   10  H10 UNL     1      26.825   4.275  50.527  1.00  0.00     0.210 HD
HETATM   11  H11 UNL     1      25.192   4.121  52.424  1.00  0.00     0.188 HD
ENDROOT
BRANCH   1  12
HETATM   12  C5  UNL     1      26.379   1.630  52.284  1.00  0.00    -0.006 A 
HETATM   13  C4  UNL     1      26.391   0.251  52.405  1.00  0.00     0.016 A 
HETATM   14  C3  UNL     1      27.388  -0.444  53.040  1.00  0.00     0.037 A 
HETATM   15  C2  UNL     1      28.452   0.216  53.602  1.00  0.00     0.068 A 
HETATM   16  C15 UNL     1      28.491   1.588  53.512  1.00  0.00     0.037 A 
HETATM   17  C14 UNL     1      27.471   2.233  52.867  1.00  0.00     0.016 A 
BRANCH  15  18
HETATM   18  O1  UNL     1      29.462  -0.483  54.246  1.00  0.00    -0.356 OA
HETATM   19  C1  UNL     1      29.999  -1.622  53.623  1.00  0.00     0.210 C 
ENDBRANCH  15  18
ENDBRANCH   1  12
BRANCH   3  20
HETATM   20  C8  UNL     1      22.259   1.672  49.622  1.00  0.00     0.095 A 
HETATM   21  C9  UNL     1      20.949   0.606  50.716  1.00  0.00     0.087 A 
HETATM   22  C10 UNL     1      21.426   0.994  50.302  1.00  0.00    -0.029 A 
HETATM   23  C11 UNL     1      21.764   1.269  50.019  1.00  0.00    -0.029 A 
ENDBRANCH   3  20
TORSDOF 4
ENDMDL
MODEL 5
REMARK VINA RESULT:      -7.4      3.633      6.286
REMARK  4 active torsions:
REMARK  status: ('A' for Active; 'I' for Inactive)
REMARK    1  A    between atoms: O1_2  and  C2_3 
REMARK    2  A    between atoms: C5_6  and  C6_7 
REMARK    3  A    between atoms: N1_9  and  C8_10 
REMARK    4  A    between atoms: C10_12  and  C11_13 
ROOT
HETATM    1  C6  UNL     1      24.164   1.705  52.563  1.00  0.00     0.075 C 
HETATM    2  C7  UNL     1      23.169   1.141  51.907  1.00  0.00     0.121 C 
HETATM    3  N1  UNL     1      21.978   1.861  51.529  1.00  0.00    -0.343 N 
HETATM    4  C12 UNL     1      21.754   3.152  52.192  1.00  0.00     0.255 C 
HETATM    5  N2  UNL     1      22.282   3.611  51.109  1.00  0.00    -0.251 NA
HETATM    6  C13 UNL     1      22.387   5.051  51.076  1.00  0.00     0.253 C 
HETATM    7  N3  UNL     1      23.495   5.268  51.682  1.00  0.00    -0.153 NA
HETATM    8  N4  UNL     1      24.301   4.248  52.198  1.00  0.00    -0.218 N 
HETATM    9  N5  UNL     1      24.103   3.077  52.934  1.00  0.00    -0.283 N 
HETATM   10  H10 UNL     1      25.330   4.086  52.165  1.00  0.00     0.210 HD
HETATM   11  H11 UNL     1      23.867   3.076  53.934  1.00  0.00     0.188 HD
ENDROOT
BRANCH   1  12
HETATM   12  C5  UNL     1      25.365   0.976  52.944  1.00  0.00    -0.006 A 
HETATM   13  C4  UNL     1      26.040   1.225  54.127  1.00  0.00     0.016 A 
HETATM   14  C3  UNL     1      27.172   0.552  54.508  1.00  0.00     0.037 A 
HETATM   15  C2  UNL     1      27.704  -0.429  53.711  1.00  0.00     0.068 A 
HETATM   16  C15 UNL     1      27.074  -0.719  52.523  1.00  0.00     0.037 A 
HETATM   17  C14 UNL     1      25.946  -0.018  52.190  1.00  0.00     0.016 A 
BRANCH  15  18
HETATM   18  O1  UNL     1      28.849  -1.112  54.093  1.00  0.00    -0.356 OA
HETATM   19  C1  UNL     1      30.086  -0.706  53.566  1.00  0.00     0.210 C 
ENDBRANCH  15  18
ENDBRANCH   1  12
BRANCH   3  20
HETATM   20  C8  UNL     1      21.104   1.274  50.532  1.00  0.00     0.095 A 
HETATM   21  C9  UNL     1      19.575   0.234  51.328  1.00  0.00     0.087 A 
HETATM   22  C10 UNL     1      20.134   0.615  51.022  1.00  0.00    -0.029 A 
HETATM   23  C11 UNL     1      20.528   0.882  50.817  1.00  0.00    -0.029 A 
ENDBRANCH   3  20
TORSDOF 4
ENDMDL
MODEL 6
REMARK VINA RESULT:      -7.3      3.014      6.352
REMARK  4 active torsions:
REMARK  status: ('A' for Active; 'I' for Inactive)
REMARK    1  A    between atoms: O1_2  and  C2_3 
REMARK    2  A    between atoms: C5_6  and  C6_7 
REMARK    3  A    between atoms: N1_9  and  C8_10 
REMARK    4  A    between atoms: C10_12  and  C11_13 
ROOT
HETATM    1  C6  UNL     1      25.746   2.186  51.660  1.00  0.00     0.075 C 
HETATM    2  C7  UNL     1      24.619   1.676  52.116  1.00  0.00     0.121 C 
HETATM    3  N1  UNL     1      24.582   0.555  53.023  1.00  0.00    -0.343 N 
HETATM    4  C12 UNL     1      25.822  -0.220  53.158  1.00  0.00     0.255 C 
HETATM    5  N2  UNL     1      25.975   0.521  54.203  1.00  0.00    -0.251 NA
HETATM    6  C13 UNL     1      27.189   0.251  54.937  1.00  0.00     0.253 C 
HETATM    7  N3  UNL     1      28.055   0.971  54.327  1.00  0.00    -0.153 NA
HETATM    8  N4  UNL     1      27.746   1.776  53.226  1.00  0.00    -0.218 N 
HETATM    9  N5  UNL     1      27.000   1.641  52.052  1.00  0.00    -0.283 N 
HETATM   10  H10 UNL     1      28.012   2.752  52.977  1.00  0.00     0.210 HD
HETATM   11  H11 UNL     1      27.308   1.072  51.254  1.00  0.00     0.188 HD
ENDROOT
BRANCH   1  12
HETATM   12  C5  UNL     1      25.780   3.317  50.744  1.00  0.00    -0.006 A 
HETATM   13  C4  UNL     1      24.776   4.269  50.703  1.00  0.00     0.016 A 
HETATM   14  C3  UNL     1      24.786   5.343  49.851  1.00  0.00     0.037 A 
HETATM   15  C2  UNL     1      25.824   5.529  48.973  1.00  0.00     0.068 A 
HETATM   16  C15 UNL     1      26.850   4.614  48.971  1.00  0.00     0.037 A 
HETATM   17  C14 UNL     1      26.791   3.559  49.842  1.00  0.00     0.016 A 
BRANCH  15  18
HETATM   18  O1  UNL     1      25.837   6.614  48.109  1.00  0.00    -0.356 OA
HETATM   19  C1  UNL     1      26.976   7.436  48.074  1.00  0.00     0.210 C 
ENDBRANCH  15  18
ENDBRANCH   1  12
BRANCH   3  20
HETATM   20  C8  UNL     1      23.347   0.281  53.732  1.00  0.00     0.095 A 
HETATM   21  C9  UNL     1      22.288  -1.231  52.928  1.00  0.00     0.087 A 
HETATM   22  C10 UNL     1      22.669  -0.672  53.234  1.00  0.00    -0.029 A 
HETATM   23  C11 UNL     1      22.942  -0.282  53.441  1.00  0.00    -0.029 A 
ENDBRANCH   3  20
TORSDOF 4
ENDMDL
MODEL 7
REMARK VINA RESULT:      -7.3      6.494      8.640
REMARK  4 active torsions:
REMARK  status: ('A' for Active; 'I' for Inactive)
REMARK    1  A    between atoms: O1_2  and  C2_3 
REMARK    2  A    between atoms: C5_6  and  C6_7 
REMARK    3  A    between atoms: N1_9  and  C8_10 
REMARK    4  A    between atoms: C10_12  and  C11_13 
ROOT
HETATM    1  C6  UNL     1      28.896   6.049  48.344  1.00  0.00     0.075 C 
HETATM    2  C7  UNL     1      29.829   5.166  48.050  1.00  0.00     0.121 C 
HETATM    3  N1  UNL     1      31.197   5.536  47.783  1.00  0.00    -0.343 N 
HETATM    4  C12 UNL     1      31.450   6.958  47.514  1.00  0.00     0.255 C 
HETATM    5  N2  UNL     1      31.772   6.966  48.762  1.00  0.00    -0.251 NA
HETATM    6  C13 UNL     1      32.191   8.260  49.248  1.00  0.00     0.253 C 
HETATM    7  N3  UNL     1      31.081   8.821  49.554  1.00  0.00    -0.153 NA
HETATM    8  N4  UNL     1      29.837   8.200  49.397  1.00  0.00    -0.218 N 
HETATM    9  N5  UNL     1      29.206   7.435  48.413  1.00  0.00    -0.283 N 
HETATM   10  H10 UNL     1      29.002   8.141  50.017  1.00  0.00     0.210 HD
HETATM   11  H11 UNL     1      28.855   7.834  47.533  1.00  0.00     0.188 HD
ENDROOT
BRANCH   1  12
HETATM   12  C5  UNL     1      27.515   5.672  48.612  1.00  0.00    -0.006 A 
HETATM   13  C4  UNL     1      27.167   4.413  49.070  1.00  0.00     0.016 A 
HETATM   14  C3  UNL     1      25.875   4.034  49.331  1.00  0.00     0.037 A 
HETATM   15  C2  UNL     1      24.837   4.912  49.143  1.00  0.00     0.068 A 
HETATM   16  C15 UNL     1      25.126   6.177  48.689  1.00  0.00     0.037 A 
HETATM   17  C14 UNL     1      26.433   6.505  48.444  1.00  0.00     0.016 A 
BRANCH  15  18
HETATM   18  O1  UNL     1      23.529   4.532  49.405  1.00  0.00    -0.356 OA
HETATM   19  C1  UNL     1      23.125   3.228  49.079  1.00  0.00     0.210 C 
ENDBRANCH  15  18
ENDBRANCH   1  12
BRANCH   3  20
HETATM   20  C8  UNL     1      32.211   4.500  47.808  1.00  0.00     0.095 A 
HETATM   21  C9  UNL     1      32.431   3.561  46.041  1.00  0.00     0.087 A 
HETATM   22  C10 UNL     1      32.359   3.900  46.698  1.00  0.00    -0.029 A 
HETATM   23  C11 UNL     1      32.302   4.142  47.153  1.00  0.00    -0.029 A 
ENDBRANCH   3  20
TORSDOF 4
ENDMDL
MODEL 8
REMARK VINA RESULT:      -7.2      3.689      5.927
REMARK  4 active torsions:
REMARK  status: ('A' for Active; 'I' for Inactive)
REMARK    1  A    between atoms: O1_2  and  C2_3 
REMARK    2  A    between atoms: C5_6  and  C6_7 
REMARK    3  A    between atoms: N1_9  and  C8_10 
REMARK    4  A    between atoms: C10_12  and  C11_13 
ROOT
HETATM    1  C6  UNL     1      23.920   0.744  52.215  1.00  0.00     0.075 C 
HETATM    2  C7  UNL     1      23.776   1.497  51.142  1.00  0.00     0.121 C 
HETATM    3  N1  UNL     1      22.493   1.749  50.532  1.00  0.00    -0.343 N 
HETATM    4  C12 UNL     1      21.391   0.867  50.939  1.00  0.00     0.255 C 
HETATM    5  N2  UNL     1      21.120   1.848  51.731  1.00  0.00    -0.251 NA
HETATM    6  C13 UNL     1      19.961   1.624  52.563  1.00  0.00     0.253 C 
HETATM    7  N3  UNL     1      20.447   0.982  53.559  1.00  0.00    -0.153 NA
HETATM    8  N4  UNL     1      21.801   0.651  53.673  1.00  0.00    -0.218 N 
HETATM    9  N5  UNL     1      22.790   0.137  52.831  1.00  0.00    -0.283 N 
HETATM   10  H10 UNL     1      22.469   0.705  54.470  1.00  0.00     0.210 HD
HETATM   11  H11 UNL     1      22.816  -0.846  52.530  1.00  0.00     0.188 HD
ENDROOT
BRANCH   1  12
HETATM   12  C5  UNL     1      25.216   0.491  52.828  1.00  0.00    -0.006 A 
HETATM   13  C4  UNL     1      26.380   0.391  52.085  1.00  0.00     0.016 A 
HETATM   14  C3  UNL     1      27.611   0.154  52.639  1.00  0.00     0.037 A 
HETATM   15  C2  UNL     1      27.751   0.001  53.995  1.00  0.00     0.068 A 
HETATM   16  C15 UNL     1      26.626   0.092  54.782  1.00  0.00     0.037 A 
HETATM   17  C14 UNL     1      25.420   0.330  54.179  1.00  0.00     0.016 A 
BRANCH  15  18
HETATM   18  O1  UNL     1      28.995  -0.239  54.559  1.00  0.00    -0.356 OA
HETATM   19  C1  UNL     1      29.953  -0.942  53.810  1.00  0.00     0.210 C 
ENDBRANCH  15  18
ENDBRANCH   1  12
BRANCH   3  20
HETATM   20  C8  UNL     1      22.382   2.840  49.584  1.00  0.00     0.095 A 
HETATM   21  C9  UNL     1      22.530   2.245  47.666  1.00  0.00     0.087 A 
HETATM   22  C10 UNL     1      22.474   2.477  48.369  1.00  0.00    -0.029 A 
HETATM   23  C11 UNL     1      22.436   2.630  48.864  1.00  0.00    -0.029 A 
ENDBRANCH   3  20
TORSDOF 4
ENDMDL
MODEL 9
REMARK VINA RESULT:      -7.1      3.165      5.175
REMARK  4 active torsions:
REMARK  status: ('A' for Active; 'I' for Inactive)
REMARK    1  A    between atoms: O1_2  and  C2_3 
REMARK    2  A    between atoms: C5_6  and  C6_7 
REMARK    3  A    between atoms: N1_9  and  C8_10 
REMARK    4  A    between atoms: C10_12  and  C11_13 
ROOT
HETATM    1  C6  UNL     1      25.208   1.322  52.325  1.00  0.00     0.075 C 
HETATM    2  C7  UNL     1      26.387   0.732  52.307  1.00  0.00     0.121 C 
HETATM    3  N1  UNL     1      26.868  -0.083  53.396  1.00  0.00    -0.343 N 
HETATM    4  C12 UNL     1      26.151   0.039  54.672  1.00  0.00     0.255 C 
HETATM    5  N2  UNL     1      25.551  -1.020  54.246  1.00  0.00    -0.251 NA
HETATM    6  C13 UNL     1      24.551  -1.530  55.154  1.00  0.00     0.253 C 
HETATM    7  N3  UNL     1      23.513  -0.845  54.846  1.00  0.00    -0.153 NA
HETATM    8  N4  UNL     1      23.506   0.130  53.843  1.00  0.00    -0.218 N 
HETATM    9  N5  UNL     1      24.342   1.176  53.444  1.00  0.00    -0.283 N 
HETATM   10  H10 UNL     1      22.829   0.344  53.081  1.00  0.00     0.210 HD
HETATM   11  H11 UNL     1      24.432   2.054  53.971  1.00  0.00     0.188 HD
ENDROOT
BRANCH   1  12
HETATM   12  C5  UNL     1      24.726   2.145  51.225  1.00  0.00    -0.006 A 
HETATM   13  C4  UNL     1      23.414   2.098  50.785  1.00  0.00     0.016 A 
HETATM   14  C3  UNL     1      22.936   2.863  49.753  1.00  0.00     0.037 A 
HETATM   15  C2  UNL     1      23.760   3.735  49.088  1.00  0.00     0.068 A 
HETATM   16  C15 UNL     1      25.074   3.822  49.484  1.00  0.00     0.037 A 
HETATM   17  C14 UNL     1      25.501   3.037  50.521  1.00  0.00     0.016 A 
BRANCH  15  18
HETATM   18  O1  UNL     1      23.280   4.510  48.043  1.00  0.00    -0.356 OA
HETATM   19  C1  UNL     1      21.896   4.729  47.943  1.00  0.00     0.210 C 
ENDBRANCH  15  18
ENDBRANCH   1  12
BRANCH   3  20
HETATM   20  C8  UNL     1      28.000  -0.957  53.156  1.00  0.00     0.095 A 
HETATM   21  C9  UNL     1      29.762  -0.136  53.678  1.00  0.00     0.087 A 
HETATM   22  C10 UNL     1      29.118  -0.450  53.482  1.00  0.00    -0.029 A 
HETATM   23  C11 UNL     1      28.664  -0.661  53.347  1.00  0.00    -0.029 A 
ENDBRANCH   3  20
TORSDOF 4
ENDMDL
