MODEL 1
REMARK VINA RESULT:      -7.7      0.000      0.000
REMARK  2 active torsions:
REMARK  status: ('A' for Active; 'I' for Inactive)
REMARK    1  A    between atoms: N1_11  and  S1_12 
REMARK    2  A    between atoms: S1_12  and  C9_15 
ROOT
HETATM    1  O1  UNL     1      23.981   0.870  54.115  1.00  0.00    -0.272 OA
HETATM    2  C1  UNL     1      23.255   0.446  53.238  1.00  0.00     0.240 C 
HETATM    3  C2  UNL     1      22.292  -0.595  53.226  1.00  0.00     0.131 C 
HETATM    4  C3  UNL     1      21.454  -1.074  54.292  1.00  0.00    -0.017 C 
HETATM    5  C4  UNL     1      20.185  -0.973  53.856  1.00  0.00    -0.004 C 
HETATM    6  C5  UNL     1      19.719  -0.448  52.613  1.00  0.00     0.001 C 
HETATM    7  C6  UNL     1      20.052   0.201  51.485  1.00  0.00     0.020 C 
HETATM    8  C7  UNL     1      21.198   0.849  50.826  1.00  0.00     0.027 C 
HETATM    9 BR1  UNL     1      20.874   1.457  49.052  1.00  0.00    -0.050 Br
HETATM   10  C8  UNL     1      22.451   1.191  51.032  1.00  0.00     0.131 C 
HETATM   11  N1  UNL     1      23.471   1.155  52.023  1.00  0.00    -0.214 N 
ENDROOT
BRANCH  11  12
HETATM   12  S1  UNL     1      25.035   1.929  51.887  1.00  0.00     0.271 S 
HETATM   13  O2  UNL     1      25.222   2.486  50.515  1.00  0.00    -0.200 OA
HETATM   14  O3  UNL     1      24.948   3.136  52.811  1.00  0.00    -0.200 OA
BRANCH  12  15
HETATM   15  C9  UNL     1      26.325   0.881  52.368  1.00  0.00     0.080 A 
HETATM   16  C10 UNL     1      27.391   1.564  52.950  1.00  0.00     0.027 A 
HETATM   17  C11 UNL     1      28.528   0.900  53.406  1.00  0.00     0.025 A 
HETATM   18  C12 UNL     1      28.567  -0.468  53.261  1.00  0.00     0.034 A 
HETATM   19 CL1  UNL     1      29.985  -1.335  53.825  1.00  0.00    -0.084 Cl
HETATM   20  C13 UNL     1      27.519  -1.171  52.686  1.00  0.00     0.025 A 
HETATM   21  C14 UNL     1      26.385  -0.492  52.234  1.00  0.00     0.027 A 
ENDBRANCH  12  15
ENDBRANCH  11  12
TORSDOF 2
ENDMDL
MODEL 2
REMARK VINA RESULT:      -7.6      4.279      5.245
REMARK  2 active torsions:
REMARK  status: ('A' for Active; 'I' for Inactive)
REMARK    1  A    between atoms: N1_11  and  S1_12 
REMARK    2  A    between atoms: S1_12  and  C9_15 
ROOT
HETATM    1  O1  UNL     1      22.076   1.333  50.771  1.00  0.00    -0.272 OA
HETATM    2  C1  UNL     1      22.891   1.444  51.664  1.00  0.00     0.240 C 
HETATM    3  C2  UNL     1      22.895   0.983  53.006  1.00  0.00     0.131 C 
HETATM    4  C3  UNL     1      22.287  -0.193  53.568  1.00  0.00    -0.017 C 
HETATM    5  C4  UNL     1      23.274  -0.887  54.164  1.00  0.00    -0.004 C 
HETATM    6  C5  UNL     1      24.667  -0.581  54.203  1.00  0.00     0.001 C 
HETATM    7  C6  UNL     1      25.645   0.218  53.741  1.00  0.00     0.020 C 
HETATM    8  C7  UNL     1      25.876   1.327  52.801  1.00  0.00     0.027 C 
HETATM    9 BR1  UNL     1      27.636   2.052  52.821  1.00  0.00    -0.050 Br
HETATM   10  C8  UNL     1      25.269   2.048  51.883  1.00  0.00     0.131 C 
HETATM   11  N1  UNL     1      24.017   2.195  51.224  1.00  0.00    -0.214 N 
ENDROOT
BRANCH  11  12
HETATM   12  S1  UNL     1      23.712   3.258  49.867  1.00  0.00     0.271 S 
HETATM   13  O2  UNL     1      23.090   2.499  48.743  1.00  0.00    -0.200 OA
HETATM   14  O3  UNL     1      22.636   4.214  50.362  1.00  0.00    -0.200 OA
BRANCH  12  15
HETATM   15  C9  UNL     1      25.130   4.127  49.388  1.00  0.00     0.080 A 
HETATM   16  C10 UNL     1      24.865   5.451  49.045  1.00  0.00     0.027 A 
HETATM   17  C11 UNL     1      25.874   6.319  48.633  1.00  0.00     0.025 A 
HETATM   18  C12 UNL     1      27.157   5.821  48.573  1.00  0.00     0.034 A 
HETATM   19 CL1  UNL     1      28.450   6.889  48.057  1.00  0.00    -0.084 Cl
HETATM   20  C13 UNL     1      27.446   4.508  48.910  1.00  0.00     0.025 A 
HETATM   21  C14 UNL     1      26.424   3.650  49.323  1.00  0.00     0.027 A 
ENDBRANCH  12  15
ENDBRANCH  11  12
TORSDOF 2
ENDMDL
MODEL 3
REMARK VINA RESULT:      -7.6      9.120     11.823
REMARK  2 active torsions:
REMARK  status: ('A' for Active; 'I' for Inactive)
REMARK    1  A    between atoms: N1_11  and  S1_12 
REMARK    2  A    between atoms: S1_12  and  C9_15 
ROOT
HETATM    1  O1  UNL     1      32.326   5.468  49.250  1.00  0.00    -0.272 OA
HETATM    2  C1  UNL     1      32.920   5.649  48.207  1.00  0.00     0.240 C 
HETATM    3  C2  UNL     1      34.171   5.174  47.735  1.00  0.00     0.131 C 
HETATM    4  C3  UNL     1      34.845   3.937  48.022  1.00  0.00    -0.017 C 
HETATM    5  C4  UNL     1      35.068   3.339  46.838  1.00  0.00    -0.004 C 
HETATM    6  C5  UNL     1      34.680   3.784  45.539  1.00  0.00     0.001 C 
HETATM    7  C6  UNL     1      33.969   4.683  44.836  1.00  0.00     0.020 C 
HETATM    8  C7  UNL     1      33.053   5.821  45.019  1.00  0.00     0.027 C 
HETATM    9 BR1  UNL     1      32.550   6.719  43.418  1.00  0.00    -0.050 Br
HETATM   10  C8  UNL     1      32.405   6.488  45.949  1.00  0.00     0.131 C 
HETATM   11  N1  UNL     1      32.182   6.516  47.354  1.00  0.00    -0.214 N 
ENDROOT
BRANCH  11  12
HETATM   12  S1  UNL     1      31.038   7.559  48.170  1.00  0.00     0.271 S 
HETATM   13  O2  UNL     1      31.600   8.031  49.469  1.00  0.00    -0.200 OA
HETATM   14  O3  UNL     1      30.947   8.796  47.287  1.00  0.00    -0.200 OA
BRANCH  12  15
HETATM   15  C9  UNL     1      29.485   6.814  48.342  1.00  0.00     0.080 A 
HETATM   16  C10 UNL     1      28.456   7.738  48.513  1.00  0.00     0.027 A 
HETATM   17  C11 UNL     1      27.130   7.340  48.668  1.00  0.00     0.025 A 
HETATM   18  C12 UNL     1      26.864   5.989  48.648  1.00  0.00     0.034 A 
HETATM   19 CL1  UNL     1      25.203   5.455  48.842  1.00  0.00    -0.084 Cl
HETATM   20  C13 UNL     1      27.870   5.051  48.478  1.00  0.00     0.025 A 
HETATM   21  C14 UNL     1      29.195   5.465  48.323  1.00  0.00     0.027 A 
ENDBRANCH  12  15
ENDBRANCH  11  12
TORSDOF 2
ENDMDL
MODEL 4
REMARK VINA RESULT:      -7.5      3.504      4.149
REMARK  2 active torsions:
REMARK  status: ('A' for Active; 'I' for Inactive)
REMARK    1  A    between atoms: N1_11  and  S1_12 
REMARK    2  A    between atoms: S1_12  and  C9_15 
ROOT
HETATM    1  O1  UNL     1      24.554   2.986  53.316  1.00  0.00    -0.272 OA
HETATM    2  C1  UNL     1      23.912   2.076  52.834  1.00  0.00     0.240 C 
HETATM    3  C2  UNL     1      24.026   0.667  52.957  1.00  0.00     0.131 C 
HETATM    4  C3  UNL     1      24.496  -0.117  54.066  1.00  0.00    -0.017 C 
HETATM    5  C4  UNL     1      23.502  -0.967  54.383  1.00  0.00    -0.004 C 
HETATM    6  C5  UNL     1      22.205  -1.064  53.796  1.00  0.00     0.001 C 
HETATM    7  C6  UNL     1      21.324  -0.511  52.945  1.00  0.00     0.020 C 
HETATM    8  C7  UNL     1      21.154   0.657  52.064  1.00  0.00     0.027 C 
HETATM    9 BR1  UNL     1      19.570   0.650  51.009  1.00  0.00    -0.050 Br
HETATM   10  C8  UNL     1      21.735   1.786  51.719  1.00  0.00     0.131 C 
HETATM   11  N1  UNL     1      22.882   2.580  51.992  1.00  0.00    -0.214 N 
ENDROOT
BRANCH  11  12
HETATM   12  S1  UNL     1      23.164   4.190  51.363  1.00  0.00     0.271 S 
HETATM   13  O2  UNL     1      21.990   4.650  50.566  1.00  0.00    -0.200 OA
HETATM   14  O3  UNL     1      23.199   5.083  52.596  1.00  0.00    -0.200 OA
BRANCH  12  15
HETATM   15  C9  UNL     1      24.654   4.296  50.488  1.00  0.00     0.080 A 
HETATM   16  C10 UNL     1      24.999   5.606  50.163  1.00  0.00     0.027 A 
HETATM   17  C11 UNL     1      26.164   5.904  49.458  1.00  0.00     0.025 A 
HETATM   18  C12 UNL     1      26.972   4.852  49.089  1.00  0.00     0.034 A 
HETATM   19 CL1  UNL     1      28.447   5.195  48.201  1.00  0.00    -0.084 Cl
HETATM   20  C13 UNL     1      26.650   3.541  49.402  1.00  0.00     0.025 A 
HETATM   21  C14 UNL     1      25.479   3.257  50.109  1.00  0.00     0.027 A 
ENDBRANCH  12  15
ENDBRANCH  11  12
TORSDOF 2
ENDMDL
MODEL 5
REMARK VINA RESULT:      -7.4      3.193      3.807
REMARK  2 active torsions:
REMARK  status: ('A' for Active; 'I' for Inactive)
REMARK    1  A    between atoms: N1_11  and  S1_12 
REMARK    2  A    between atoms: S1_12  and  C9_15 
ROOT
HETATM    1  O1  UNL     1      24.536  -0.216  54.207  1.00  0.00    -0.272 OA
HETATM    2  C1  UNL     1      23.614  -0.184  53.418  1.00  0.00     0.240 C 
HETATM    3  C2  UNL     1      22.499  -1.040  53.228  1.00  0.00     0.131 C 
HETATM    4  C3  UNL     1      21.780  -1.829  54.191  1.00  0.00    -0.017 C 
HETATM    5  C4  UNL     1      20.492  -1.447  54.116  1.00  0.00    -0.004 C 
HETATM    6  C5  UNL     1      19.923  -0.426  53.297  1.00  0.00     0.001 C 
HETATM    7  C6  UNL     1      20.169   0.590  52.452  1.00  0.00     0.020 C 
HETATM    8  C7  UNL     1      21.284   1.342  51.851  1.00  0.00     0.027 C 
HETATM    9 BR1  UNL     1      20.778   2.639  50.554  1.00  0.00    -0.050 Br
HETATM   10  C8  UNL     1      22.594   1.457  51.890  1.00  0.00     0.131 C 
HETATM   11  N1  UNL     1      23.742   0.932  52.544  1.00  0.00    -0.214 N 
ENDROOT
BRANCH  11  12
HETATM   12  S1  UNL     1      25.371   1.550  52.369  1.00  0.00     0.271 S 
HETATM   13  O2  UNL     1      25.972   1.818  53.708  1.00  0.00    -0.200 OA
HETATM   14  O3  UNL     1      26.163   0.387  51.788  1.00  0.00    -0.200 OA
BRANCH  12  15
HETATM   15  C9  UNL     1      25.437   2.922  51.316  1.00  0.00     0.080 A 
HETATM   16  C10 UNL     1      26.502   2.866  50.419  1.00  0.00     0.027 A 
HETATM   17  C11 UNL     1      26.729   3.876  49.486  1.00  0.00     0.025 A 
HETATM   18  C12 UNL     1      25.859   4.943  49.478  1.00  0.00     0.034 A 
HETATM   19 CL1  UNL     1      26.119   6.232  48.315  1.00  0.00    -0.084 Cl
HETATM   20  C13 UNL     1      24.792   5.021  50.359  1.00  0.00     0.025 A 
HETATM   21  C14 UNL     1      24.576   4.001  51.289  1.00  0.00     0.027 A 
ENDBRANCH  12  15
ENDBRANCH  11  12
TORSDOF 2
ENDMDL
MODEL 6
REMARK VINA RESULT:      -7.3      3.953      6.221
REMARK  2 active torsions:
REMARK  status: ('A' for Active; 'I' for Inactive)
REMARK    1  A    between atoms: N1_11  and  S1_12 
REMARK    2  A    between atoms: S1_12  and  C9_15 
ROOT
HETATM    1  O1  UNL     1      24.661   3.244  51.643  1.00  0.00    -0.272 OA
HETATM    2  C1  UNL     1      24.516   2.077  51.946  1.00  0.00     0.240 C 
HETATM    3  C2  UNL     1      25.423   0.986  51.978  1.00  0.00     0.131 C 
HETATM    4  C3  UNL     1      26.838   0.983  52.236  1.00  0.00    -0.017 C 
HETATM    5  C4  UNL     1      27.036   0.149  53.273  1.00  0.00    -0.004 C 
HETATM    6  C5  UNL     1      26.058  -0.566  54.028  1.00  0.00     0.001 C 
HETATM    7  C6  UNL     1      24.748  -0.747  54.263  1.00  0.00     0.020 C 
HETATM    8  C7  UNL     1      23.426  -0.232  53.867  1.00  0.00     0.027 C 
HETATM    9 BR1  UNL     1      21.940  -1.171  54.597  1.00  0.00    -0.050 Br
HETATM   10  C8  UNL     1      22.857   0.710  53.147  1.00  0.00     0.131 C 
HETATM   11  N1  UNL     1      23.166   1.819  52.312  1.00  0.00    -0.214 N 
ENDROOT
BRANCH  11  12
HETATM   12  S1  UNL     1      21.995   2.947  51.662  1.00  0.00     0.271 S 
HETATM   13  O2  UNL     1      20.638   2.662  52.212  1.00  0.00    -0.200 OA
HETATM   14  O3  UNL     1      22.399   4.295  52.242  1.00  0.00    -0.200 OA
BRANCH  12  15
HETATM   15  C9  UNL     1      22.024   2.991  49.932  1.00  0.00     0.080 A 
HETATM   16  C10 UNL     1      21.758   4.258  49.418  1.00  0.00     0.027 A 
HETATM   17  C11 UNL     1      21.736   4.503  48.046  1.00  0.00     0.025 A 
HETATM   18  C12 UNL     1      21.986   3.443  47.205  1.00  0.00     0.034 A 
HETATM   19 CL1  UNL     1      21.965   3.719  45.472  1.00  0.00    -0.084 Cl
HETATM   20  C13 UNL     1      22.254   2.173  47.693  1.00  0.00     0.025 A 
HETATM   21  C14 UNL     1      22.274   1.942  49.071  1.00  0.00     0.027 A 
ENDBRANCH  12  15
ENDBRANCH  11  12
TORSDOF 2
ENDMDL
MODEL 7
REMARK VINA RESULT:      -7.1      8.731     10.137
REMARK  2 active torsions:
REMARK  status: ('A' for Active; 'I' for Inactive)
REMARK    1  A    between atoms: N1_11  and  S1_12 
REMARK    2  A    between atoms: S1_12  and  C9_15 
ROOT
HETATM    1  O1  UNL     1      30.622   5.580  49.183  1.00  0.00    -0.272 OA
HETATM    2  C1  UNL     1      29.707   6.092  48.571  1.00  0.00     0.240 C 
HETATM    3  C2  UNL     1      28.447   5.590  48.153  1.00  0.00     0.131 C 
HETATM    4  C3  UNL     1      27.612   4.594  48.768  1.00  0.00    -0.017 C 
HETATM    5  C4  UNL     1      26.418   5.175  48.982  1.00  0.00    -0.004 C 
HETATM    6  C5  UNL     1      26.034   6.524  48.717  1.00  0.00     0.001 C 
HETATM    7  C6  UNL     1      26.450   7.748  48.348  1.00  0.00     0.020 C 
HETATM    8  C7  UNL     1      27.673   8.492  48.007  1.00  0.00     0.027 C 
HETATM    9 BR1  UNL     1      27.395  10.280  47.417  1.00  0.00    -0.050 Br
HETATM   10  C8  UNL     1      28.982   8.366  47.963  1.00  0.00     0.131 C 
HETATM   11  N1  UNL     1      30.025   7.436  48.227  1.00  0.00    -0.214 N 
ENDROOT
BRANCH  11  12
HETATM   12  S1  UNL     1      31.736   7.798  48.167  1.00  0.00     0.271 S 
HETATM   13  O2  UNL     1      31.957   9.186  47.665  1.00  0.00    -0.200 OA
HETATM   14  O3  UNL     1      32.177   7.814  49.625  1.00  0.00    -0.200 OA
BRANCH  12  15
HETATM   15  C9  UNL     1      32.623   6.611  47.273  1.00  0.00     0.080 A 
HETATM   16  C10 UNL     1      33.750   6.152  47.951  1.00  0.00     0.027 A 
HETATM   17  C11 UNL     1      34.597   5.192  47.400  1.00  0.00     0.025 A 
HETATM   18  C12 UNL     1      34.282   4.706  46.151  1.00  0.00     0.034 A 
HETATM   19 CL1  UNL     1      35.330   3.496  45.430  1.00  0.00    -0.084 Cl
HETATM   20  C13 UNL     1      33.166   5.146  45.458  1.00  0.00     0.025 A 
HETATM   21  C14 UNL     1      32.325   6.108  46.022  1.00  0.00     0.027 A 
ENDBRANCH  12  15
ENDBRANCH  11  12
TORSDOF 2
ENDMDL
MODEL 8
REMARK VINA RESULT:      -7.0     10.762     12.482
REMARK  2 active torsions:
REMARK  status: ('A' for Active; 'I' for Inactive)
REMARK    1  A    between atoms: N1_11  and  S1_12 
REMARK    2  A    between atoms: S1_12  and  C9_15 
ROOT
HETATM    1  O1  UNL     1      32.275   3.826  48.313  1.00  0.00    -0.272 OA
HETATM    2  C1  UNL     1      32.807   4.606  47.548  1.00  0.00     0.240 C 
HETATM    3  C2  UNL     1      34.088   4.611  46.939  1.00  0.00     0.131 C 
HETATM    4  C3  UNL     1      34.916   3.503  46.547  1.00  0.00    -0.017 C 
HETATM    5  C4  UNL     1      35.168   3.660  45.234  1.00  0.00    -0.004 C 
HETATM    6  C5  UNL     1      34.684   4.678  44.359  1.00  0.00     0.001 C 
HETATM    7  C6  UNL     1      33.845   5.719  44.219  1.00  0.00     0.020 C 
HETATM    8  C7  UNL     1      32.805   6.465  44.949  1.00  0.00     0.027 C 
HETATM    9 BR1  UNL     1      32.141   8.009  44.056  1.00  0.00    -0.050 Br
HETATM   10  C8  UNL     1      32.115   6.449  46.068  1.00  0.00     0.131 C 
HETATM   11  N1  UNL     1      31.939   5.697  47.262  1.00  0.00    -0.214 N 
ENDROOT
BRANCH  11  12
HETATM   12  S1  UNL     1      30.707   5.997  48.469  1.00  0.00     0.271 S 
HETATM   13  O2  UNL     1      29.573   5.042  48.302  1.00  0.00    -0.200 OA
HETATM   14  O3  UNL     1      31.365   5.626  49.791  1.00  0.00    -0.200 OA
BRANCH  12  15
HETATM   15  C9  UNL     1      30.196   7.651  48.482  1.00  0.00     0.080 A 
HETATM   16  C10 UNL     1      31.003   8.461  49.278  1.00  0.00     0.027 A 
HETATM   17  C11 UNL     1      30.759   9.826  49.420  1.00  0.00     0.025 A 
HETATM   18  C12 UNL     1      29.684  10.355  48.742  1.00  0.00     0.034 A 
HETATM   19 CL1  UNL     1      29.350  12.070  48.901  1.00  0.00    -0.084 Cl
HETATM   20  C13 UNL     1      28.867   9.569  47.944  1.00  0.00     0.025 A 
HETATM   21  C14 UNL     1      29.124   8.202  47.810  1.00  0.00     0.027 A 
ENDBRANCH  12  15
ENDBRANCH  11  12
TORSDOF 2
ENDMDL
MODEL 9
REMARK VINA RESULT:      -7.0      1.303      1.601
REMARK  2 active torsions:
REMARK  status: ('A' for Active; 'I' for Inactive)
REMARK    1  A    between atoms: N1_11  and  S1_12 
REMARK    2  A    between atoms: S1_12  and  C9_15 
ROOT
HETATM    1  O1  UNL     1      22.791   1.662  53.505  1.00  0.00    -0.272 OA
HETATM    2  C1  UNL     1      22.451   1.356  52.380  1.00  0.00     0.240 C 
HETATM    3  C2  UNL     1      21.564   0.360  51.897  1.00  0.00     0.131 C 
HETATM    4  C3  UNL     1      20.386  -0.190  52.512  1.00  0.00    -0.017 C 
HETATM    5  C4  UNL     1      19.376   0.004  51.645  1.00  0.00    -0.004 C 
HETATM    6  C5  UNL     1      19.412   0.667  50.382  1.00  0.00     0.001 C 
HETATM    7  C6  UNL     1      20.146   1.412  49.537  1.00  0.00     0.020 C 
HETATM    8  C7  UNL     1      21.455   2.078  49.430  1.00  0.00     0.027 C 
HETATM    9 BR1  UNL     1      21.824   2.871  47.740  1.00  0.00    -0.050 Br
HETATM   10  C8  UNL     1      22.537   2.348  50.128  1.00  0.00     0.131 C 
HETATM   11  N1  UNL     1      23.108   2.173  51.418  1.00  0.00    -0.214 N 
ENDROOT
BRANCH  11  12
HETATM   12  S1  UNL     1      24.607   2.896  51.963  1.00  0.00     0.271 S 
HETATM   13  O2  UNL     1      25.105   3.880  50.958  1.00  0.00    -0.200 OA
HETATM   14  O3  UNL     1      24.215   3.718  53.183  1.00  0.00    -0.200 OA
BRANCH  12  15
HETATM   15  C9  UNL     1      25.790   1.704  52.381  1.00  0.00     0.080 A 
HETATM   16  C10 UNL     1      26.737   2.176  53.288  1.00  0.00     0.027 A 
HETATM   17  C11 UNL     1      27.775   1.369  53.751  1.00  0.00     0.025 A 
HETATM   18  C12 UNL     1      27.837   0.078  53.279  1.00  0.00     0.034 A 
HETATM   19 CL1  UNL     1      29.133  -0.963  53.843  1.00  0.00    -0.084 Cl
HETATM   20  C13 UNL     1      26.907  -0.415  52.377  1.00  0.00     0.025 A 
HETATM   21  C14 UNL     1      25.871   0.405  51.922  1.00  0.00     0.027 A 
ENDBRANCH  12  15
ENDBRANCH  11  12
TORSDOF 2
ENDMDL
