MODEL 1
REMARK VINA RESULT:      -8.3      0.000      0.000
REMARK  4 active torsions:
REMARK  status: ('A' for Active; 'I' for Inactive)
REMARK    1  A    between atoms: C2_2  and  C3_3 
REMARK    2  A    between atoms: C4_4  and  C5_5 
REMARK    3  A    between atoms: C8_9  and  N1_10 
REMARK    4  A    between atoms: C12_16  and  C13_17 
ROOT
HETATM    1  N1  UNL     1      24.378   1.810  51.454  1.00  0.00    -0.211 N 
HETATM    2  N2  UNL     1      24.520   3.005  50.752  1.00  0.00    -0.139 NA
HETATM    3  C9  UNL     1      25.730   3.354  50.592  1.00  0.00     0.211 A 
HETATM    4  F1  UNL     1      26.306   4.430  49.979  1.00  0.00    -0.187 F 
HETATM    5  C10 UNL     1      26.675   2.357  51.214  1.00  0.00     0.153 A 
HETATM    6  C11 UNL     1      25.697   1.381  51.759  1.00  0.00     0.047 A 
HETATM    7  C12 UNL     1      25.978   0.277  52.426  1.00  0.00     0.039 C 
ENDROOT
BRANCH   1   8
HETATM    8  C8  UNL     1      23.106   1.248  51.730  1.00  0.00     0.190 C 
HETATM    9  S1  UNL     1      21.883   1.407  50.435  1.00  0.00    -0.084 SA
HETATM   10  C7  UNL     1      20.599   0.353  51.236  1.00  0.00     0.142 C 
HETATM   11  C6  UNL     1      21.269   0.244  52.570  1.00  0.00     0.047 C 
HETATM   12  C5  UNL     1      20.472  -0.254  53.537  1.00  0.00     0.028 C 
HETATM   13  N3  UNL     1      22.606   0.628  52.738  1.00  0.00    -0.227 NA
BRANCH  12  14
HETATM   14  C4  UNL     1      19.108  -0.621  53.202  1.00  0.00     0.002 C 
HETATM   15  C3  UNL     1      18.732  -1.797  53.626  1.00  0.00    -0.001 C 
BRANCH  15  16
HETATM   16  C2  UNL     1      17.370  -2.088  53.255  1.00  0.00    -0.010 C 
HETATM   17  C1  UNL     1      16.373  -1.744  52.485  1.00  0.00     0.011 C 
ENDBRANCH  15  16
ENDBRANCH  12  14
ENDBRANCH   1   8
BRANCH   7  18
HETATM   18  C13 UNL     1      27.225  -0.320  52.827  1.00  0.00    -0.034 A 
HETATM   19  C14 UNL     1      28.335   0.316  53.339  1.00  0.00     0.011 A 
HETATM   20  C15 UNL     1      29.519  -0.243  53.695  1.00  0.00     0.001 A 
HETATM   21  C16 UNL     1      29.630  -1.611  53.526  1.00  0.00     0.000 A 
HETATM   22  C17 UNL     1      28.608  -2.369  53.029  1.00  0.00     0.001 A 
HETATM   23  C18 UNL     1      27.448  -1.702  52.698  1.00  0.00     0.011 A 
ENDBRANCH   7  18
TORSDOF 4
ENDMDL
MODEL 2
REMARK VINA RESULT:      -8.1      3.280      8.581
REMARK  4 active torsions:
REMARK  status: ('A' for Active; 'I' for Inactive)
REMARK    1  A    between atoms: C2_2  and  C3_3 
REMARK    2  A    between atoms: C4_4  and  C5_5 
REMARK    3  A    between atoms: C8_9  and  N1_10 
REMARK    4  A    between atoms: C12_16  and  C13_17 
ROOT
HETATM    1  N1  UNL     1      23.447   0.340  53.024  1.00  0.00    -0.211 N 
HETATM    2  N2  UNL     1      23.918  -0.364  54.129  1.00  0.00    -0.139 NA
HETATM    3  C9  UNL     1      23.026  -1.065  54.697  1.00  0.00     0.211 A 
HETATM    4  F1  UNL     1      23.054  -1.889  55.787  1.00  0.00    -0.187 F 
HETATM    5  C10 UNL     1      21.696  -0.932  53.998  1.00  0.00     0.153 A 
HETATM    6  C11 UNL     1      22.070   0.013  52.914  1.00  0.00     0.047 A 
HETATM    7  C12 UNL     1      21.269   0.491  51.980  1.00  0.00     0.039 C 
ENDROOT
BRANCH   1   8
HETATM    8  C8  UNL     1      24.292   1.176  52.250  1.00  0.00     0.190 C 
HETATM    9  S1  UNL     1      25.982   1.319  52.816  1.00  0.00    -0.084 SA
HETATM   10  C7  UNL     1      26.601   2.284  51.371  1.00  0.00     0.142 C 
HETATM   11  C6  UNL     1      25.263   2.571  50.766  1.00  0.00     0.047 C 
HETATM   12  C5  UNL     1      25.295   3.512  49.801  1.00  0.00     0.028 C 
HETATM   13  N3  UNL     1      24.117   1.886  51.193  1.00  0.00    -0.227 NA
BRANCH  12  14
HETATM   14  C4  UNL     1      26.568   4.122  49.459  1.00  0.00     0.002 C 
HETATM   15  C3  UNL     1      26.482   5.268  48.840  1.00  0.00    -0.001 C 
BRANCH  15  16
HETATM   16  C2  UNL     1      27.783   5.808  48.535  1.00  0.00    -0.010 C 
HETATM   17  C1  UNL     1      29.000   5.522  48.159  1.00  0.00     0.011 C 
ENDBRANCH  15  16
ENDBRANCH  12  14
ENDBRANCH   1   8
BRANCH   7  18
HETATM   18  C13 UNL     1      19.871   0.284  51.704  1.00  0.00    -0.034 A 
HETATM   19  C14 UNL     1      18.939  -0.332  52.510  1.00  0.00     0.011 A 
HETATM   20  C15 UNL     1      17.626  -0.548  52.240  1.00  0.00     0.001 A 
HETATM   21  C16 UNL     1      17.167  -0.100  51.015  1.00  0.00     0.000 A 
HETATM   22  C17 UNL     1      17.981   0.528  50.116  1.00  0.00     0.001 A 
HETATM   23  C18 UNL     1      19.298   0.698  50.489  1.00  0.00     0.011 A 
ENDBRANCH   7  18
TORSDOF 4
ENDMDL
MODEL 3
REMARK VINA RESULT:      -8.1      1.745      2.116
REMARK  4 active torsions:
REMARK  status: ('A' for Active; 'I' for Inactive)
REMARK    1  A    between atoms: C2_2  and  C3_3 
REMARK    2  A    between atoms: C4_4  and  C5_5 
REMARK    3  A    between atoms: C8_9  and  N1_10 
REMARK    4  A    between atoms: C12_16  and  C13_17 
ROOT
HETATM    1  N1  UNL     1      23.171   1.441  52.886  1.00  0.00    -0.211 N 
HETATM    2  N2  UNL     1      22.951   2.717  52.372  1.00  0.00    -0.139 NA
HETATM    3  C9  UNL     1      24.021   3.368  52.168  1.00  0.00     0.211 A 
HETATM    4  F1  UNL     1      24.259   4.624  51.685  1.00  0.00    -0.187 F 
HETATM    5  C10 UNL     1      25.237   2.558  52.544  1.00  0.00     0.153 A 
HETATM    6  C11 UNL     1      24.579   1.310  53.008  1.00  0.00     0.047 A 
HETATM    7  C12 UNL     1      25.183   0.229  53.467  1.00  0.00     0.039 C 
ENDROOT
BRANCH   1   8
HETATM    8  C8  UNL     1      22.103   0.554  53.176  1.00  0.00     0.190 C 
HETATM    9  S1  UNL     1      22.548  -0.954  54.026  1.00  0.00    -0.084 SA
HETATM   10  C7  UNL     1      20.824  -1.545  54.311  1.00  0.00     0.142 C 
HETATM   11  C6  UNL     1      20.147  -0.542  53.431  1.00  0.00     0.047 C 
HETATM   12  C5  UNL     1      18.857  -0.832  53.171  1.00  0.00     0.028 C 
HETATM   13  N3  UNL     1      20.837   0.583  52.959  1.00  0.00    -0.227 NA
BRANCH  12  14
HETATM   14  C4  UNL     1      18.278  -2.033  53.748  1.00  0.00     0.002 C 
HETATM   15  C3  UNL     1      17.314  -2.570  53.052  1.00  0.00    -0.001 C 
BRANCH  15  16
HETATM   16  C2  UNL     1      16.792  -3.754  53.688  1.00  0.00    -0.010 C 
HETATM   17  C1  UNL     1      16.642  -5.047  53.584  1.00  0.00     0.011 C 
ENDBRANCH  15  16
ENDBRANCH  12  14
ENDBRANCH   1   8
BRANCH   7  18
HETATM   18  C13 UNL     1      26.572  -0.094  53.664  1.00  0.00    -0.034 A 
HETATM   19  C14 UNL     1      27.459   0.505  54.532  1.00  0.00     0.011 A 
HETATM   20  C15 UNL     1      28.774   0.217  54.701  1.00  0.00     0.001 A 
HETATM   21  C16 UNL     1      29.290  -0.795  53.910  1.00  0.00     0.000 A 
HETATM   22  C17 UNL     1      28.525  -1.475  53.007  1.00  0.00     0.001 A 
HETATM   23  C18 UNL     1      27.200  -1.103  52.914  1.00  0.00     0.011 A 
ENDBRANCH   7  18
TORSDOF 4
ENDMDL
MODEL 4
REMARK VINA RESULT:      -8.1      3.518      5.581
REMARK  4 active torsions:
REMARK  status: ('A' for Active; 'I' for Inactive)
REMARK    1  A    between atoms: C2_2  and  C3_3 
REMARK    2  A    between atoms: C4_4  and  C5_5 
REMARK    3  A    between atoms: C8_9  and  N1_10 
REMARK    4  A    between atoms: C12_16  and  C13_17 
ROOT
HETATM    1  N1  UNL     1      23.345   0.764  52.416  1.00  0.00    -0.211 N 
HETATM    2  N2  UNL     1      22.316   0.439  53.297  1.00  0.00    -0.139 NA
HETATM    3  C9  UNL     1      22.694  -0.288  54.266  1.00  0.00     0.211 A 
HETATM    4  F1  UNL     1      22.029  -0.825  55.332  1.00  0.00    -0.187 F 
HETATM    5  C10 UNL     1      24.169  -0.592  54.181  1.00  0.00     0.153 A 
HETATM    6  C11 UNL     1      24.509   0.138  52.933  1.00  0.00     0.047 A 
HETATM    7  C12 UNL     1      25.700   0.212  52.367  1.00  0.00     0.039 C 
ENDROOT
BRANCH   1   8
HETATM    8  C8  UNL     1      23.126   1.574  51.273  1.00  0.00     0.190 C 
HETATM    9  S1  UNL     1      23.711   3.260  51.386  1.00  0.00    -0.084 SA
HETATM   10  C7  UNL     1      23.372   3.712  49.630  1.00  0.00     0.142 C 
HETATM   11  C6  UNL     1      22.584   2.488  49.283  1.00  0.00     0.047 C 
HETATM   12  C5  UNL     1      21.922   2.585  48.113  1.00  0.00     0.028 C 
HETATM   13  N3  UNL     1      22.582   1.370  50.127  1.00  0.00    -0.227 NA
BRANCH  12  14
HETATM   14  C4  UNL     1      22.037   3.810  47.340  1.00  0.00     0.002 C 
HETATM   15  C3  UNL     1      21.849   3.673  46.056  1.00  0.00    -0.001 C 
BRANCH  15  16
HETATM   16  C2  UNL     1      21.980   4.928  45.361  1.00  0.00    -0.010 C 
HETATM   17  C1  UNL     1      22.345   6.178  45.466  1.00  0.00     0.011 C 
ENDBRANCH  15  16
ENDBRANCH  12  14
ENDBRANCH   1   8
BRANCH   7  18
HETATM   18  C13 UNL     1      26.980  -0.340  52.729  1.00  0.00    -0.034 A 
HETATM   19  C14 UNL     1      27.368  -1.661  52.681  1.00  0.00     0.011 A 
HETATM   20  C15 UNL     1      28.566  -2.185  53.044  1.00  0.00     0.001 A 
HETATM   21  C16 UNL     1      29.511  -1.293  53.519  1.00  0.00     0.000 A 
HETATM   22  C17 UNL     1      29.263   0.046  53.620  1.00  0.00     0.001 A 
HETATM   23  C18 UNL     1      28.013   0.474  53.224  1.00  0.00     0.011 A 
ENDBRANCH   7  18
TORSDOF 4
ENDMDL
MODEL 5
REMARK VINA RESULT:      -8.1      3.206      7.092
REMARK  4 active torsions:
REMARK  status: ('A' for Active; 'I' for Inactive)
REMARK    1  A    between atoms: C2_2  and  C3_3 
REMARK    2  A    between atoms: C4_4  and  C5_5 
REMARK    3  A    between atoms: C8_9  and  N1_10 
REMARK    4  A    between atoms: C12_16  and  C13_17 
ROOT
HETATM    1  N1  UNL     1      24.372   2.064  52.118  1.00  0.00    -0.211 N 
HETATM    2  N2  UNL     1      23.096   1.949  52.664  1.00  0.00    -0.139 NA
HETATM    3  C9  UNL     1      22.943   0.907  53.371  1.00  0.00     0.211 A 
HETATM    4  F1  UNL     1      21.877   0.415  54.072  1.00  0.00    -0.187 F 
HETATM    5  C10 UNL     1      24.207   0.085  53.418  1.00  0.00     0.153 A 
HETATM    6  C11 UNL     1      25.088   0.921  52.564  1.00  0.00     0.047 A 
HETATM    7  C12 UNL     1      26.345   0.669  52.251  1.00  0.00     0.039 C 
ENDROOT
BRANCH   1   8
HETATM    8  C8  UNL     1      24.745   3.162  51.302  1.00  0.00     0.190 C 
HETATM    9  S1  UNL     1      23.550   4.487  51.183  1.00  0.00    -0.084 SA
HETATM   10  C7  UNL     1      24.627   5.649  50.239  1.00  0.00     0.142 C 
HETATM   11  C6  UNL     1      25.718   4.670  49.935  1.00  0.00     0.047 C 
HETATM   12  C5  UNL     1      26.590   5.103  49.003  1.00  0.00     0.028 C 
HETATM   13  N3  UNL     1      25.783   3.438  50.598  1.00  0.00    -0.227 NA
BRANCH  12  14
HETATM   14  C4  UNL     1      26.395   6.417  48.416  1.00  0.00     0.002 C 
HETATM   15  C3  UNL     1      27.485   7.006  48.006  1.00  0.00    -0.001 C 
BRANCH  15  16
HETATM   16  C2  UNL     1      27.210   8.302  47.438  1.00  0.00    -0.010 C 
HETATM   17  C1  UNL     1      26.927   8.952  46.342  1.00  0.00     0.011 C 
ENDBRANCH  15  16
ENDBRANCH  12  14
ENDBRANCH   1   8
BRANCH   7  18
HETATM   18  C13 UNL     1      27.231  -0.412  52.596  1.00  0.00    -0.034 A 
HETATM   19  C14 UNL     1      27.017  -1.762  52.419  1.00  0.00     0.011 A 
HETATM   20  C15 UNL     1      27.841  -2.783  52.766  1.00  0.00     0.001 A 
HETATM   21  C16 UNL     1      29.036  -2.433  53.368  1.00  0.00     0.000 A 
HETATM   22  C17 UNL     1      29.380  -1.132  53.605  1.00  0.00     0.001 A 
HETATM   23  C18 UNL     1      28.470  -0.172  53.214  1.00  0.00     0.011 A 
ENDBRANCH   7  18
TORSDOF 4
ENDMDL
MODEL 6
REMARK VINA RESULT:      -8.1      3.189      5.732
REMARK  4 active torsions:
REMARK  status: ('A' for Active; 'I' for Inactive)
REMARK    1  A    between atoms: C2_2  and  C3_3 
REMARK    2  A    between atoms: C4_4  and  C5_5 
REMARK    3  A    between atoms: C8_9  and  N1_10 
REMARK    4  A    between atoms: C12_16  and  C13_17 
ROOT
HETATM    1  N1  UNL     1      23.595   0.745  52.577  1.00  0.00    -0.211 N 
HETATM    2  N2  UNL     1      22.558   0.300  53.394  1.00  0.00    -0.139 NA
HETATM    3  C9  UNL     1      22.937  -0.514  54.289  1.00  0.00     0.211 A 
HETATM    4  F1  UNL     1      22.266  -1.180  55.277  1.00  0.00    -0.187 F 
HETATM    5  C10 UNL     1      24.423  -0.765  54.210  1.00  0.00     0.153 A 
HETATM    6  C11 UNL     1      24.767   0.102  53.054  1.00  0.00     0.047 A 
HETATM    7  C12 UNL     1      25.966   0.270  52.529  1.00  0.00     0.039 C 
ENDROOT
BRANCH   1   8
HETATM    8  C8  UNL     1      23.376   1.665  51.520  1.00  0.00     0.190 C 
HETATM    9  S1  UNL     1      22.031   1.274  50.409  1.00  0.00    -0.084 SA
HETATM   10  C7  UNL     1      22.091   2.850  49.452  1.00  0.00     0.142 C 
HETATM   11  C6  UNL     1      23.382   3.351  50.021  1.00  0.00     0.047 C 
HETATM   12  C5  UNL     1      23.903   4.394  49.344  1.00  0.00     0.028 C 
HETATM   13  N3  UNL     1      23.944   2.759  51.160  1.00  0.00    -0.227 NA
BRANCH  12  14
HETATM   14  C4  UNL     1      23.191   4.905  48.186  1.00  0.00     0.002 C 
HETATM   15  C3  UNL     1      23.460   6.144  47.875  1.00  0.00    -0.001 C 
BRANCH  15  16
HETATM   16  C2  UNL     1      22.716   6.578  46.720  1.00  0.00    -0.010 C 
HETATM   17  C1  UNL     1      22.069   6.188  45.655  1.00  0.00     0.011 C 
ENDBRANCH  15  16
ENDBRANCH  12  14
ENDBRANCH   1   8
BRANCH   7  18
HETATM   18  C13 UNL     1      27.255  -0.280  52.862  1.00  0.00    -0.034 A 
HETATM   19  C14 UNL     1      27.647  -1.600  52.795  1.00  0.00     0.011 A 
HETATM   20  C15 UNL     1      28.853  -2.122  53.131  1.00  0.00     0.001 A 
HETATM   21  C16 UNL     1      29.803  -1.231  53.598  1.00  0.00     0.000 A 
HETATM   22  C17 UNL     1      29.551   0.106  53.716  1.00  0.00     0.001 A 
HETATM   23  C18 UNL     1      28.293   0.533  53.347  1.00  0.00     0.011 A 
ENDBRANCH   7  18
TORSDOF 4
ENDMDL
MODEL 7
REMARK VINA RESULT:      -8.0      3.367      6.027
REMARK  4 active torsions:
REMARK  status: ('A' for Active; 'I' for Inactive)
REMARK    1  A    between atoms: C2_2  and  C3_3 
REMARK    2  A    between atoms: C4_4  and  C5_5 
REMARK    3  A    between atoms: C8_9  and  N1_10 
REMARK    4  A    between atoms: C12_16  and  C13_17 
ROOT
HETATM    1  N1  UNL     1      23.479   1.136  52.925  1.00  0.00    -0.211 N 
HETATM    2  N2  UNL     1      22.349   0.628  53.561  1.00  0.00    -0.139 NA
HETATM    3  C9  UNL     1      22.562  -0.465  54.168  1.00  0.00     0.211 A 
HETATM    4  F1  UNL     1      21.752  -1.286  54.902  1.00  0.00    -0.187 F 
HETATM    5  C10 UNL     1      23.998  -0.901  54.025  1.00  0.00     0.153 A 
HETATM    6  C11 UNL     1      24.521   0.210  53.190  1.00  0.00     0.047 A 
HETATM    7  C12 UNL     1      25.759   0.344  52.749  1.00  0.00     0.039 C 
ENDROOT
BRANCH   1   8
HETATM    8  C8  UNL     1      23.448   2.353  52.197  1.00  0.00     0.190 C 
HETATM    9  S1  UNL     1      23.112   2.209  50.447  1.00  0.00    -0.084 SA
HETATM   10  C7  UNL     1      22.980   4.018  50.115  1.00  0.00     0.142 C 
HETATM   11  C6  UNL     1      23.493   4.479  51.443  1.00  0.00     0.047 C 
HETATM   12  C5  UNL     1      23.798   5.791  51.481  1.00  0.00     0.028 C 
HETATM   13  N3  UNL     1      23.615   3.586  52.516  1.00  0.00    -0.227 NA
BRANCH  12  14
HETATM   14  C4  UNL     1      23.603   6.591  50.284  1.00  0.00     0.002 C 
HETATM   15  C3  UNL     1      23.066   7.764  50.485  1.00  0.00    -0.001 C 
BRANCH  15  16
HETATM   16  C2  UNL     1      22.904   8.495  49.254  1.00  0.00    -0.010 C 
HETATM   17  C1  UNL     1      22.284   9.485  48.670  1.00  0.00     0.011 C 
ENDBRANCH  15  16
ENDBRANCH  12  14
ENDBRANCH   1   8
BRANCH   7  18
HETATM   18  C13 UNL     1      26.937  -0.469  52.906  1.00  0.00    -0.034 A 
HETATM   19  C14 UNL     1      27.071  -1.813  52.636  1.00  0.00     0.011 A 
HETATM   20  C15 UNL     1      28.174  -2.585  52.806  1.00  0.00     0.001 A 
HETATM   21  C16 UNL     1      29.296  -1.953  53.312  1.00  0.00     0.000 A 
HETATM   22  C17 UNL     1      29.306  -0.624  53.624  1.00  0.00     0.001 A 
HETATM   23  C18 UNL     1      28.132   0.069  53.413  1.00  0.00     0.011 A 
ENDBRANCH   7  18
TORSDOF 4
ENDMDL
MODEL 8
REMARK VINA RESULT:      -7.7      2.223      4.474
REMARK  4 active torsions:
REMARK  status: ('A' for Active; 'I' for Inactive)
REMARK    1  A    between atoms: C2_2  and  C3_3 
REMARK    2  A    between atoms: C4_4  and  C5_5 
REMARK    3  A    between atoms: C8_9  and  N1_10 
REMARK    4  A    between atoms: C12_16  and  C13_17 
ROOT
HETATM    1  N1  UNL     1      24.782   0.717  52.365  1.00  0.00    -0.211 N 
HETATM    2  N2  UNL     1      25.722  -0.109  52.977  1.00  0.00    -0.139 NA
HETATM    3  C9  UNL     1      26.919   0.264  52.786  1.00  0.00     0.211 A 
HETATM    4  F1  UNL     1      28.120  -0.244  53.194  1.00  0.00    -0.187 F 
HETATM    5  C10 UNL     1      26.977   1.513  51.942  1.00  0.00     0.153 A 
HETATM    6  C11 UNL     1      25.527   1.733  51.710  1.00  0.00     0.047 A 
HETATM    7  C12 UNL     1      24.984   2.713  51.011  1.00  0.00     0.039 C 
ENDROOT
BRANCH   1   8
HETATM    8  C8  UNL     1      23.388   0.473  52.466  1.00  0.00     0.190 C 
HETATM    9  S1  UNL     1      22.872  -0.555  53.835  1.00  0.00    -0.084 SA
HETATM   10  C7  UNL     1      21.058  -0.333  53.584  1.00  0.00     0.142 C 
HETATM   11  C6  UNL     1      21.146   0.341  52.251  1.00  0.00     0.047 C 
HETATM   12  C5  UNL     1      19.965   0.424  51.607  1.00  0.00     0.028 C 
HETATM   13  N3  UNL     1      22.368   0.832  51.772  1.00  0.00    -0.227 NA
BRANCH  12  14
HETATM   14  C4  UNL     1      18.779  -0.121  52.244  1.00  0.00     0.002 C 
HETATM   15  C3  UNL     1      17.832  -0.489  51.425  1.00  0.00    -0.001 C 
BRANCH  15  16
HETATM   16  C2  UNL     1      16.692  -1.017  52.130  1.00  0.00    -0.010 C 
HETATM   17  C1  UNL     1      15.531  -1.602  52.004  1.00  0.00     0.011 C 
ENDBRANCH  15  16
ENDBRANCH  12  14
ENDBRANCH   1   8
BRANCH   7  18
HETATM   18  C13 UNL     1      25.556   3.818  50.288  1.00  0.00    -0.034 A 
HETATM   19  C14 UNL     1      25.079   5.109  50.212  1.00  0.00     0.011 A 
HETATM   20  C15 UNL     1      25.604   6.145  49.512  1.00  0.00     0.001 A 
HETATM   21  C16 UNL     1      26.751   5.880  48.786  1.00  0.00     0.000 A 
HETATM   22  C17 UNL     1      27.334   4.645  48.769  1.00  0.00     0.001 A 
HETATM   23  C18 UNL     1      26.719   3.662  49.516  1.00  0.00     0.011 A 
ENDBRANCH   7  18
TORSDOF 4
ENDMDL
MODEL 9
REMARK VINA RESULT:      -7.6      4.645      9.251
REMARK  4 active torsions:
REMARK  status: ('A' for Active; 'I' for Inactive)
REMARK    1  A    between atoms: C2_2  and  C3_3 
REMARK    2  A    between atoms: C4_4  and  C5_5 
REMARK    3  A    between atoms: C8_9  and  N1_10 
REMARK    4  A    between atoms: C12_16  and  C13_17 
ROOT
HETATM    1  N1  UNL     1      25.629   4.246  49.409  1.00  0.00    -0.211 N 
HETATM    2  N2  UNL     1      24.353   4.522  48.925  1.00  0.00    -0.139 NA
HETATM    3  C9  UNL     1      23.451   3.790  49.436  1.00  0.00     0.211 A 
HETATM    4  F1  UNL     1      22.099   3.726  49.250  1.00  0.00    -0.187 F 
HETATM    5  C10 UNL     1      24.032   2.821  50.435  1.00  0.00     0.153 A 
HETATM    6  C11 UNL     1      25.468   3.192  50.347  1.00  0.00     0.047 A 
HETATM    7  C12 UNL     1      26.462   2.647  51.023  1.00  0.00     0.039 C 
ENDROOT
BRANCH   1   8
HETATM    8  C8  UNL     1      26.771   4.960  48.966  1.00  0.00     0.190 C 
HETATM    9  S1  UNL     1      26.522   6.697  48.621  1.00  0.00    -0.084 SA
HETATM   10  C7  UNL     1      28.297   7.104  48.330  1.00  0.00     0.142 C 
HETATM   11  C6  UNL     1      28.798   5.694  48.301  1.00  0.00     0.047 C 
HETATM   12  C5  UNL     1      30.057   5.576  47.832  1.00  0.00     0.028 C 
HETATM   13  N3  UNL     1      27.994   4.636  48.744  1.00  0.00    -0.227 NA
BRANCH  12  14
HETATM   14  C4  UNL     1      30.769   6.775  47.424  1.00  0.00     0.002 C 
HETATM   15  C3  UNL     1      31.976   6.890  47.905  1.00  0.00    -0.001 C 
BRANCH  15  16
HETATM   16  C2  UNL     1      32.616   8.102  47.457  1.00  0.00    -0.010 C 
HETATM   17  C1  UNL     1      33.757   8.666  47.165  1.00  0.00     0.011 C 
ENDBRANCH  15  16
ENDBRANCH  12  14
ENDBRANCH   1   8
BRANCH   7  18
HETATM   18  C13 UNL     1      26.503   1.591  52.001  1.00  0.00    -0.034 A 
HETATM   19  C14 UNL     1      26.619   0.238  51.771  1.00  0.00     0.011 A 
HETATM   20  C15 UNL     1      26.635  -0.760  52.691  1.00  0.00     0.001 A 
HETATM   21  C16 UNL     1      26.520  -0.378  54.015  1.00  0.00     0.000 A 
HETATM   22  C17 UNL     1      26.398   0.930  54.390  1.00  0.00     0.001 A 
HETATM   23  C18 UNL     1      26.394   1.864  53.375  1.00  0.00     0.011 A 
ENDBRANCH   7  18
TORSDOF 4
ENDMDL
