MODEL 1
REMARK VINA RESULT:      -8.0      0.000      0.000
REMARK  7 active torsions:
REMARK  status: ('A' for Active; 'I' for Inactive)
REMARK    1  A    between atoms: O1_2  and  C2_3 
REMARK    2  A    between atoms: C7_8  and  C8_9 
REMARK    3  A    between atoms: C8_9  and  O2_10 
REMARK    4  A    between atoms: O2_10  and  C9_11 
REMARK    5  A    between atoms: C9_11  and  C10_12 
REMARK    6  A    between atoms: C10_12  and  C11_13 
REMARK    7  A    between atoms: C11_13  and  N1_14 
ROOT
HETATM    1  C2  UNL     1      24.665   5.340  49.216  1.00  0.00     0.082 A 
HETATM    2  C3  UNL     1      25.165   6.437  48.576  1.00  0.00     0.070 A 
HETATM    3  C4  UNL     1      26.504   6.496  48.284  1.00  0.00     0.079 A 
HETATM    4  C5  UNL     1      27.383   5.480  48.616  1.00  0.00     0.051 A 
HETATM    5  C6  UNL     1      26.910   4.366  49.259  1.00  0.00     0.038 A 
HETATM    6  C7  UNL     1      25.559   4.352  49.531  1.00  0.00     0.021 A 
HETATM    7  S1  UNL     1      29.120   5.618  48.208  1.00  0.00    -0.012 SA
HETATM    8  N2  UNL     1      29.491   7.249  47.630  1.00  0.00    -0.324 N 
HETATM    9  C16 UNL     1      29.409   8.616  48.006  1.00  0.00     0.069 A 
HETATM   10  C17 UNL     1      30.620   8.981  48.553  1.00  0.00     0.035 A 
HETATM   11  C18 UNL     1      30.960  10.242  49.062  1.00  0.00     0.046 A 
HETATM   12  C19 UNL     1      29.938  11.163  48.977  1.00  0.00     0.140 A 
HETATM   13  F1  UNL     1      30.257  12.405  49.474  1.00  0.00    -0.204 F 
HETATM   14  C20 UNL     1      28.708  10.810  48.426  1.00  0.00     0.103 A 
HETATM   15 CL1  UNL     1      27.593  12.169  48.442  1.00  0.00    -0.078 Cl
HETATM   16  C21 UNL     1      28.411   9.557  47.934  1.00  0.00     0.110 A 
HETATM   17  N3  UNL     1      27.090   9.575  47.455  1.00  0.00    -0.238 NA
HETATM   18  C22 UNL     1      26.313   8.588  47.286  1.00  0.00     0.234 C 
HETATM   19  N4  UNL     1      27.078   7.476  47.687  1.00  0.00    -0.241 NA
HETATM   20  H21 UNL     1      29.943   7.324  46.695  1.00  0.00     0.174 HD
ENDROOT
BRANCH   6  21
HETATM   21  C8  UNL     1      25.156   3.273  50.143  1.00  0.00     0.148 C 
BRANCH  21  22
HETATM   22  O2  UNL     1      24.251   2.441  50.742  1.00  0.00    -0.362 OA
BRANCH  22  23
HETATM   23  C9  UNL     1      23.987   2.387  52.129  1.00  0.00     0.176 C 
BRANCH  23  24
HETATM   24  C10 UNL     1      24.361   0.985  52.616  1.00  0.00     0.057 C 
BRANCH  24  25
HETATM   25  C11 UNL     1      25.616   1.142  53.461  1.00  0.00     0.274 C 
BRANCH  25  26
HETATM   26  N1  UNL     1      26.819   0.967  52.684  1.00  0.00     0.092 N 
HETATM   27  C12 UNL     1      27.655   2.154  52.642  1.00  0.00     0.298 C 
HETATM   28  C13 UNL     1      28.781   2.103  53.653  1.00  0.00     0.198 C 
HETATM   29  O3  UNL     1      28.330   1.472  54.834  1.00  0.00    -0.388 OA
HETATM   30  C14 UNL     1      28.098   0.115  54.604  1.00  0.00     0.198 C 
HETATM   31  C15 UNL     1      27.638  -0.109  53.171  1.00  0.00     0.298 C 
ENDBRANCH  25  26
ENDBRANCH  24  25
ENDBRANCH  23  24
ENDBRANCH  22  23
ENDBRANCH  21  22
ENDBRANCH   6  21
BRANCH   1  32
HETATM   32  O1  UNL     1      23.311   5.285  49.508  1.00  0.00    -0.355 OA
HETATM   33  C1  UNL     1      22.734   6.177  50.442  1.00  0.00     0.210 C 
ENDBRANCH   1  32
TORSDOF 7
ENDMDL
MODEL 2
REMARK VINA RESULT:      -7.8      5.379      8.896
REMARK  7 active torsions:
REMARK  status: ('A' for Active; 'I' for Inactive)
REMARK    1  A    between atoms: O1_2  and  C2_3 
REMARK    2  A    between atoms: C7_8  and  C8_9 
REMARK    3  A    between atoms: C8_9  and  O2_10 
REMARK    4  A    between atoms: O2_10  and  C9_11 
REMARK    5  A    between atoms: C9_11  and  C10_12 
REMARK    6  A    between atoms: C10_12  and  C11_13 
REMARK    7  A    between atoms: C11_13  and  N1_14 
ROOT
HETATM    1  C2  UNL     1      25.832   5.655  49.483  1.00  0.00     0.082 A 
HETATM    2  C3  UNL     1      24.777   5.443  50.322  1.00  0.00     0.070 A 
HETATM    3  C4  UNL     1      24.674   4.249  50.990  1.00  0.00     0.079 A 
HETATM    4  C5  UNL     1      25.606   3.236  50.848  1.00  0.00     0.051 A 
HETATM    5  C6  UNL     1      26.678   3.420  50.014  1.00  0.00     0.038 A 
HETATM    6  C7  UNL     1      26.738   4.635  49.365  1.00  0.00     0.021 A 
HETATM    7  S1  UNL     1      25.415   1.700  51.748  1.00  0.00    -0.012 SA
HETATM    8  N2  UNL     1      23.829   1.637  52.530  1.00  0.00    -0.324 N 
HETATM    9  C16 UNL     1      22.439   1.716  52.251  1.00  0.00     0.069 A 
HETATM   10  C17 UNL     1      21.959   0.431  52.105  1.00  0.00     0.035 A 
HETATM   11  C18 UNL     1      20.639   0.062  51.812  1.00  0.00     0.046 A 
HETATM   12  C19 UNL     1      19.786   1.135  51.670  1.00  0.00     0.140 A 
HETATM   13  F1  UNL     1      18.488   0.787  51.381  1.00  0.00    -0.204 F 
HETATM   14  C20 UNL     1      20.255   2.439  51.816  1.00  0.00     0.103 A 
HETATM   15 CL1  UNL     1      18.962   3.607  51.583  1.00  0.00    -0.078 Cl
HETATM   16  C21 UNL     1      21.564   2.763  52.105  1.00  0.00     0.110 A 
HETATM   17  N3  UNL     1      21.662   4.164  52.183  1.00  0.00    -0.238 NA
HETATM   18  C22 UNL     1      22.700   4.877  52.047  1.00  0.00     0.234 C 
HETATM   19  N4  UNL     1      23.727   3.946  51.799  1.00  0.00    -0.241 NA
HETATM   20  H21 UNL     1      23.820   1.473  53.558  1.00  0.00     0.174 HD
ENDROOT
BRANCH   6  21
HETATM   21  C8  UNL     1      27.773   4.763  48.582  1.00  0.00     0.148 C 
BRANCH  21  22
HETATM   22  O2  UNL     1      29.087   4.983  48.276  1.00  0.00    -0.362 OA
BRANCH  22  23
HETATM   23  C9  UNL     1      29.639   6.227  47.893  1.00  0.00     0.176 C 
BRANCH  23  24
HETATM   24  C10 UNL     1      30.917   6.436  48.706  1.00  0.00     0.057 C 
BRANCH  24  25
HETATM   25  C11 UNL     1      31.754   5.177  48.527  1.00  0.00     0.274 C 
BRANCH  25  26
HETATM   26  N1  UNL     1      32.836   5.374  47.593  1.00  0.00     0.092 N 
HETATM   27  C12 UNL     1      34.145   5.108  48.164  1.00  0.00     0.298 C 
HETATM   28  C13 UNL     1      34.646   3.718  47.833  1.00  0.00     0.198 C 
HETATM   29  O3  UNL     1      33.563   2.811  47.832  1.00  0.00    -0.388 OA
HETATM   30  C14 UNL     1      32.714   3.066  46.754  1.00  0.00     0.198 C 
HETATM   31  C15 UNL     1      32.711   4.551  46.422  1.00  0.00     0.298 C 
ENDBRANCH  25  26
ENDBRANCH  24  25
ENDBRANCH  23  24
ENDBRANCH  22  23
ENDBRANCH  21  22
ENDBRANCH   6  21
BRANCH   1  32
HETATM   32  O1  UNL     1      25.932   6.864  48.811  1.00  0.00    -0.355 OA
HETATM   33  C1  UNL     1      26.489   8.000  49.442  1.00  0.00     0.210 C 
ENDBRANCH   1  32
TORSDOF 7
ENDMDL
MODEL 3
REMARK VINA RESULT:      -7.7      8.263     11.100
REMARK  7 active torsions:
REMARK  status: ('A' for Active; 'I' for Inactive)
REMARK    1  A    between atoms: O1_2  and  C2_3 
REMARK    2  A    between atoms: C7_8  and  C8_9 
REMARK    3  A    between atoms: C8_9  and  O2_10 
REMARK    4  A    between atoms: O2_10  and  C9_11 
REMARK    5  A    between atoms: C9_11  and  C10_12 
REMARK    6  A    between atoms: C10_12  and  C11_13 
REMARK    7  A    between atoms: C11_13  and  N1_14 
ROOT
HETATM    1  C2  UNL     1      21.163   0.321  52.801  1.00  0.00     0.082 A 
HETATM    2  C3  UNL     1      19.852   0.127  52.475  1.00  0.00     0.070 A 
HETATM    3  C4  UNL     1      19.156   1.129  51.849  1.00  0.00     0.079 A 
HETATM    4  C5  UNL     1      19.732   2.346  51.528  1.00  0.00     0.051 A 
HETATM    5  C6  UNL     1      21.048   2.570  51.842  1.00  0.00     0.038 A 
HETATM    6  C7  UNL     1      21.705   1.534  52.470  1.00  0.00     0.021 A 
HETATM    7  S1  UNL     1      18.770   3.614  50.710  1.00  0.00    -0.012 SA
HETATM    8  N2  UNL     1      17.060   3.160  50.667  1.00  0.00    -0.324 N 
HETATM    9  C16 UNL     1      15.976   2.797  51.510  1.00  0.00     0.069 A 
HETATM   10  C17 UNL     1      15.242   3.933  51.774  1.00  0.00     0.035 A 
HETATM   11  C18 UNL     1      14.095   4.018  52.575  1.00  0.00     0.046 A 
HETATM   12  C19 UNL     1      13.716   2.811  53.122  1.00  0.00     0.140 A 
HETATM   13  F1  UNL     1      12.592   2.880  53.912  1.00  0.00    -0.204 F 
HETATM   14  C20 UNL     1      14.447   1.654  52.864  1.00  0.00     0.103 A 
HETATM   15 CL1  UNL     1      13.746   0.266  53.684  1.00  0.00    -0.078 Cl
HETATM   16  C21 UNL     1      15.572   1.610  52.069  1.00  0.00     0.110 A 
HETATM   17  N3  UNL     1      16.033   0.282  52.033  1.00  0.00    -0.238 NA
HETATM   18  C22 UNL     1      17.200  -0.126  51.758  1.00  0.00     0.234 C 
HETATM   19  N4  UNL     1      17.924   1.053  51.498  1.00  0.00    -0.241 NA
HETATM   20  H21 UNL     1      16.604   3.139  49.731  1.00  0.00     0.174 HD
ENDROOT
BRANCH   6  21
HETATM   21  C8  UNL     1      22.952   1.794  52.749  1.00  0.00     0.148 C 
BRANCH  21  22
HETATM   22  O2  UNL     1      23.999   2.545  53.207  1.00  0.00    -0.362 OA
BRANCH  22  23
HETATM   23  C9  UNL     1      25.363   2.182  53.119  1.00  0.00     0.176 C 
BRANCH  23  24
HETATM   24  C10 UNL     1      25.423   0.681  52.831  1.00  0.00     0.057 C 
BRANCH  24  25
HETATM   25  C11 UNL     1      26.892   0.339  52.626  1.00  0.00     0.274 C 
BRANCH  25  26
HETATM   26  N1  UNL     1      27.390  -0.547  53.650  1.00  0.00     0.092 N 
HETATM   27  C12 UNL     1      28.454  -1.421  53.188  1.00  0.00     0.298 C 
HETATM   28  C13 UNL     1      29.829  -0.892  53.540  1.00  0.00     0.198 C 
HETATM   29  O3  UNL     1      29.836   0.517  53.436  1.00  0.00    -0.388 OA
HETATM   30  C14 UNL     1      29.052   1.084  54.441  1.00  0.00     0.198 C 
HETATM   31  C15 UNL     1      27.894   0.163  54.795  1.00  0.00     0.298 C 
ENDBRANCH  25  26
ENDBRANCH  24  25
ENDBRANCH  23  24
ENDBRANCH  22  23
ENDBRANCH  21  22
ENDBRANCH   6  21
BRANCH   1  32
HETATM   32  O1  UNL     1      21.862  -0.696  53.434  1.00  0.00    -0.355 OA
HETATM   33  C1  UNL     1      21.197  -1.617  54.274  1.00  0.00     0.210 C 
ENDBRANCH   1  32
TORSDOF 7
ENDMDL
MODEL 4
REMARK VINA RESULT:      -7.6      8.240     12.088
REMARK  7 active torsions:
REMARK  status: ('A' for Active; 'I' for Inactive)
REMARK    1  A    between atoms: O1_2  and  C2_3 
REMARK    2  A    between atoms: C7_8  and  C8_9 
REMARK    3  A    between atoms: C8_9  and  O2_10 
REMARK    4  A    between atoms: O2_10  and  C9_11 
REMARK    5  A    between atoms: C9_11  and  C10_12 
REMARK    6  A    between atoms: C10_12  and  C11_13 
REMARK    7  A    between atoms: C11_13  and  N1_14 
ROOT
HETATM    1  C2  UNL     1      20.026   1.566  49.732  1.00  0.00     0.082 A 
HETATM    2  C3  UNL     1      18.841   1.132  50.252  1.00  0.00     0.070 A 
HETATM    3  C4  UNL     1      18.837   0.436  51.434  1.00  0.00     0.079 A 
HETATM    4  C5  UNL     1      19.997   0.148  52.131  1.00  0.00     0.051 A 
HETATM    5  C6  UNL     1      21.203   0.570  51.634  1.00  0.00     0.038 A 
HETATM    6  C7  UNL     1      21.156   1.266  50.445  1.00  0.00     0.021 A 
HETATM    7  S1  UNL     1      19.925  -0.766  53.668  1.00  0.00    -0.012 SA
HETATM    8  N2  UNL     1      18.296  -1.405  53.930  1.00  0.00    -0.324 N 
HETATM    9  C16 UNL     1      17.303  -2.223  53.328  1.00  0.00     0.069 A 
HETATM   10  C17 UNL     1      17.438  -3.499  53.832  1.00  0.00     0.035 A 
HETATM   11  C18 UNL     1      16.662  -4.616  53.493  1.00  0.00     0.046 A 
HETATM   12  C19 UNL     1      15.686  -4.345  52.559  1.00  0.00     0.140 A 
HETATM   13  F1  UNL     1      14.918  -5.433  52.216  1.00  0.00    -0.204 F 
HETATM   14  C20 UNL     1      15.537  -3.061  52.040  1.00  0.00     0.103 A 
HETATM   15 CL1  UNL     1      14.223  -2.997  50.873  1.00  0.00    -0.078 Cl
HETATM   16  C21 UNL     1      16.320  -1.985  52.399  1.00  0.00     0.110 A 
HETATM   17  N3  UNL     1      15.876  -0.860  51.683  1.00  0.00    -0.238 NA
HETATM   18  C22 UNL     1      16.524   0.197  51.420  1.00  0.00     0.234 C 
HETATM   19  N4  UNL     1      17.784  -0.016  52.010  1.00  0.00    -0.241 NA
HETATM   20  H21 UNL     1      17.830  -1.150  54.826  1.00  0.00     0.174 HD
ENDROOT
BRANCH   6  21
HETATM   21  C8  UNL     1      22.326   1.647  50.011  1.00  0.00     0.148 C 
BRANCH  21  22
HETATM   22  O2  UNL     1      23.378   2.504  49.846  1.00  0.00    -0.362 OA
BRANCH  22  23
HETATM   23  C9  UNL     1      24.581   2.471  50.588  1.00  0.00     0.176 C 
BRANCH  23  24
HETATM   24  C10 UNL     1      24.210   2.516  52.072  1.00  0.00     0.057 C 
BRANCH  24  25
HETATM   25  C11 UNL     1      24.848   1.292  52.714  1.00  0.00     0.274 C 
BRANCH  25  26
HETATM   26  N1  UNL     1      26.255   1.193  52.412  1.00  0.00     0.092 N 
HETATM   27  C12 UNL     1      27.110   1.612  53.509  1.00  0.00     0.298 C 
HETATM   28  C13 UNL     1      27.614   0.441  54.327  1.00  0.00     0.198 C 
HETATM   29  O3  UNL     1      26.604  -0.543  54.417  1.00  0.00    -0.388 OA
HETATM   30  C14 UNL     1      26.393  -1.141  53.174  1.00  0.00     0.198 C 
HETATM   31  C15 UNL     1      26.650  -0.142  52.055  1.00  0.00     0.298 C 
ENDBRANCH  25  26
ENDBRANCH  24  25
ENDBRANCH  23  24
ENDBRANCH  22  23
ENDBRANCH  21  22
ENDBRANCH   6  21
BRANCH   1  32
HETATM   32  O1  UNL     1      20.025   2.270  48.537  1.00  0.00    -0.355 OA
HETATM   33  C1  UNL     1      19.037   3.247  48.274  1.00  0.00     0.210 C 
ENDBRANCH   1  32
TORSDOF 7
ENDMDL
MODEL 5
REMARK VINA RESULT:      -7.5      8.251     11.695
REMARK  7 active torsions:
REMARK  status: ('A' for Active; 'I' for Inactive)
REMARK    1  A    between atoms: O1_2  and  C2_3 
REMARK    2  A    between atoms: C7_8  and  C8_9 
REMARK    3  A    between atoms: C8_9  and  O2_10 
REMARK    4  A    between atoms: O2_10  and  C9_11 
REMARK    5  A    between atoms: C9_11  and  C10_12 
REMARK    6  A    between atoms: C10_12  and  C11_13 
REMARK    7  A    between atoms: C11_13  and  N1_14 
ROOT
HETATM    1  C2  UNL     1      18.103  -0.689  52.419  1.00  0.00     0.082 A 
HETATM    2  C3  UNL     1      19.315  -0.481  53.012  1.00  0.00     0.070 A 
HETATM    3  C4  UNL     1      19.975   0.702  52.800  1.00  0.00     0.079 A 
HETATM    4  C5  UNL     1      19.461   1.708  52.000  1.00  0.00     0.051 A 
HETATM    5  C6  UNL     1      18.246   1.529  51.393  1.00  0.00     0.038 A 
HETATM    6  C7  UNL     1      17.620   0.324  51.635  1.00  0.00     0.021 A 
HETATM    7  S1  UNL     1      20.374   3.230  51.763  1.00  0.00    -0.012 SA
HETATM    8  N2  UNL     1      22.003   3.083  52.438  1.00  0.00    -0.324 N 
HETATM    9  C16 UNL     1      23.182   2.295  52.360  1.00  0.00     0.069 A 
HETATM   10  C17 UNL     1      24.047   2.908  51.479  1.00  0.00     0.035 A 
HETATM   11  C18 UNL     1      25.320   2.452  51.107  1.00  0.00     0.046 A 
HETATM   12  C19 UNL     1      25.681   1.270  51.717  1.00  0.00     0.140 A 
HETATM   13  F1  UNL     1      26.927   0.811  51.360  1.00  0.00    -0.204 F 
HETATM   14  C20 UNL     1      24.817   0.639  52.609  1.00  0.00     0.103 A 
HETATM   15 CL1  UNL     1      25.526  -0.843  53.236  1.00  0.00    -0.078 Cl
HETATM   16  C21 UNL     1      23.571   1.119  52.951  1.00  0.00     0.110 A 
HETATM   17  N3  UNL     1      22.996   0.229  53.875  1.00  0.00    -0.238 NA
HETATM   18  C22 UNL     1      21.768   0.076  54.144  1.00  0.00     0.234 C 
HETATM   19  N4  UNL     1      21.116   1.001  53.306  1.00  0.00    -0.241 NA
HETATM   20  H21 UNL     1      22.285   3.798  53.141  1.00  0.00     0.174 HD
ENDROOT
BRANCH   6  21
HETATM   21  C8  UNL     1      16.469   0.199  51.036  1.00  0.00     0.148 C 
BRANCH  21  22
HETATM   22  O2  UNL     1      15.133   0.417  50.839  1.00  0.00    -0.362 OA
BRANCH  22  23
HETATM   23  C9  UNL     1      14.095  -0.108  51.642  1.00  0.00     0.176 C 
BRANCH  23  24
HETATM   24  C10 UNL     1      14.246   0.488  53.042  1.00  0.00     0.057 C 
BRANCH  24  25
HETATM   25  C11 UNL     1      14.027   1.988  52.899  1.00  0.00     0.274 C 
BRANCH  25  26
HETATM   26  N1  UNL     1      12.641   2.313  52.668  1.00  0.00     0.092 N 
HETATM   27  C12 UNL     1      11.772   1.953  53.775  1.00  0.00     0.298 C 
HETATM   28  C13 UNL     1      11.480   3.129  54.684  1.00  0.00     0.198 C 
HETATM   29  O3  UNL     1      12.629   3.945  54.788  1.00  0.00    -0.388 OA
HETATM   30  C14 UNL     1      12.883   4.586  53.575  1.00  0.00     0.198 C 
HETATM   31  C15 UNL     1      12.439   3.713  52.410  1.00  0.00     0.298 C 
ENDBRANCH  25  26
ENDBRANCH  24  25
ENDBRANCH  23  24
ENDBRANCH  22  23
ENDBRANCH  21  22
ENDBRANCH   6  21
BRANCH   1  32
HETATM   32  O1  UNL     1      17.438  -1.887  52.637  1.00  0.00    -0.355 OA
HETATM   33  C1  UNL     1      17.796  -2.727  53.716  1.00  0.00     0.210 C 
ENDBRANCH   1  32
TORSDOF 7
ENDMDL
MODEL 6
REMARK VINA RESULT:      -7.5      4.991      9.359
REMARK  7 active torsions:
REMARK  status: ('A' for Active; 'I' for Inactive)
REMARK    1  A    between atoms: O1_2  and  C2_3 
REMARK    2  A    between atoms: C7_8  and  C8_9 
REMARK    3  A    between atoms: C8_9  and  O2_10 
REMARK    4  A    between atoms: O2_10  and  C9_11 
REMARK    5  A    between atoms: C9_11  and  C10_12 
REMARK    6  A    between atoms: C10_12  and  C11_13 
REMARK    7  A    between atoms: C11_13  and  N1_14 
ROOT
HETATM    1  C2  UNL     1      25.415   5.656  49.458  1.00  0.00     0.082 A 
HETATM    2  C3  UNL     1      24.353   5.455  50.291  1.00  0.00     0.070 A 
HETATM    3  C4  UNL     1      24.300   4.316  51.054  1.00  0.00     0.079 A 
HETATM    4  C5  UNL     1      25.289   3.349  51.016  1.00  0.00     0.051 A 
HETATM    5  C6  UNL     1      26.369   3.523  50.189  1.00  0.00     0.038 A 
HETATM    6  C7  UNL     1      26.377   4.682  49.442  1.00  0.00     0.021 A 
HETATM    7  S1  UNL     1      25.161   1.884  52.036  1.00  0.00    -0.012 SA
HETATM    8  N2  UNL     1      23.563   1.795  52.791  1.00  0.00    -0.324 N 
HETATM    9  C16 UNL     1      22.178   1.773  52.481  1.00  0.00     0.069 A 
HETATM   10  C17 UNL     1      21.773   0.456  52.433  1.00  0.00     0.035 A 
HETATM   11  C18 UNL     1      20.482  -0.010  52.148  1.00  0.00     0.046 A 
HETATM   12  C19 UNL     1      19.575   0.998  51.900  1.00  0.00     0.140 A 
HETATM   13  F1  UNL     1      18.305   0.555  51.617  1.00  0.00    -0.204 F 
HETATM   14  C20 UNL     1      19.969   2.334  51.946  1.00  0.00     0.103 A 
HETATM   15 CL1  UNL     1      18.620   3.404  51.592  1.00  0.00    -0.078 Cl
HETATM   16  C21 UNL     1      21.251   2.754  52.231  1.00  0.00     0.110 A 
HETATM   17  N3  UNL     1      21.270   4.159  52.195  1.00  0.00    -0.238 NA
HETATM   18  C22 UNL     1      22.271   4.916  52.018  1.00  0.00     0.234 C 
HETATM   19  N4  UNL     1      23.352   4.027  51.869  1.00  0.00    -0.241 NA
HETATM   20  H21 UNL     1      23.539   1.717  53.829  1.00  0.00     0.174 HD
ENDROOT
BRANCH   6  21
HETATM   21  C8  UNL     1      27.422   4.804  48.671  1.00  0.00     0.148 C 
BRANCH  21  22
HETATM   22  O2  UNL     1      28.753   4.788  48.361  1.00  0.00    -0.362 OA
BRANCH  22  23
HETATM   23  C9  UNL     1      29.562   5.933  48.177  1.00  0.00     0.176 C 
BRANCH  23  24
HETATM   24  C10 UNL     1      28.703   6.999  47.493  1.00  0.00     0.057 C 
BRANCH  24  25
HETATM   25  C11 UNL     1      28.795   8.248  48.358  1.00  0.00     0.274 C 
BRANCH  25  26
HETATM   26  N1  UNL     1      28.986   9.441  47.569  1.00  0.00     0.092 N 
HETATM   27  C12 UNL     1      28.650  10.662  48.281  1.00  0.00     0.298 C 
HETATM   28  C13 UNL     1      29.870  11.340  48.868  1.00  0.00     0.198 C 
HETATM   29  O3  UNL     1      30.783  10.362  49.323  1.00  0.00    -0.388 OA
HETATM   30  C14 UNL     1      31.339   9.675  48.243  1.00  0.00     0.198 C 
HETATM   31  C15 UNL     1      30.338   9.582  47.101  1.00  0.00     0.298 C 
ENDBRANCH  25  26
ENDBRANCH  24  25
ENDBRANCH  23  24
ENDBRANCH  22  23
ENDBRANCH  21  22
ENDBRANCH   6  21
BRANCH   1  32
HETATM   32  O1  UNL     1      25.464   6.809  48.689  1.00  0.00    -0.355 OA
HETATM   33  C1  UNL     1      24.301   7.311  48.062  1.00  0.00     0.210 C 
ENDBRANCH   1  32
TORSDOF 7
ENDMDL
MODEL 7
REMARK VINA RESULT:      -7.3      9.184     12.480
REMARK  7 active torsions:
REMARK  status: ('A' for Active; 'I' for Inactive)
REMARK    1  A    between atoms: O1_2  and  C2_3 
REMARK    2  A    between atoms: C7_8  and  C8_9 
REMARK    3  A    between atoms: C8_9  and  O2_10 
REMARK    4  A    between atoms: O2_10  and  C9_11 
REMARK    5  A    between atoms: C9_11  and  C10_12 
REMARK    6  A    between atoms: C10_12  and  C11_13 
REMARK    7  A    between atoms: C11_13  and  N1_14 
ROOT
HETATM    1  C2  UNL     1      19.046   0.918  51.902  1.00  0.00     0.082 A 
HETATM    2  C3  UNL     1      17.707   0.653  51.937  1.00  0.00     0.070 A 
HETATM    3  C4  UNL     1      16.812   1.678  51.766  1.00  0.00     0.079 A 
HETATM    4  C5  UNL     1      17.211   2.987  51.557  1.00  0.00     0.051 A 
HETATM    5  C6  UNL     1      18.548   3.284  51.516  1.00  0.00     0.038 A 
HETATM    6  C7  UNL     1      19.409   2.222  51.694  1.00  0.00     0.021 A 
HETATM    7  S1  UNL     1      15.992   4.280  51.340  1.00  0.00    -0.012 SA
HETATM    8  N2  UNL     1      14.371   3.666  51.699  1.00  0.00    -0.324 N 
HETATM    9  C16 UNL     1      13.612   3.039  52.723  1.00  0.00     0.069 A 
HETATM   10  C17 UNL     1      12.946   4.023  53.423  1.00  0.00     0.035 A 
HETATM   11  C18 UNL     1      12.095   3.835  54.520  1.00  0.00     0.046 A 
HETATM   12  C19 UNL     1      11.952   2.514  54.886  1.00  0.00     0.140 A 
HETATM   13  F1  UNL     1      11.121   2.315  55.963  1.00  0.00    -0.204 F 
HETATM   14  C20 UNL     1      12.618   1.509  54.189  1.00  0.00     0.103 A 
HETATM   15 CL1  UNL     1      12.260  -0.075  54.863  1.00  0.00    -0.078 Cl
HETATM   16  C21 UNL     1      13.448   1.733  53.111  1.00  0.00     0.110 A 
HETATM   17  N3  UNL     1      13.932   0.491  52.663  1.00  0.00    -0.238 NA
HETATM   18  C22 UNL     1      14.976   0.266  51.982  1.00  0.00     0.234 C 
HETATM   19  N4  UNL     1      15.536   1.542  51.779  1.00  0.00    -0.241 NA
HETATM   20  H21 UNL     1      13.653   3.775  50.953  1.00  0.00     0.174 HD
ENDROOT
BRANCH   6  21
HETATM   21  C8  UNL     1      20.670   2.552  51.648  1.00  0.00     0.148 C 
BRANCH  21  22
HETATM   22  O2  UNL     1      22.000   2.369  51.392  1.00  0.00    -0.362 OA
BRANCH  22  23
HETATM   23  C9  UNL     1      23.059   2.852  52.195  1.00  0.00     0.176 C 
BRANCH  23  24
HETATM   24  C10 UNL     1      23.540   1.693  53.071  1.00  0.00     0.057 C 
BRANCH  24  25
HETATM   25  C11 UNL     1      24.506   0.881  52.220  1.00  0.00     0.274 C 
BRANCH  25  26
HETATM   26  N1  UNL     1      25.882   1.213  52.495  1.00  0.00     0.092 N 
HETATM   27  C12 UNL     1      26.133   1.516  53.893  1.00  0.00     0.298 C 
HETATM   28  C13 UNL     1      26.689   0.327  54.650  1.00  0.00     0.198 C 
HETATM   29  O3  UNL     1      26.089  -0.861  54.173  1.00  0.00    -0.388 OA
HETATM   30  C14 UNL     1      26.515  -1.133  52.872  1.00  0.00     0.198 C 
HETATM   31  C15 UNL     1      26.788   0.162  52.121  1.00  0.00     0.298 C 
ENDBRANCH  25  26
ENDBRANCH  24  25
ENDBRANCH  23  24
ENDBRANCH  22  23
ENDBRANCH  21  22
ENDBRANCH   6  21
BRANCH   1  32
HETATM   32  O1  UNL     1      19.947  -0.122  52.076  1.00  0.00    -0.355 OA
HETATM   33  C1  UNL     1      20.313  -0.554  53.371  1.00  0.00     0.210 C 
ENDBRANCH   1  32
TORSDOF 7
ENDMDL
MODEL 8
REMARK VINA RESULT:      -7.3      5.102      8.755
REMARK  7 active torsions:
REMARK  status: ('A' for Active; 'I' for Inactive)
REMARK    1  A    between atoms: O1_2  and  C2_3 
REMARK    2  A    between atoms: C7_8  and  C8_9 
REMARK    3  A    between atoms: C8_9  and  O2_10 
REMARK    4  A    between atoms: O2_10  and  C9_11 
REMARK    5  A    between atoms: C9_11  and  C10_12 
REMARK    6  A    between atoms: C10_12  and  C11_13 
REMARK    7  A    between atoms: C11_13  and  N1_14 
ROOT
HETATM    1  C2  UNL     1      23.957   6.562  50.530  1.00  0.00     0.082 A 
HETATM    2  C3  UNL     1      24.825   5.508  50.542  1.00  0.00     0.070 A 
HETATM    3  C4  UNL     1      24.351   4.245  50.787  1.00  0.00     0.079 A 
HETATM    4  C5  UNL     1      23.012   3.987  51.026  1.00  0.00     0.051 A 
HETATM    5  C6  UNL     1      22.116   5.024  51.020  1.00  0.00     0.038 A 
HETATM    6  C7  UNL     1      22.640   6.275  50.770  1.00  0.00     0.021 A 
HETATM    7  S1  UNL     1      22.455   2.315  51.340  1.00  0.00    -0.012 SA
HETATM    8  N2  UNL     1      23.840   1.233  51.549  1.00  0.00    -0.324 N 
HETATM    9  C16 UNL     1      25.013   1.052  52.329  1.00  0.00     0.069 A 
HETATM   10  C17 UNL     1      24.709   0.191  53.362  1.00  0.00     0.035 A 
HETATM   11  C18 UNL     1      25.582  -0.243  54.369  1.00  0.00     0.046 A 
HETATM   12  C19 UNL     1      26.853   0.278  54.258  1.00  0.00     0.140 A 
HETATM   13  F1  UNL     1      27.720  -0.139  55.241  1.00  0.00    -0.204 F 
HETATM   14  C20 UNL     1      27.175   1.148  53.219  1.00  0.00     0.103 A 
HETATM   15 CL1  UNL     1      28.855   1.658  53.318  1.00  0.00    -0.078 Cl
HETATM   16  C21 UNL     1      26.288   1.553  52.245  1.00  0.00     0.110 A 
HETATM   17  N3  UNL     1      26.964   2.418  51.367  1.00  0.00    -0.238 NA
HETATM   18  C22 UNL     1      26.462   3.288  50.596  1.00  0.00     0.234 C 
HETATM   19  N4  UNL     1      25.076   3.187  50.821  1.00  0.00    -0.241 NA
HETATM   20  H21 UNL     1      23.881   0.398  50.927  1.00  0.00     0.174 HD
ENDROOT
BRANCH   6  21
HETATM   21  C8  UNL     1      21.751   7.229  50.775  1.00  0.00     0.148 C 
BRANCH  21  22
HETATM   22  O2  UNL     1      20.665   7.926  50.323  1.00  0.00    -0.362 OA
BRANCH  22  23
HETATM   23  C9  UNL     1      20.138   7.856  49.014  1.00  0.00     0.176 C 
BRANCH  23  24
HETATM   24  C10 UNL     1      19.559   6.452  48.823  1.00  0.00     0.057 C 
BRANCH  24  25
HETATM   25  C11 UNL     1      20.033   5.971  47.460  1.00  0.00     0.274 C 
BRANCH  25  26
HETATM   26  N1  UNL     1      21.086   4.991  47.567  1.00  0.00     0.092 N 
HETATM   27  C12 UNL     1      20.866   3.816  46.741  1.00  0.00     0.298 C 
HETATM   28  C13 UNL     1      21.614   3.887  45.426  1.00  0.00     0.198 C 
HETATM   29  O3  UNL     1      21.619   5.220  44.955  1.00  0.00    -0.388 OA
HETATM   30  C14 UNL     1      22.414   6.023  45.773  1.00  0.00     0.198 C 
HETATM   31  C15 UNL     1      22.373   5.523  47.210  1.00  0.00     0.298 C 
ENDBRANCH  25  26
ENDBRANCH  24  25
ENDBRANCH  23  24
ENDBRANCH  22  23
ENDBRANCH  21  22
ENDBRANCH   6  21
BRANCH   1  32
HETATM   32  O1  UNL     1      24.443   7.837  50.282  1.00  0.00    -0.355 OA
HETATM   33  C1  UNL     1      25.777   8.034  49.860  1.00  0.00     0.210 C 
ENDBRANCH   1  32
TORSDOF 7
ENDMDL
MODEL 9
REMARK VINA RESULT:      -7.3      5.236      8.115
REMARK  7 active torsions:
REMARK  status: ('A' for Active; 'I' for Inactive)
REMARK    1  A    between atoms: O1_2  and  C2_3 
REMARK    2  A    between atoms: C7_8  and  C8_9 
REMARK    3  A    between atoms: C8_9  and  O2_10 
REMARK    4  A    between atoms: O2_10  and  C9_11 
REMARK    5  A    between atoms: C9_11  and  C10_12 
REMARK    6  A    between atoms: C10_12  and  C11_13 
REMARK    7  A    between atoms: C11_13  and  N1_14 
ROOT
HETATM    1  C2  UNL     1      27.453   7.533  47.790  1.00  0.00     0.082 A 
HETATM    2  C3  UNL     1      26.182   7.313  48.234  1.00  0.00     0.070 A 
HETATM    3  C4  UNL     1      25.863   6.103  48.797  1.00  0.00     0.079 A 
HETATM    4  C5  UNL     1      26.787   5.082  48.936  1.00  0.00     0.051 A 
HETATM    5  C6  UNL     1      28.072   5.274  48.500  1.00  0.00     0.038 A 
HETATM    6  C7  UNL     1      28.344   6.505  47.941  1.00  0.00     0.021 A 
HETATM    7  S1  UNL     1      26.308   3.525  49.679  1.00  0.00    -0.012 SA
HETATM    8  N2  UNL     1      24.554   3.462  49.902  1.00  0.00    -0.324 N 
HETATM    9  C16 UNL     1      23.330   3.566  49.189  1.00  0.00     0.069 A 
HETATM   10  C17 UNL     1      22.919   2.293  48.857  1.00  0.00     0.035 A 
HETATM   11  C18 UNL     1      21.764   1.949  48.142  1.00  0.00     0.046 A 
HETATM   12  C19 UNL     1      21.008   3.037  47.762  1.00  0.00     0.140 A 
HETATM   13  F1  UNL     1      19.872   2.713  47.057  1.00  0.00    -0.204 F 
HETATM   14  C20 UNL     1      21.409   4.329  48.090  1.00  0.00     0.103 A 
HETATM   15 CL1  UNL     1      20.266   5.520  47.485  1.00  0.00    -0.078 Cl
HETATM   16  C21 UNL     1      22.554   4.629  48.798  1.00  0.00     0.110 A 
HETATM   17  N3  UNL     1      22.626   6.025  48.945  1.00  0.00    -0.238 NA
HETATM   18  C22 UNL     1      23.655   6.728  49.174  1.00  0.00     0.234 C 
HETATM   19  N4  UNL     1      24.703   5.791  49.246  1.00  0.00    -0.241 NA
HETATM   20  H21 UNL     1      24.211   3.271  50.866  1.00  0.00     0.174 HD
ENDROOT
BRANCH   6  21
HETATM   21  C8  UNL     1      29.578   6.640  47.542  1.00  0.00     0.148 C 
BRANCH  21  22
HETATM   22  O2  UNL     1      30.783   7.271  47.400  1.00  0.00    -0.362 OA
BRANCH  22  23
HETATM   23  C9  UNL     1      31.764   7.391  48.411  1.00  0.00     0.176 C 
BRANCH  23  24
HETATM   24  C10 UNL     1      31.992   5.998  49.000  1.00  0.00     0.057 C 
BRANCH  24  25
HETATM   25  C11 UNL     1      33.297   5.486  48.407  1.00  0.00     0.274 C 
BRANCH  25  26
HETATM   26  N1  UNL     1      33.103   4.879  47.113  1.00  0.00     0.092 N 
HETATM   27  C12 UNL     1      34.301   4.880  46.291  1.00  0.00     0.298 C 
HETATM   28  C13 UNL     1      35.043   3.561  46.352  1.00  0.00     0.198 C 
HETATM   29  O3  UNL     1      34.957   3.029  47.658  1.00  0.00    -0.388 OA
HETATM   30  C14 UNL     1      33.650   2.627  47.936  1.00  0.00     0.198 C 
HETATM   31  C15 UNL     1      32.655   3.516  47.204  1.00  0.00     0.298 C 
ENDBRANCH  25  26
ENDBRANCH  24  25
ENDBRANCH  23  24
ENDBRANCH  22  23
ENDBRANCH  21  22
ENDBRANCH   6  21
BRANCH   1  32
HETATM   32  O1  UNL     1      27.770   8.758  47.222  1.00  0.00    -0.355 OA
HETATM   33  C1  UNL     1      27.866   9.922  48.018  1.00  0.00     0.210 C 
ENDBRANCH   1  32
TORSDOF 7
ENDMDL
