MODEL 1
REMARK VINA RESULT:      -8.6      0.000      0.000
REMARK  5 active torsions:
REMARK  status: ('A' for Active; 'I' for Inactive)
REMARK    1  A    between atoms: O1_2  and  C2_3 
REMARK    2  A    between atoms: C9_12  and  C10_13 
REMARK    3  A    between atoms: C10_13  and  C11_14 
REMARK    4  A    between atoms: C11_14  and  C12_15 
REMARK    5  A    between atoms: C12_15  and  O4_17 
ROOT
HETATM    1  C2  UNL     1      26.624   4.403  49.583  1.00  0.00     0.062 C 
HETATM    2  C3  UNL     1      25.963   5.498  49.417  1.00  0.00     0.023 C 
HETATM    3  C4  UNL     1      24.771   5.555  48.926  1.00  0.00     0.106 C 
HETATM    4  N1  UNL     1      23.898   4.443  48.924  1.00  0.00    -0.332 N 
HETATM    5  C5  UNL     1      24.004   3.203  49.645  1.00  0.00     0.254 C 
HETATM    6  O2  UNL     1      23.149   2.323  49.449  1.00  0.00    -0.268 OA
HETATM    7  C6  UNL     1      25.024   2.834  50.608  1.00  0.00     0.042 C 
HETATM    8  C7  UNL     1      24.743   1.983  51.584  1.00  0.00     0.040 C 
HETATM    9  C8  UNL     1      25.691   1.533  52.622  1.00  0.00     0.032 C 
HETATM   10  C9  UNL     1      25.536   0.653  53.636  1.00  0.00    -0.077 C 
HETATM   11  C13 UNL     1      24.675  -0.414  54.166  1.00  0.00     0.034 C 
HETATM   12  C14 UNL     1      23.533  -0.869  53.374  1.00  0.00     0.004 C 
HETATM   13  C15 UNL     1      22.160  -0.446  53.441  1.00  0.00     0.002 C 
HETATM   14  C16 UNL     1      21.614   0.868  53.125  1.00  0.00     0.020 C 
HETATM   15  C17 UNL     1      21.971   1.271  51.677  1.00  0.00     0.119 C 
HETATM   16  N2  UNL     1      23.343   1.624  51.646  1.00  0.00    -0.389 N 
HETATM   17  C18 UNL     1      26.421   3.330  50.606  1.00  0.00     0.112 C 
HETATM   18  H5  UNL     1      23.034   4.444  48.345  1.00  0.00     0.168 HD
HETATM   19  H22 UNL     1      23.495   1.827  52.646  1.00  0.00     0.159 HD
ENDROOT
BRANCH  10  20
HETATM   20  C10 UNL     1      26.814   0.619  54.389  1.00  0.00     0.044 C 
BRANCH  20  21
HETATM   21  C11 UNL     1      28.074   0.457  53.623  1.00  0.00     0.114 C 
BRANCH  21  22
HETATM   22  C12 UNL     1      28.834   1.771  53.877  1.00  0.00     0.139 C 
HETATM   23  O3  UNL     1      29.341   1.975  55.006  1.00  0.00    -0.650 OA
BRANCH  22  24
HETATM   24  O4  UNL     1      29.115   2.865  53.097  1.00  0.00    -0.776 OA
HETATM   25  H11 UNL     1      28.334   3.458  52.778  1.00  0.00     0.167 HD
ENDBRANCH  22  24
ENDBRANCH  21  22
ENDBRANCH  20  21
ENDBRANCH  10  20
BRANCH   1  26
HETATM   26  O1  UNL     1      27.634   4.363  48.603  1.00  0.00    -0.359 OA
HETATM   27  C1  UNL     1      28.483   5.432  48.325  1.00  0.00     0.209 C 
ENDBRANCH   1  26
TORSDOF 5
ENDMDL
MODEL 2
REMARK VINA RESULT:      -8.5      2.768      5.880
REMARK  5 active torsions:
REMARK  status: ('A' for Active; 'I' for Inactive)
REMARK    1  A    between atoms: O1_2  and  C2_3 
REMARK    2  A    between atoms: C9_12  and  C10_13 
REMARK    3  A    between atoms: C10_13  and  C11_14 
REMARK    4  A    between atoms: C11_14  and  C12_15 
REMARK    5  A    between atoms: C12_15  and  O4_17 
ROOT
HETATM    1  C2  UNL     1      27.542  -0.221  53.877  1.00  0.00     0.062 C 
HETATM    2  C3  UNL     1      28.204   0.559  54.663  1.00  0.00     0.023 C 
HETATM    3  C4  UNL     1      28.812   1.629  54.274  1.00  0.00     0.106 C 
HETATM    4  N1  UNL     1      28.474   2.302  53.077  1.00  0.00    -0.332 N 
HETATM    5  C5  UNL     1      27.313   2.142  52.242  1.00  0.00     0.254 C 
HETATM    6  O2  UNL     1      27.241   2.796  51.188  1.00  0.00    -0.268 OA
HETATM    7  C6  UNL     1      26.172   1.280  52.483  1.00  0.00     0.042 C 
HETATM    8  C7  UNL     1      24.978   1.605  52.009  1.00  0.00     0.040 C 
HETATM    9  C8  UNL     1      23.745   0.814  52.189  1.00  0.00     0.032 C 
HETATM   10  C9  UNL     1      22.491   1.021  51.730  1.00  0.00    -0.077 C 
HETATM   11  C13 UNL     1      21.684   1.789  50.770  1.00  0.00     0.034 C 
HETATM   12  C14 UNL     1      22.357   2.674  49.820  1.00  0.00     0.004 C 
HETATM   13  C15 UNL     1      22.622   4.082  49.928  1.00  0.00     0.002 C 
HETATM   14  C16 UNL     1      23.494   4.758  50.882  1.00  0.00     0.020 C 
HETATM   15  C17 UNL     1      24.931   4.198  50.794  1.00  0.00     0.119 C 
HETATM   16  N2  UNL     1      24.941   2.918  51.401  1.00  0.00    -0.389 N 
HETATM   17  C18 UNL     1      26.209   0.003  53.236  1.00  0.00     0.112 C 
HETATM   18  H5  UNL     1      29.101   3.028  52.677  1.00  0.00     0.168 HD
HETATM   19  H22 UNL     1      24.093   2.993  51.984  1.00  0.00     0.159 HD
ENDROOT
BRANCH  10  20
HETATM   20  C10 UNL     1      21.644  -0.079  52.253  1.00  0.00     0.044 C 
BRANCH  20  21
HETATM   21  C11 UNL     1      22.295  -1.145  53.054  1.00  0.00     0.114 C 
BRANCH  21  22
HETATM   22  C12 UNL     1      21.616  -1.041  54.432  1.00  0.00     0.139 C 
HETATM   23  O3  UNL     1      21.893  -1.889  55.314  1.00  0.00    -0.650 OA
BRANCH  22  24
HETATM   24  O4  UNL     1      20.706  -0.169  54.973  1.00  0.00    -0.776 OA
HETATM   25  H11 UNL     1      20.697  -0.036  55.996  1.00  0.00     0.167 HD
ENDBRANCH  22  24
ENDBRANCH  21  22
ENDBRANCH  20  21
ENDBRANCH  10  20
BRANCH   1  26
HETATM   26  O1  UNL     1      28.302  -1.393  53.702  1.00  0.00    -0.359 OA
HETATM   27  C1  UNL     1      29.671  -1.394  53.441  1.00  0.00     0.209 C 
ENDBRANCH   1  26
TORSDOF 5
ENDMDL
MODEL 3
REMARK VINA RESULT:      -8.2      2.022      5.965
REMARK  5 active torsions:
REMARK  status: ('A' for Active; 'I' for Inactive)
REMARK    1  A    between atoms: O1_2  and  C2_3 
REMARK    2  A    between atoms: C9_12  and  C10_13 
REMARK    3  A    between atoms: C10_13  and  C11_14 
REMARK    4  A    between atoms: C11_14  and  C12_15 
REMARK    5  A    between atoms: C12_15  and  O4_17 
ROOT
HETATM    1  C2  UNL     1      27.345   0.378  52.868  1.00  0.00     0.062 C 
HETATM    2  C3  UNL     1      26.714  -0.748  52.848  1.00  0.00     0.023 C 
HETATM    3  C4  UNL     1      25.497  -0.901  53.250  1.00  0.00     0.106 C 
HETATM    4  N1  UNL     1      24.586   0.177  53.337  1.00  0.00    -0.332 N 
HETATM    5  C5  UNL     1      24.692   1.503  52.789  1.00  0.00     0.254 C 
HETATM    6  O2  UNL     1      23.796   2.326  53.039  1.00  0.00    -0.268 OA
HETATM    7  C6  UNL     1      25.755   2.022  51.950  1.00  0.00     0.042 C 
HETATM    8  C7  UNL     1      25.504   2.985  51.074  1.00  0.00     0.040 C 
HETATM    9  C8  UNL     1      26.497   3.591  50.166  1.00  0.00     0.032 C 
HETATM   10  C9  UNL     1      26.373   4.591  49.266  1.00  0.00    -0.077 C 
HETATM   11  C13 UNL     1      25.508   5.694  48.821  1.00  0.00     0.034 C 
HETATM   12  C14 UNL     1      24.304   6.010  49.588  1.00  0.00     0.004 C 
HETATM   13  C15 UNL     1      22.955   5.562  49.378  1.00  0.00     0.002 C 
HETATM   14  C16 UNL     1      22.437   4.204  49.487  1.00  0.00     0.020 C 
HETATM   15  C17 UNL     1      22.719   3.627  50.893  1.00  0.00     0.119 C 
HETATM   16  N2  UNL     1      24.098   3.310  50.967  1.00  0.00    -0.389 N 
HETATM   17  C18 UNL     1      27.166   1.569  51.980  1.00  0.00     0.112 C 
HETATM   18  H5  UNL     1      23.689   0.078  53.854  1.00  0.00     0.168 HD
HETATM   19  H22 UNL     1      24.319   3.243  49.962  1.00  0.00     0.159 HD
ENDROOT
BRANCH  10  20
HETATM   20  C10 UNL     1      27.692   4.758  48.608  1.00  0.00     0.044 C 
BRANCH  20  21
HETATM   21  C11 UNL     1      28.126   6.130  48.245  1.00  0.00     0.114 C 
BRANCH  21  22
HETATM   22  C12 UNL     1      29.655   6.094  48.417  1.00  0.00     0.139 C 
HETATM   23  O3  UNL     1      30.384   6.519  47.489  1.00  0.00    -0.650 OA
BRANCH  22  24
HETATM   24  O4  UNL     1      30.482   5.675  49.429  1.00  0.00    -0.776 OA
HETATM   25  H11 UNL     1      31.391   6.146  49.551  1.00  0.00     0.167 HD
ENDBRANCH  22  24
ENDBRANCH  21  22
ENDBRANCH  20  21
ENDBRANCH  10  20
BRANCH   1  26
HETATM   26  O1  UNL     1      28.290   0.318  53.908  1.00  0.00    -0.359 OA
HETATM   27  C1  UNL     1      29.412  -0.507  53.886  1.00  0.00     0.209 C 
ENDBRANCH   1  26
TORSDOF 5
ENDMDL
MODEL 4
REMARK VINA RESULT:      -7.9      1.915      2.174
REMARK  5 active torsions:
REMARK  status: ('A' for Active; 'I' for Inactive)
REMARK    1  A    between atoms: O1_2  and  C2_3 
REMARK    2  A    between atoms: C9_12  and  C10_13 
REMARK    3  A    between atoms: C10_13  and  C11_14 
REMARK    4  A    between atoms: C11_14  and  C12_15 
REMARK    5  A    between atoms: C12_15  and  O4_17 
ROOT
HETATM    1  C2  UNL     1      23.986   5.563  50.502  1.00  0.00     0.062 C 
HETATM    2  C3  UNL     1      23.245   6.538  50.909  1.00  0.00     0.023 C 
HETATM    3  C4  UNL     1      21.955   6.519  50.895  1.00  0.00     0.106 C 
HETATM    4  N1  UNL     1      21.214   5.316  50.858  1.00  0.00    -0.332 N 
HETATM    5  C5  UNL     1      21.659   3.967  51.092  1.00  0.00     0.254 C 
HETATM    6  O2  UNL     1      20.848   3.037  50.946  1.00  0.00    -0.268 OA
HETATM    7  C6  UNL     1      22.986   3.539  51.490  1.00  0.00     0.042 C 
HETATM    8  C7  UNL     1      23.144   2.432  52.200  1.00  0.00     0.040 C 
HETATM    9  C8  UNL     1      24.439   1.896  52.666  1.00  0.00     0.032 C 
HETATM   10  C9  UNL     1      24.729   0.772  53.358  1.00  0.00    -0.077 C 
HETATM   11  C13 UNL     1      24.197  -0.524  53.804  1.00  0.00     0.034 C 
HETATM   12  C14 UNL     1      22.871  -0.944  53.353  1.00  0.00     0.004 C 
HETATM   13  C15 UNL     1      21.601  -0.789  54.008  1.00  0.00     0.002 C 
HETATM   14  C16 UNL     1      20.897   0.452  54.308  1.00  0.00     0.020 C 
HETATM   15  C17 UNL     1      20.659   1.267  53.016  1.00  0.00     0.119 C 
HETATM   16  N2  UNL     1      21.895   1.840  52.626  1.00  0.00    -0.389 N 
HETATM   17  C18 UNL     1      24.247   4.245  51.160  1.00  0.00     0.112 C 
HETATM   18  H5  UNL     1      20.198   5.321  50.638  1.00  0.00     0.168 HD
HETATM   19  H22 UNL     1      22.399   1.802  53.525  1.00  0.00     0.159 HD
ENDROOT
BRANCH  10  20
HETATM   20  C10 UNL     1      26.196   0.759  53.582  1.00  0.00     0.044 C 
BRANCH  20  21
HETATM   21  C11 UNL     1      27.070   1.340  52.534  1.00  0.00     0.114 C 
BRANCH  21  22
HETATM   22  C12 UNL     1      28.203   2.015  53.327  1.00  0.00     0.139 C 
HETATM   23  O3  UNL     1      28.389   1.688  54.524  1.00  0.00    -0.650 OA
BRANCH  22  24
HETATM   24  O4  UNL     1      29.140   2.967  53.012  1.00  0.00    -0.776 OA
HETATM   25  H11 UNL     1      29.556   3.522  53.776  1.00  0.00     0.167 HD
ENDBRANCH  22  24
ENDBRANCH  21  22
ENDBRANCH  20  21
ENDBRANCH  10  20
BRANCH   1  26
HETATM   26  O1  UNL     1      24.554   5.945  49.273  1.00  0.00    -0.359 OA
HETATM   27  C1  UNL     1      25.922   5.906  49.008  1.00  0.00     0.209 C 
ENDBRANCH   1  26
TORSDOF 5
ENDMDL
MODEL 5
REMARK VINA RESULT:      -7.8      2.597      5.536
REMARK  5 active torsions:
REMARK  status: ('A' for Active; 'I' for Inactive)
REMARK    1  A    between atoms: O1_2  and  C2_3 
REMARK    2  A    between atoms: C9_12  and  C10_13 
REMARK    3  A    between atoms: C10_13  and  C11_14 
REMARK    4  A    between atoms: C11_14  and  C12_15 
REMARK    5  A    between atoms: C12_15  and  O4_17 
ROOT
HETATM    1  C2  UNL     1      27.145   1.336  53.448  1.00  0.00     0.062 C 
HETATM    2  C3  UNL     1      27.602   0.263  52.895  1.00  0.00     0.023 C 
HETATM    3  C4  UNL     1      27.074  -0.905  53.042  1.00  0.00     0.106 C 
HETATM    4  N1  UNL     1      25.730  -1.087  53.440  1.00  0.00    -0.332 N 
HETATM    5  C5  UNL     1      24.660  -0.125  53.492  1.00  0.00     0.254 C 
HETATM    6  O2  UNL     1      23.557  -0.482  53.937  1.00  0.00    -0.268 OA
HETATM    7  C6  UNL     1      24.710   1.264  53.078  1.00  0.00     0.042 C 
HETATM    8  C7  UNL     1      23.615   1.869  52.641  1.00  0.00     0.040 C 
HETATM    9  C8  UNL     1      23.539   3.273  52.190  1.00  0.00     0.032 C 
HETATM   10  C9  UNL     1      22.486   4.005  51.762  1.00  0.00    -0.077 C 
HETATM   11  C13 UNL     1      21.019   4.056  51.694  1.00  0.00     0.034 C 
HETATM   12  C14 UNL     1      20.237   3.017  52.363  1.00  0.00     0.004 C 
HETATM   13  C15 UNL     1      19.698   1.800  51.820  1.00  0.00     0.002 C 
HETATM   14  C16 UNL     1      20.431   0.650  51.304  1.00  0.00     0.020 C 
HETATM   15  C17 UNL     1      21.387   0.089  52.380  1.00  0.00     0.119 C 
HETATM   16  N2  UNL     1      22.485   0.977  52.496  1.00  0.00    -0.389 N 
HETATM   17  C18 UNL     1      25.920   2.121  53.101  1.00  0.00     0.112 C 
HETATM   18  H5  UNL     1      25.386  -2.016  53.753  1.00  0.00     0.168 HD
HETATM   19  H22 UNL     1      22.420   1.458  51.587  1.00  0.00     0.159 HD
ENDROOT
BRANCH  10  20
HETATM   20  C10 UNL     1      23.002   5.349  51.403  1.00  0.00     0.044 C 
BRANCH  20  21
HETATM   21  C11 UNL     1      24.275   5.431  50.645  1.00  0.00     0.114 C 
BRANCH  21  22
HETATM   22  C12 UNL     1      24.756   6.874  50.883  1.00  0.00     0.139 C 
HETATM   23  O3  UNL     1      23.907   7.782  51.047  1.00  0.00    -0.650 OA
BRANCH  22  24
HETATM   24  O4  UNL     1      25.997   7.453  50.969  1.00  0.00    -0.776 OA
HETATM   25  H11 UNL     1      26.803   6.959  50.554  1.00  0.00     0.167 HD
ENDBRANCH  22  24
ENDBRANCH  21  22
ENDBRANCH  20  21
ENDBRANCH  10  20
BRANCH   1  26
HETATM   26  O1  UNL     1      28.027   1.688  54.487  1.00  0.00    -0.359 OA
HETATM   27  C1  UNL     1      29.398   1.441  54.454  1.00  0.00     0.209 C 
ENDBRANCH   1  26
TORSDOF 5
ENDMDL
MODEL 6
REMARK VINA RESULT:      -7.7      1.677      2.049
REMARK  5 active torsions:
REMARK  status: ('A' for Active; 'I' for Inactive)
REMARK    1  A    between atoms: O1_2  and  C2_3 
REMARK    2  A    between atoms: C9_12  and  C10_13 
REMARK    3  A    between atoms: C10_13  and  C11_14 
REMARK    4  A    between atoms: C11_14  and  C12_15 
REMARK    5  A    between atoms: C12_15  and  O4_17 
ROOT
HETATM    1  C2  UNL     1      26.447   4.790  49.347  1.00  0.00     0.062 C 
HETATM    2  C3  UNL     1      26.113   6.036  49.387  1.00  0.00     0.023 C 
HETATM    3  C4  UNL     1      25.017   6.506  48.895  1.00  0.00     0.106 C 
HETATM    4  N1  UNL     1      23.882   5.695  48.660  1.00  0.00    -0.332 N 
HETATM    5  C5  UNL     1      23.605   4.362  49.126  1.00  0.00     0.254 C 
HETATM    6  O2  UNL     1      22.564   3.801  48.746  1.00  0.00    -0.268 OA
HETATM    7  C6  UNL     1      24.420   3.558  50.015  1.00  0.00     0.042 C 
HETATM    8  C7  UNL     1      23.856   2.652  50.801  1.00  0.00     0.040 C 
HETATM    9  C8  UNL     1      24.576   1.778  51.748  1.00  0.00     0.032 C 
HETATM   10  C9  UNL     1      24.122   0.803  52.566  1.00  0.00    -0.077 C 
HETATM   11  C13 UNL     1      22.974  -0.067  52.862  1.00  0.00     0.034 C 
HETATM   12  C14 UNL     1      21.811  -0.038  51.976  1.00  0.00     0.004 C 
HETATM   13  C15 UNL     1      20.599   0.724  52.100  1.00  0.00     0.002 C 
HETATM   14  C16 UNL     1      20.443   2.172  52.038  1.00  0.00     0.020 C 
HETATM   15  C17 UNL     1      20.995   2.720  50.703  1.00  0.00     0.119 C 
HETATM   16  N2  UNL     1      22.410   2.684  50.767  1.00  0.00    -0.389 N 
HETATM   17  C18 UNL     1      25.896   3.645  50.136  1.00  0.00     0.112 C 
HETATM   18  H5  UNL     1      23.092   6.038  48.077  1.00  0.00     0.168 HD
HETATM   19  H22 UNL     1      22.540   2.651  51.789  1.00  0.00     0.159 HD
ENDROOT
BRANCH  10  20
HETATM   20  C10 UNL     1      25.289   0.283  53.321  1.00  0.00     0.044 C 
BRANCH  20  21
HETATM   21  C11 UNL     1      26.605   0.243  52.637  1.00  0.00     0.114 C 
BRANCH  21  22
HETATM   22  C12 UNL     1      27.378  -0.860  53.381  1.00  0.00     0.139 C 
HETATM   23  O3  UNL     1      27.157  -2.061  53.093  1.00  0.00    -0.650 OA
BRANCH  22  24
HETATM   24  O4  UNL     1      28.332  -0.844  54.367  1.00  0.00    -0.776 OA
HETATM   25  H11 UNL     1      28.946  -1.666  54.474  1.00  0.00     0.167 HD
ENDBRANCH  22  24
ENDBRANCH  21  22
ENDBRANCH  20  21
ENDBRANCH  10  20
BRANCH   1  26
HETATM   26  O1  UNL     1      27.476   4.656  48.396  1.00  0.00    -0.359 OA
HETATM   27  C1  UNL     1      28.597   5.483  48.349  1.00  0.00     0.209 C 
ENDBRANCH   1  26
TORSDOF 5
ENDMDL
MODEL 7
REMARK VINA RESULT:      -7.4      4.114      7.785
REMARK  5 active torsions:
REMARK  status: ('A' for Active; 'I' for Inactive)
REMARK    1  A    between atoms: O1_2  and  C2_3 
REMARK    2  A    between atoms: C9_12  and  C10_13 
REMARK    3  A    between atoms: C10_13  and  C11_14 
REMARK    4  A    between atoms: C11_14  and  C12_15 
REMARK    5  A    between atoms: C12_15  and  O4_17 
ROOT
HETATM    1  C2  UNL     1      32.657   5.165  47.495  1.00  0.00     0.062 C 
HETATM    2  C3  UNL     1      33.592   5.675  48.223  1.00  0.00     0.023 C 
HETATM    3  C4  UNL     1      33.807   6.942  48.338  1.00  0.00     0.106 C 
HETATM    4  N1  UNL     1      32.814   7.909  48.056  1.00  0.00    -0.332 N 
HETATM    5  C5  UNL     1      31.398   7.730  47.873  1.00  0.00     0.254 C 
HETATM    6  O2  UNL     1      30.707   8.716  47.566  1.00  0.00    -0.268 OA
HETATM    7  C6  UNL     1      30.646   6.497  48.002  1.00  0.00     0.042 C 
HETATM    8  C7  UNL     1      29.373   6.527  48.368  1.00  0.00     0.040 C 
HETATM    9  C8  UNL     1      28.507   5.344  48.537  1.00  0.00     0.032 C 
HETATM   10  C9  UNL     1      27.200   5.250  48.868  1.00  0.00    -0.077 C 
HETATM   11  C13 UNL     1      25.946   6.006  49.002  1.00  0.00     0.034 C 
HETATM   12  C14 UNL     1      25.913   7.410  48.594  1.00  0.00     0.004 C 
HETATM   13  C15 UNL     1      26.100   8.589  49.395  1.00  0.00     0.002 C 
HETATM   14  C16 UNL     1      27.310   9.017  50.088  1.00  0.00     0.020 C 
HETATM   15  C17 UNL     1      28.485   9.151  49.094  1.00  0.00     0.119 C 
HETATM   16  N2  UNL     1      28.917   7.847  48.747  1.00  0.00    -0.389 N 
HETATM   17  C18 UNL     1      31.182   5.138  47.745  1.00  0.00     0.112 C 
HETATM   18  H5  UNL     1      33.062   8.913  47.951  1.00  0.00     0.168 HD
HETATM   19  H22 UNL     1      28.537   7.317  49.545  1.00  0.00     0.159 HD
ENDROOT
BRANCH  10  20
HETATM   20  C10 UNL     1      26.864   3.805  48.927  1.00  0.00     0.044 C 
BRANCH  20  21
HETATM   21  C11 UNL     1      25.656   3.397  49.686  1.00  0.00     0.114 C 
BRANCH  21  22
HETATM   22  C12 UNL     1      26.212   2.917  51.039  1.00  0.00     0.139 C 
HETATM   23  O3  UNL     1      25.437   2.364  51.856  1.00  0.00    -0.650 OA
BRANCH  22  24
HETATM   24  O4  UNL     1      27.458   2.948  51.612  1.00  0.00    -0.776 OA
HETATM   25  H11 UNL     1      27.628   2.378  52.455  1.00  0.00     0.167 HD
ENDBRANCH  22  24
ENDBRANCH  21  22
ENDBRANCH  20  21
ENDBRANCH  10  20
BRANCH   1  26
HETATM   26  O1  UNL     1      33.264   4.593  46.362  1.00  0.00    -0.359 OA
HETATM   27  C1  UNL     1      34.562   4.086  46.353  1.00  0.00     0.209 C 
ENDBRANCH   1  26
TORSDOF 5
ENDMDL
MODEL 8
REMARK VINA RESULT:      -7.4      2.713      5.848
REMARK  5 active torsions:
REMARK  status: ('A' for Active; 'I' for Inactive)
REMARK    1  A    between atoms: O1_2  and  C2_3 
REMARK    2  A    between atoms: C9_12  and  C10_13 
REMARK    3  A    between atoms: C10_13  and  C11_14 
REMARK    4  A    between atoms: C11_14  and  C12_15 
REMARK    5  A    between atoms: C12_15  and  O4_17 
ROOT
HETATM    1  C2  UNL     1      20.580   1.336  51.031  1.00  0.00     0.062 C 
HETATM    2  C3  UNL     1      19.724   1.450  51.990  1.00  0.00     0.023 C 
HETATM    3  C4  UNL     1      19.570   0.576  52.928  1.00  0.00     0.106 C 
HETATM    4  N1  UNL     1      20.578  -0.355  53.270  1.00  0.00    -0.332 N 
HETATM    5  C5  UNL     1      21.967  -0.369  52.896  1.00  0.00     0.254 C 
HETATM    6  O2  UNL     1      22.673  -1.325  53.257  1.00  0.00    -0.268 OA
HETATM    7  C6  UNL     1      22.676   0.629  52.119  1.00  0.00     0.042 C 
HETATM    8  C7  UNL     1      23.973   0.824  52.306  1.00  0.00     0.040 C 
HETATM    9  C8  UNL     1      24.801   1.808  51.582  1.00  0.00     0.032 C 
HETATM   10  C9  UNL     1      26.124   2.072  51.658  1.00  0.00    -0.077 C 
HETATM   11  C13 UNL     1      27.414   1.568  52.151  1.00  0.00     0.034 C 
HETATM   12  C14 UNL     1      27.473   0.243  52.766  1.00  0.00     0.004 C 
HETATM   13  C15 UNL     1      27.396  -0.113  54.156  1.00  0.00     0.002 C 
HETATM   14  C16 UNL     1      26.261   0.045  55.057  1.00  0.00     0.020 C 
HETATM   15  C17 UNL     1      25.020  -0.689  54.500  1.00  0.00     0.119 C 
HETATM   16  N2  UNL     1      24.511   0.072  53.419  1.00  0.00    -0.389 N 
HETATM   17  C18 UNL     1      22.067   1.492  51.077  1.00  0.00     0.112 C 
HETATM   18  H5  UNL     1      20.364  -1.175  53.872  1.00  0.00     0.168 HD
HETATM   19  H22 UNL     1      24.927   0.990  53.636  1.00  0.00     0.159 HD
ENDROOT
BRANCH  10  20
HETATM   20  C10 UNL     1      26.404   3.192  50.724  1.00  0.00     0.044 C 
BRANCH  20  21
HETATM   21  C11 UNL     1      25.373   3.536  49.714  1.00  0.00     0.114 C 
BRANCH  21  22
HETATM   22  C12 UNL     1      25.455   5.070  49.608  1.00  0.00     0.139 C 
HETATM   23  O3  UNL     1      24.611   5.679  48.909  1.00  0.00    -0.650 OA
BRANCH  22  24
HETATM   24  O4  UNL     1      26.301   6.009  50.142  1.00  0.00    -0.776 OA
HETATM   25  H11 UNL     1      25.900   6.758  50.727  1.00  0.00     0.167 HD
ENDBRANCH  22  24
ENDBRANCH  21  22
ENDBRANCH  20  21
ENDBRANCH  10  20
BRANCH   1  26
HETATM   26  O1  UNL     1      19.866   1.031  49.858  1.00  0.00    -0.359 OA
HETATM   27  C1  UNL     1      18.794   1.786  49.387  1.00  0.00     0.209 C 
ENDBRANCH   1  26
TORSDOF 5
ENDMDL
MODEL 9
REMARK VINA RESULT:      -7.3      3.029      5.301
REMARK  5 active torsions:
REMARK  status: ('A' for Active; 'I' for Inactive)
REMARK    1  A    between atoms: O1_2  and  C2_3 
REMARK    2  A    between atoms: C9_12  and  C10_13 
REMARK    3  A    between atoms: C10_13  and  C11_14 
REMARK    4  A    between atoms: C11_14  and  C12_15 
REMARK    5  A    between atoms: C12_15  and  O4_17 
ROOT
HETATM    1  C2  UNL     1      30.448   6.331  47.998  1.00  0.00     0.062 C 
HETATM    2  C3  UNL     1      30.766   7.519  48.389  1.00  0.00     0.023 C 
HETATM    3  C4  UNL     1      30.151   8.590  48.016  1.00  0.00     0.106 C 
HETATM    4  N1  UNL     1      28.829   8.571  47.513  1.00  0.00    -0.332 N 
HETATM    5  C5  UNL     1      27.856   7.512  47.559  1.00  0.00     0.254 C 
HETATM    6  O2  UNL     1      26.762   7.682  46.994  1.00  0.00    -0.268 OA
HETATM    7  C6  UNL     1      27.995   6.221  48.203  1.00  0.00     0.042 C 
HETATM    8  C7  UNL     1      26.927   5.589  48.668  1.00  0.00     0.040 C 
HETATM    9  C8  UNL     1      26.940   4.276  49.343  1.00  0.00     0.032 C 
HETATM   10  C9  UNL     1      25.926   3.522  49.824  1.00  0.00    -0.077 C 
HETATM   11  C13 UNL     1      24.468   3.338  49.810  1.00  0.00     0.034 C 
HETATM   12  C14 UNL     1      23.652   4.173  48.930  1.00  0.00     0.004 C 
HETATM   13  C15 UNL     1      22.968   5.402  49.227  1.00  0.00     0.002 C 
HETATM   14  C16 UNL     1      23.556   6.687  49.586  1.00  0.00     0.020 C 
HETATM   15  C17 UNL     1      24.539   7.158  48.490  1.00  0.00     0.119 C 
HETATM   16  N2  UNL     1      25.716   6.377  48.592  1.00  0.00    -0.389 N 
HETATM   17  C18 UNL     1      29.273   5.495  48.397  1.00  0.00     0.112 C 
HETATM   18  H5  UNL     1      28.430   9.399  47.028  1.00  0.00     0.168 HD
HETATM   19  H22 UNL     1      25.624   6.045  49.564  1.00  0.00     0.159 HD
ENDROOT
BRANCH  10  20
HETATM   20  C10 UNL     1      26.529   2.312  50.435  1.00  0.00     0.044 C 
BRANCH  20  21
HETATM   21  C11 UNL     1      26.009   1.857  51.748  1.00  0.00     0.114 C 
BRANCH  21  22
HETATM   22  C12 UNL     1      27.098   2.286  52.748  1.00  0.00     0.139 C 
HETATM   23  O3  UNL     1      26.888   2.147  53.976  1.00  0.00    -0.650 OA
BRANCH  22  24
HETATM   24  O4  UNL     1      28.350   2.830  52.605  1.00  0.00    -0.776 OA
HETATM   25  H11 UNL     1      28.833   2.724  51.700  1.00  0.00     0.167 HD
ENDBRANCH  22  24
ENDBRANCH  21  22
ENDBRANCH  20  21
ENDBRANCH  10  20
BRANCH   1  26
HETATM   26  O1  UNL     1      31.434   5.905  47.088  1.00  0.00    -0.359 OA
HETATM   27  C1  UNL     1      32.052   4.658  47.147  1.00  0.00     0.209 C 
ENDBRANCH   1  26
TORSDOF 5
ENDMDL
