MODEL 1
REMARK VINA RESULT:      -8.1      0.000      0.000
REMARK  10 active torsions:
REMARK  status: ('A' for Active; 'I' for Inactive)
REMARK    1  A    between atoms: C2_2  and  C3_4 
REMARK    2  A    between atoms: C4_6  and  C5_7 
REMARK    3  A    between atoms: C5_7  and  C6_8 
REMARK    4  A    between atoms: C6_8  and  N1_9 
REMARK    5  A    between atoms: N1_9  and  C7_10 
REMARK    6  A    between atoms: C9_12  and  C10_13 
REMARK    7  A    between atoms: C10_13  and  C11_14 
REMARK    8  A    between atoms: C11_14  and  C12_15 
REMARK    9  A    between atoms: C12_15  and  N2_16 
REMARK   10  A    between atoms: C18_23  and  O2_24 
ROOT
HETATM    1  C7  UNL     1      27.087  -0.705  53.398  1.00  0.00     0.147 C 
HETATM    2  C8  UNL     1      26.777   0.354  52.337  1.00  0.00     0.038 C 
HETATM    3  C9  UNL     1      27.156   1.652  52.053  1.00  0.00    -0.022 C 
HETATM    4  C18 UNL     1      28.241   2.028  52.936  1.00  0.00     0.094 C 
HETATM    5  C19 UNL     1      28.499   0.998  53.734  1.00  0.00     0.048 C 
HETATM    6  C20 UNL     1      27.427   0.282  54.589  1.00  0.00     0.120 C 
HETATM    7  N3  UNL     1      29.834   0.404  53.800  1.00  0.00    -0.352 N 
HETATM    8  C21 UNL     1      29.529  -1.002  53.469  1.00  0.00     0.204 C 
HETATM    9  N4  UNL     1      28.316  -1.392  53.209  1.00  0.00    -0.249 NA
HETATM   10  H25 UNL     1      30.561   1.113  54.023  1.00  0.00     0.166 HD
ENDROOT
BRANCH   1  11
HETATM   11  N1  UNL     1      25.952  -1.439  53.750  1.00  0.00    -0.391 N 
HETATM   12  H6  UNL     1      26.161  -2.418  53.987  1.00  0.00     0.156 HD
BRANCH  11  13
HETATM   13  C6  UNL     1      24.864  -0.499  53.653  1.00  0.00     0.067 C 
BRANCH  13  14
HETATM   14  C5  UNL     1      23.838   0.372  53.691  1.00  0.00     0.106 C 
BRANCH  14  15
HETATM   15  C4  UNL     1      22.683  -0.127  53.025  1.00  0.00     0.201 A 
HETATM   16  C3  UNL     1      21.674  -0.101  52.270  1.00  0.00     0.102 A 
HETATM   17  F1  UNL     1      21.885  -1.322  52.893  1.00  0.00    -0.358 F 
BRANCH  16  18
HETATM   18  C2  UNL     1      20.710   0.411  51.364  1.00  0.00     0.046 C 
HETATM   19  C1  UNL     1      19.578   0.184  51.985  1.00  0.00     0.059 C 
HETATM   20 CL1  UNL     1      21.841   0.943  50.163  1.00  0.00    -0.086 Cl
ENDBRANCH  16  18
ENDBRANCH  14  15
ENDBRANCH  13  14
ENDBRANCH  11  13
ENDBRANCH   1  11
BRANCH   3  21
HETATM   21  C10 UNL     1      26.505   2.377  51.000  1.00  0.00     0.043 C 
BRANCH  21  22
HETATM   22  C11 UNL     1      25.045   2.444  51.048  1.00  0.00     0.024 C 
BRANCH  22  23
HETATM   23  C12 UNL     1      24.300   3.446  51.827  1.00  0.00     0.123 C 
BRANCH  23  24
HETATM   24  N2  UNL     1      23.288   4.156  51.062  1.00  0.00    -0.381 N 
HETATM   25  C13 UNL     1      23.626   4.269  49.620  1.00  0.00     0.149 C 
HETATM   26  C14 UNL     1      22.591   5.251  49.042  1.00  0.00     0.187 C 
HETATM   27  O1  UNL     1      22.579   6.360  49.899  1.00  0.00    -0.384 OA
HETATM   28  C15 UNL     1      21.725   6.065  50.957  1.00  0.00     0.223 C 
HETATM   29  C16 UNL     1      22.049   4.715  51.460  1.00  0.00     0.021 C 
HETATM   30  C17 UNL     1      21.345   3.914  52.240  1.00  0.00     0.040 C 
ENDBRANCH  23  24
ENDBRANCH  22  23
ENDBRANCH  21  22
ENDBRANCH   3  21
BRANCH   4  31
HETATM   31  O2  UNL     1      28.979   3.136  53.075  1.00  0.00    -0.358 OA
HETATM   32  H22 UNL     1      29.991   3.217  52.940  1.00  0.00     0.217 HD
ENDBRANCH   4  31
TORSDOF 10
ENDMDL
MODEL 2
REMARK VINA RESULT:      -8.0      2.505      6.632
REMARK  10 active torsions:
REMARK  status: ('A' for Active; 'I' for Inactive)
REMARK    1  A    between atoms: C2_2  and  C3_4 
REMARK    2  A    between atoms: C4_6  and  C5_7 
REMARK    3  A    between atoms: C5_7  and  C6_8 
REMARK    4  A    between atoms: C6_8  and  N1_9 
REMARK    5  A    between atoms: N1_9  and  C7_10 
REMARK    6  A    between atoms: C9_12  and  C10_13 
REMARK    7  A    between atoms: C10_13  and  C11_14 
REMARK    8  A    between atoms: C11_14  and  C12_15 
REMARK    9  A    between atoms: C12_15  and  N2_16 
REMARK   10  A    between atoms: C18_23  and  O2_24 
ROOT
HETATM    1  C7  UNL     1      24.529   5.936  49.738  1.00  0.00     0.147 C 
HETATM    2  C8  UNL     1      25.215   4.589  49.971  1.00  0.00     0.038 C 
HETATM    3  C9  UNL     1      26.388   3.964  49.591  1.00  0.00    -0.022 C 
HETATM    4  C18 UNL     1      27.229   4.923  48.905  1.00  0.00     0.094 C 
HETATM    5  C19 UNL     1      26.582   6.082  48.860  1.00  0.00     0.048 C 
HETATM    6  C20 UNL     1      25.145   6.244  48.312  1.00  0.00     0.120 C 
HETATM    7  N3  UNL     1      27.168   7.302  49.414  1.00  0.00    -0.352 N 
HETATM    8  C21 UNL     1      26.119   7.706  50.370  1.00  0.00     0.204 C 
HETATM    9  N4  UNL     1      25.035   7.004  50.526  1.00  0.00    -0.249 NA
HETATM   10  H25 UNL     1      28.108   7.495  49.010  1.00  0.00     0.166 HD
ENDROOT
BRANCH   1  11
HETATM   11  N1  UNL     1      23.146   5.801  49.596  1.00  0.00    -0.391 N 
HETATM   12  H6  UNL     1      22.801   6.102  48.675  1.00  0.00     0.156 HD
BRANCH  11  13
HETATM   13  C6  UNL     1      22.702   5.251  50.854  1.00  0.00     0.067 C 
BRANCH  13  14
HETATM   14  C5  UNL     1      22.333   4.846  52.083  1.00  0.00     0.106 C 
BRANCH  14  15
HETATM   15  C4  UNL     1      22.806   3.537  52.383  1.00  0.00     0.201 A 
HETATM   16  C3  UNL     1      22.890   2.283  52.297  1.00  0.00     0.102 A 
HETATM   17  F1  UNL     1      23.736   2.843  53.241  1.00  0.00    -0.358 F 
BRANCH  16  18
HETATM   18  C2  UNL     1      22.622   0.965  51.845  1.00  0.00     0.046 C 
HETATM   19  C1  UNL     1      22.731   0.253  52.940  1.00  0.00     0.059 C 
HETATM   20 CL1  UNL     1      22.348   1.386  50.186  1.00  0.00    -0.086 Cl
ENDBRANCH  16  18
ENDBRANCH  14  15
ENDBRANCH  13  14
ENDBRANCH  11  13
ENDBRANCH   1  11
BRANCH   3  21
HETATM   21  C10 UNL     1      26.608   2.586  49.923  1.00  0.00     0.043 C 
BRANCH  21  22
HETATM   22  C11 UNL     1      26.651   2.247  51.345  1.00  0.00     0.024 C 
BRANCH  22  23
HETATM   23  C12 UNL     1      26.291   0.925  51.880  1.00  0.00     0.123 C 
BRANCH  23  24
HETATM   24  N2  UNL     1      27.235   0.404  52.854  1.00  0.00    -0.381 N 
HETATM   25  C13 UNL     1      27.567   1.385  53.921  1.00  0.00     0.149 C 
HETATM   26  C14 UNL     1      28.746   0.759  54.687  1.00  0.00     0.187 C 
HETATM   27  O1  UNL     1      29.678   0.361  53.718  1.00  0.00    -0.384 OA
HETATM   28  C15 UNL     1      29.296  -0.896  53.259  1.00  0.00     0.223 C 
HETATM   29  C16 UNL     1      27.850  -0.867  52.961  1.00  0.00     0.021 C 
HETATM   30  C17 UNL     1      27.006  -1.868  52.780  1.00  0.00     0.040 C 
ENDBRANCH  23  24
ENDBRANCH  22  23
ENDBRANCH  21  22
ENDBRANCH   3  21
BRANCH   4  31
HETATM   31  O2  UNL     1      28.450   4.858  48.360  1.00  0.00    -0.358 OA
HETATM   32  H22 UNL     1      29.074   4.046  48.355  1.00  0.00     0.217 HD
ENDBRANCH   4  31
TORSDOF 10
ENDMDL
MODEL 3
REMARK VINA RESULT:      -8.0      3.459      5.314
REMARK  10 active torsions:
REMARK  status: ('A' for Active; 'I' for Inactive)
REMARK    1  A    between atoms: C2_2  and  C3_4 
REMARK    2  A    between atoms: C4_6  and  C5_7 
REMARK    3  A    between atoms: C5_7  and  C6_8 
REMARK    4  A    between atoms: C6_8  and  N1_9 
REMARK    5  A    between atoms: N1_9  and  C7_10 
REMARK    6  A    between atoms: C9_12  and  C10_13 
REMARK    7  A    between atoms: C10_13  and  C11_14 
REMARK    8  A    between atoms: C11_14  and  C12_15 
REMARK    9  A    between atoms: C12_15  and  N2_16 
REMARK   10  A    between atoms: C18_23  and  O2_24 
ROOT
HETATM    1  C7  UNL     1      26.443   1.652  53.171  1.00  0.00     0.147 C 
HETATM    2  C8  UNL     1      24.978   2.056  52.991  1.00  0.00     0.038 C 
HETATM    3  C9  UNL     1      23.757   1.423  52.853  1.00  0.00    -0.022 C 
HETATM    4  C18 UNL     1      23.934   0.005  53.088  1.00  0.00     0.094 C 
HETATM    5  C19 UNL     1      25.219  -0.214  53.344  1.00  0.00     0.048 C 
HETATM    6  C20 UNL     1      26.372   0.256  52.426  1.00  0.00     0.120 C 
HETATM    7  N3  UNL     1      25.647  -0.859  54.585  1.00  0.00    -0.352 N 
HETATM    8  C21 UNL     1      26.573   0.157  55.123  1.00  0.00     0.204 C 
HETATM    9  N4  UNL     1      26.796   1.274  54.495  1.00  0.00    -0.249 NA
HETATM   10  H25 UNL     1      25.179  -1.778  54.722  1.00  0.00     0.166 HD
ENDROOT
BRANCH   1  11
HETATM   11  N1  UNL     1      27.307   2.485  52.456  1.00  0.00    -0.391 N 
HETATM   12  H6  UNL     1      28.134   2.771  52.997  1.00  0.00     0.156 HD
BRANCH  11  13
HETATM   13  C6  UNL     1      26.689   2.627  51.162  1.00  0.00     0.067 C 
BRANCH  13  14
HETATM   14  C5  UNL     1      26.225   2.802  49.910  1.00  0.00     0.106 C 
BRANCH  14  15
HETATM   15  C4  UNL     1      26.766   3.966  49.293  1.00  0.00     0.201 A 
HETATM   16  C3  UNL     1      26.859   5.185  48.992  1.00  0.00     0.102 A 
HETATM   17  F1  UNL     1      27.836   4.386  48.421  1.00  0.00    -0.358 F 
BRANCH  16  18
HETATM   18  C2  UNL     1      26.546   6.569  48.957  1.00  0.00     0.046 C 
HETATM   19  C1  UNL     1      27.338   7.023  48.017  1.00  0.00     0.059 C 
HETATM   20 CL1  UNL     1      25.338   6.522  50.199  1.00  0.00    -0.086 Cl
ENDBRANCH  16  18
ENDBRANCH  14  15
ENDBRANCH  13  14
ENDBRANCH  11  13
ENDBRANCH   1  11
BRANCH   3  21
HETATM   21  C10 UNL     1      22.581   2.189  52.554  1.00  0.00     0.043 C 
BRANCH  21  22
HETATM   22  C11 UNL     1      22.783   3.580  52.151  1.00  0.00     0.024 C 
BRANCH  22  23
HETATM   23  C12 UNL     1      21.866   4.315  51.266  1.00  0.00     0.123 C 
BRANCH  23  24
HETATM   24  N2  UNL     1      21.446   3.563  50.095  1.00  0.00    -0.381 N 
HETATM   25  C13 UNL     1      19.986   3.281  50.081  1.00  0.00     0.149 C 
HETATM   26  C14 UNL     1      19.783   2.280  48.930  1.00  0.00     0.187 C 
HETATM   27  O1  UNL     1      20.741   1.272  49.111  1.00  0.00    -0.384 OA
HETATM   28  C15 UNL     1      21.928   1.711  48.534  1.00  0.00     0.223 C 
HETATM   29  C16 UNL     1      22.184   3.095  48.981  1.00  0.00     0.021 C 
HETATM   30  C17 UNL     1      23.010   4.001  48.489  1.00  0.00     0.040 C 
ENDBRANCH  23  24
ENDBRANCH  22  23
ENDBRANCH  21  22
ENDBRANCH   3  21
BRANCH   4  31
HETATM   31  O2  UNL     1      23.099  -1.041  53.101  1.00  0.00    -0.358 OA
HETATM   32  H22 UNL     1      22.463  -1.304  53.859  1.00  0.00     0.217 HD
ENDBRANCH   4  31
TORSDOF 10
ENDMDL
MODEL 4
REMARK VINA RESULT:      -7.9      1.347      1.648
REMARK  10 active torsions:
REMARK  status: ('A' for Active; 'I' for Inactive)
REMARK    1  A    between atoms: C2_2  and  C3_4 
REMARK    2  A    between atoms: C4_6  and  C5_7 
REMARK    3  A    between atoms: C5_7  and  C6_8 
REMARK    4  A    between atoms: C6_8  and  N1_9 
REMARK    5  A    between atoms: N1_9  and  C7_10 
REMARK    6  A    between atoms: C9_12  and  C10_13 
REMARK    7  A    between atoms: C10_13  and  C11_14 
REMARK    8  A    between atoms: C11_14  and  C12_15 
REMARK    9  A    between atoms: C12_15  and  N2_16 
REMARK   10  A    between atoms: C18_23  and  O2_24 
ROOT
HETATM    1  C7  UNL     1      26.836  -0.595  53.447  1.00  0.00     0.147 C 
HETATM    2  C8  UNL     1      26.670   0.464  52.354  1.00  0.00     0.038 C 
HETATM    3  C9  UNL     1      27.201   1.702  52.047  1.00  0.00    -0.022 C 
HETATM    4  C18 UNL     1      28.308   1.973  52.941  1.00  0.00     0.094 C 
HETATM    5  C19 UNL     1      28.431   0.942  53.770  1.00  0.00     0.048 C 
HETATM    6  C20 UNL     1      27.268   0.377  54.620  1.00  0.00     0.120 C 
HETATM    7  N3  UNL     1      29.686   0.199  53.877  1.00  0.00    -0.352 N 
HETATM    8  C21 UNL     1      29.226  -1.170  53.574  1.00  0.00     0.204 C 
HETATM    9  N4  UNL     1      27.980  -1.424  53.300  1.00  0.00    -0.249 NA
HETATM   10  H25 UNL     1      30.487   0.826  54.096  1.00  0.00     0.166 HD
ENDROOT
BRANCH   1  11
HETATM   11  N1  UNL     1      25.618  -1.183  53.794  1.00  0.00    -0.391 N 
HETATM   12  H6  UNL     1      25.705  -2.178  54.044  1.00  0.00     0.156 HD
BRANCH  11  13
HETATM   13  C6  UNL     1      24.652  -0.120  53.676  1.00  0.00     0.067 C 
BRANCH  13  14
HETATM   14  C5  UNL     1      23.684   0.796  53.487  1.00  0.00     0.106 C 
BRANCH  14  15
HETATM   15  C4  UNL     1      22.517   0.234  52.896  1.00  0.00     0.201 A 
HETATM   16  C3  UNL     1      21.376  -0.299  52.855  1.00  0.00     0.102 A 
HETATM   17  F1  UNL     1      21.946  -0.084  51.610  1.00  0.00    -0.358 F 
BRANCH  16  18
HETATM   18  C2  UNL     1      20.154  -0.851  53.319  1.00  0.00     0.046 C 
HETATM   19  C1  UNL     1      20.538  -1.609  54.317  1.00  0.00     0.059 C 
HETATM   20 CL1  UNL     1      19.134  -0.042  52.175  1.00  0.00    -0.086 Cl
ENDBRANCH  16  18
ENDBRANCH  14  15
ENDBRANCH  13  14
ENDBRANCH  11  13
ENDBRANCH   1  11
BRANCH   3  21
HETATM   21  C10 UNL     1      26.657   2.469  50.963  1.00  0.00     0.043 C 
BRANCH  21  22
HETATM   22  C11 UNL     1      25.355   3.096  51.186  1.00  0.00     0.024 C 
BRANCH  22  23
HETATM   23  C12 UNL     1      24.728   4.032  50.240  1.00  0.00     0.123 C 
BRANCH  23  24
HETATM   24  N2  UNL     1      23.290   4.165  50.406  1.00  0.00    -0.381 N 
HETATM   25  C13 UNL     1      22.859   5.570  50.625  1.00  0.00     0.149 C 
HETATM   26  C14 UNL     1      21.376   5.476  51.027  1.00  0.00     0.187 C 
HETATM   27  O1  UNL     1      21.303   4.503  52.034  1.00  0.00    -0.384 OA
HETATM   28  C15 UNL     1      21.224   3.261  51.413  1.00  0.00     0.223 C 
HETATM   29  C16 UNL     1      22.259   3.194  50.362  1.00  0.00     0.021 C 
HETATM   30  C17 UNL     1      22.380   2.355  49.349  1.00  0.00     0.040 C 
ENDBRANCH  23  24
ENDBRANCH  22  23
ENDBRANCH  21  22
ENDBRANCH   3  21
BRANCH   4  31
HETATM   31  O2  UNL     1      29.167   2.992  53.067  1.00  0.00    -0.358 OA
HETATM   32  H22 UNL     1      28.930   3.987  53.116  1.00  0.00     0.217 HD
ENDBRANCH   4  31
TORSDOF 10
ENDMDL
MODEL 5
REMARK VINA RESULT:      -7.6      1.888      2.538
REMARK  10 active torsions:
REMARK  status: ('A' for Active; 'I' for Inactive)
REMARK    1  A    between atoms: C2_2  and  C3_4 
REMARK    2  A    between atoms: C4_6  and  C5_7 
REMARK    3  A    between atoms: C5_7  and  C6_8 
REMARK    4  A    between atoms: C6_8  and  N1_9 
REMARK    5  A    between atoms: N1_9  and  C7_10 
REMARK    6  A    between atoms: C9_12  and  C10_13 
REMARK    7  A    between atoms: C10_13  and  C11_14 
REMARK    8  A    between atoms: C11_14  and  C12_15 
REMARK    9  A    between atoms: C12_15  and  N2_16 
REMARK   10  A    between atoms: C18_23  and  O2_24 
ROOT
HETATM    1  C7  UNL     1      25.610  -0.475  54.420  1.00  0.00     0.147 C 
HETATM    2  C8  UNL     1      24.926   0.699  53.714  1.00  0.00     0.038 C 
HETATM    3  C9  UNL     1      25.307   1.857  53.064  1.00  0.00    -0.022 C 
HETATM    4  C18 UNL     1      26.747   1.854  52.905  1.00  0.00     0.094 C 
HETATM    5  C19 UNL     1      27.221   0.741  53.453  1.00  0.00     0.048 C 
HETATM    6  C20 UNL     1      26.909   0.294  54.901  1.00  0.00     0.120 C 
HETATM    7  N3  UNL     1      28.025  -0.204  52.679  1.00  0.00    -0.352 N 
HETATM    8  C21 UNL     1      27.242  -1.444  52.853  1.00  0.00     0.204 C 
HETATM    9  N4  UNL     1      26.143  -1.462  53.549  1.00  0.00    -0.249 NA
HETATM   10  H25 UNL     1      28.847   0.258  52.241  1.00  0.00     0.166 HD
ENDROOT
BRANCH   1  11
HETATM   11  N1  UNL     1      24.902  -0.887  55.553  1.00  0.00    -0.391 N 
HETATM   12  H6  UNL     1      25.444  -0.798  56.423  1.00  0.00     0.156 HD
BRANCH  11  13
HETATM   13  C6  UNL     1      23.613  -1.291  55.050  1.00  0.00     0.067 C 
BRANCH  13  14
HETATM   14  C5  UNL     1      22.366  -1.553  54.615  1.00  0.00     0.106 C 
BRANCH  14  15
HETATM   15  C4  UNL     1      21.653  -0.367  54.279  1.00  0.00     0.201 A 
HETATM   16  C3  UNL     1      21.203   0.549  53.540  1.00  0.00     0.102 A 
HETATM   17  F1  UNL     1      20.852   0.674  54.875  1.00  0.00    -0.358 F 
BRANCH  16  18
HETATM   18  C2  UNL     1      20.953   1.297  52.361  1.00  0.00     0.046 C 
HETATM   19  C1  UNL     1      20.453   2.415  52.826  1.00  0.00     0.059 C 
HETATM   20 CL1  UNL     1      21.540   0.102  51.250  1.00  0.00    -0.086 Cl
ENDBRANCH  16  18
ENDBRANCH  14  15
ENDBRANCH  13  14
ENDBRANCH  11  13
ENDBRANCH   1  11
BRANCH   3  21
HETATM   21  C10 UNL     1      24.315   2.805  52.644  1.00  0.00     0.043 C 
BRANCH  21  22
HETATM   22  C11 UNL     1      24.080   2.921  51.205  1.00  0.00     0.024 C 
BRANCH  22  23
HETATM   23  C12 UNL     1      23.565   4.138  50.558  1.00  0.00     0.123 C 
BRANCH  23  24
HETATM   24  N2  UNL     1      24.504   4.760  49.639  1.00  0.00    -0.381 N 
HETATM   25  C13 UNL     1      25.864   4.164  49.708  1.00  0.00     0.149 C 
HETATM   26  C14 UNL     1      26.755   5.102  48.874  1.00  0.00     0.187 C 
HETATM   27  O1  UNL     1      26.482   6.403  49.320  1.00  0.00    -0.384 OA
HETATM   28  C15 UNL     1      25.354   6.853  48.640  1.00  0.00     0.223 C 
HETATM   29  C16 UNL     1      24.323   5.798  48.691  1.00  0.00     0.021 C 
HETATM   30  C17 UNL     1      23.227   5.652  47.967  1.00  0.00     0.040 C 
ENDBRANCH  23  24
ENDBRANCH  22  23
ENDBRANCH  21  22
ENDBRANCH   3  21
BRANCH   4  31
HETATM   31  O2  UNL     1      27.617   2.702  52.341  1.00  0.00    -0.358 OA
HETATM   32  H22 UNL     1      28.627   2.566  52.246  1.00  0.00     0.217 HD
ENDBRANCH   4  31
TORSDOF 10
ENDMDL
MODEL 6
REMARK VINA RESULT:      -7.6      1.902      6.519
REMARK  10 active torsions:
REMARK  status: ('A' for Active; 'I' for Inactive)
REMARK    1  A    between atoms: C2_2  and  C3_4 
REMARK    2  A    between atoms: C4_6  and  C5_7 
REMARK    3  A    between atoms: C5_7  and  C6_8 
REMARK    4  A    between atoms: C6_8  and  N1_9 
REMARK    5  A    between atoms: N1_9  and  C7_10 
REMARK    6  A    between atoms: C9_12  and  C10_13 
REMARK    7  A    between atoms: C10_13  and  C11_14 
REMARK    8  A    between atoms: C11_14  and  C12_15 
REMARK    9  A    between atoms: C12_15  and  N2_16 
REMARK   10  A    between atoms: C18_23  and  O2_24 
ROOT
HETATM    1  C7  UNL     1      22.393   4.079  49.503  1.00  0.00     0.147 C 
HETATM    2  C8  UNL     1      23.846   3.614  49.619  1.00  0.00     0.038 C 
HETATM    3  C9  UNL     1      25.081   4.182  49.869  1.00  0.00    -0.022 C 
HETATM    4  C18 UNL     1      24.890   5.564  50.260  1.00  0.00     0.094 C 
HETATM    5  C19 UNL     1      23.589   5.825  50.233  1.00  0.00     0.048 C 
HETATM    6  C20 UNL     1      22.682   5.556  49.008  1.00  0.00     0.120 C 
HETATM    7  N3  UNL     1      22.888   6.322  51.416  1.00  0.00    -0.352 N 
HETATM    8  C21 UNL     1      21.832   5.301  51.564  1.00  0.00     0.204 C 
HETATM    9  N4  UNL     1      21.739   4.296  50.745  1.00  0.00    -0.249 NA
HETATM   10  H25 UNL     1      23.333   7.183  51.794  1.00  0.00     0.166 HD
ENDROOT
BRANCH   1  11
HETATM   11  N1  UNL     1      21.708   3.405  48.489  1.00  0.00    -0.391 N 
HETATM   12  H6  UNL     1      21.440   4.016  47.706  1.00  0.00     0.156 HD
BRANCH  11  13
HETATM   13  C6  UNL     1      21.641   2.038  48.940  1.00  0.00     0.067 C 
BRANCH  13  14
HETATM   14  C5  UNL     1      21.455   0.763  49.329  1.00  0.00     0.106 C 
BRANCH  14  15
HETATM   15  C4  UNL     1      21.220   0.655  50.729  1.00  0.00     0.201 A 
HETATM   16  C3  UNL     1      21.486   0.703  51.960  1.00  0.00     0.102 A 
HETATM   17  F1  UNL     1      20.187   0.310  51.677  1.00  0.00    -0.358 F 
BRANCH  16  18
HETATM   18  C2  UNL     1      22.239   0.902  53.146  1.00  0.00     0.046 C 
HETATM   19  C1  UNL     1      23.187   1.718  52.755  1.00  0.00     0.059 C 
HETATM   20 CL1  UNL     1      21.260  -0.103  54.164  1.00  0.00    -0.086 Cl
ENDBRANCH  16  18
ENDBRANCH  14  15
ENDBRANCH  13  14
ENDBRANCH  11  13
ENDBRANCH   1  11
BRANCH   3  21
HETATM   21  C10 UNL     1      26.273   3.393  49.750  1.00  0.00     0.043 C 
BRANCH  21  22
HETATM   22  C11 UNL     1      26.809   2.815  50.983  1.00  0.00     0.024 C 
BRANCH  22  23
HETATM   23  C12 UNL     1      26.505   1.451  51.443  1.00  0.00     0.123 C 
BRANCH  23  24
HETATM   24  N2  UNL     1      27.304   1.020  52.579  1.00  0.00    -0.381 N 
HETATM   25  C13 UNL     1      28.072   2.129  53.201  1.00  0.00     0.149 C 
HETATM   26  C14 UNL     1      29.029   1.445  54.194  1.00  0.00     0.187 C 
HETATM   27  O1  UNL     1      29.651   0.406  53.488  1.00  0.00    -0.384 OA
HETATM   28  C15 UNL     1      28.803  -0.697  53.530  1.00  0.00     0.223 C 
HETATM   29  C16 UNL     1      27.438  -0.252  53.187  1.00  0.00     0.021 C 
HETATM   30  C17 UNL     1      26.281  -0.864  53.369  1.00  0.00     0.040 C 
ENDBRANCH  23  24
ENDBRANCH  22  23
ENDBRANCH  21  22
ENDBRANCH   3  21
BRANCH   4  31
HETATM   31  O2  UNL     1      25.725   6.545  50.624  1.00  0.00    -0.358 OA
HETATM   32  H22 UNL     1      26.748   6.519  50.593  1.00  0.00     0.217 HD
ENDBRANCH   4  31
TORSDOF 10
ENDMDL
MODEL 7
REMARK VINA RESULT:      -7.4      2.570      6.509
REMARK  10 active torsions:
REMARK  status: ('A' for Active; 'I' for Inactive)
REMARK    1  A    between atoms: C2_2  and  C3_4 
REMARK    2  A    between atoms: C4_6  and  C5_7 
REMARK    3  A    between atoms: C5_7  and  C6_8 
REMARK    4  A    between atoms: C6_8  and  N1_9 
REMARK    5  A    between atoms: N1_9  and  C7_10 
REMARK    6  A    between atoms: C9_12  and  C10_13 
REMARK    7  A    between atoms: C10_13  and  C11_14 
REMARK    8  A    between atoms: C11_14  and  C12_15 
REMARK    9  A    between atoms: C12_15  and  N2_16 
REMARK   10  A    between atoms: C18_23  and  O2_24 
ROOT
HETATM    1  C7  UNL     1      24.194   5.642  49.848  1.00  0.00     0.147 C 
HETATM    2  C8  UNL     1      24.969   4.382  50.237  1.00  0.00     0.038 C 
HETATM    3  C9  UNL     1      26.217   3.839  49.995  1.00  0.00    -0.022 C 
HETATM    4  C18 UNL     1      27.028   4.818  49.301  1.00  0.00     0.094 C 
HETATM    5  C19 UNL     1      26.292   5.908  49.117  1.00  0.00     0.048 C 
HETATM    6  C20 UNL     1      24.895   5.901  48.452  1.00  0.00     0.120 C 
HETATM    7  N3  UNL     1      26.727   7.212  49.617  1.00  0.00    -0.352 N 
HETATM    8  C21 UNL     1      25.573   7.588  50.457  1.00  0.00     0.204 C 
HETATM    9  N4  UNL     1      24.542   6.805  50.586  1.00  0.00    -0.249 NA
HETATM   10  H25 UNL     1      27.676   7.460  49.271  1.00  0.00     0.166 HD
ENDROOT
BRANCH   1  11
HETATM   11  N1  UNL     1      22.843   5.373  49.614  1.00  0.00    -0.391 N 
HETATM   12  H6  UNL     1      22.221   6.140  49.903  1.00  0.00     0.156 HD
BRANCH  11  13
HETATM   13  C6  UNL     1      22.830   4.061  49.017  1.00  0.00     0.067 C 
BRANCH  13  14
HETATM   14  C5  UNL     1      22.921   2.809  48.531  1.00  0.00     0.106 C 
BRANCH  14  15
HETATM   15  C4  UNL     1      21.890   1.962  49.027  1.00  0.00     0.201 A 
HETATM   16  C3  UNL     1      21.268   1.255  49.865  1.00  0.00     0.102 A 
HETATM   17  F1  UNL     1      20.669   1.311  48.616  1.00  0.00    -0.358 F 
BRANCH  16  18
HETATM   18  C2  UNL     1      20.967   0.616  51.095  1.00  0.00     0.046 C 
HETATM   19  C1  UNL     1      22.128   0.593  51.702  1.00  0.00     0.059 C 
HETATM   20 CL1  UNL     1      19.274   0.400  50.789  1.00  0.00    -0.086 Cl
ENDBRANCH  16  18
ENDBRANCH  14  15
ENDBRANCH  13  14
ENDBRANCH  11  13
ENDBRANCH   1  11
BRANCH   3  21
HETATM   21  C10 UNL     1      26.525   2.513  50.449  1.00  0.00     0.043 C 
BRANCH  21  22
HETATM   22  C11 UNL     1      25.583   1.900  51.385  1.00  0.00     0.024 C 
BRANCH  22  23
HETATM   23  C12 UNL     1      25.849   1.740  52.823  1.00  0.00     0.123 C 
BRANCH  23  24
HETATM   24  N2  UNL     1      27.051   0.978  53.120  1.00  0.00    -0.381 N 
HETATM   25  C13 UNL     1      27.046  -0.375  52.505  1.00  0.00     0.149 C 
HETATM   26  C14 UNL     1      28.249  -1.103  53.130  1.00  0.00     0.187 C 
HETATM   27  O1  UNL     1      28.150  -0.908  54.515  1.00  0.00    -0.384 OA
HETATM   28  C15 UNL     1      28.730   0.323  54.808  1.00  0.00     0.223 C 
HETATM   29  C16 UNL     1      28.209   1.325  53.858  1.00  0.00     0.021 C 
HETATM   30  C17 UNL     1      28.667   2.530  53.567  1.00  0.00     0.040 C 
ENDBRANCH  23  24
ENDBRANCH  22  23
ENDBRANCH  21  22
ENDBRANCH   3  21
BRANCH   4  31
HETATM   31  O2  UNL     1      28.291   4.825  48.855  1.00  0.00    -0.358 OA
HETATM   32  H22 UNL     1      28.828   4.015  48.534  1.00  0.00     0.217 HD
ENDBRANCH   4  31
TORSDOF 10
ENDMDL
MODEL 8
REMARK VINA RESULT:      -7.4      3.199      6.971
REMARK  10 active torsions:
REMARK  status: ('A' for Active; 'I' for Inactive)
REMARK    1  A    between atoms: C2_2  and  C3_4 
REMARK    2  A    between atoms: C4_6  and  C5_7 
REMARK    3  A    between atoms: C5_7  and  C6_8 
REMARK    4  A    between atoms: C6_8  and  N1_9 
REMARK    5  A    between atoms: N1_9  and  C7_10 
REMARK    6  A    between atoms: C9_12  and  C10_13 
REMARK    7  A    between atoms: C10_13  and  C11_14 
REMARK    8  A    between atoms: C11_14  and  C12_15 
REMARK    9  A    between atoms: C12_15  and  N2_16 
REMARK   10  A    between atoms: C18_23  and  O2_24 
ROOT
HETATM    1  C7  UNL     1      21.296   1.683  51.994  1.00  0.00     0.147 C 
HETATM    2  C8  UNL     1      22.368   0.747  52.557  1.00  0.00     0.038 C 
HETATM    3  C9  UNL     1      22.443  -0.271  53.489  1.00  0.00    -0.022 C 
HETATM    4  C18 UNL     1      21.104  -0.608  53.925  1.00  0.00     0.094 C 
HETATM    5  C19 UNL     1      20.250   0.187  53.290  1.00  0.00     0.048 C 
HETATM    6  C20 UNL     1      20.362   1.730  53.273  1.00  0.00     0.120 C 
HETATM    7  N3  UNL     1      19.165  -0.357  52.476  1.00  0.00    -0.352 N 
HETATM    8  C21 UNL     1      19.439   0.289  51.177  1.00  0.00     0.204 C 
HETATM    9  N4  UNL     1      20.447   1.094  51.019  1.00  0.00    -0.249 NA
HETATM   10  H25 UNL     1      18.572  -1.020  53.017  1.00  0.00     0.166 HD
ENDROOT
BRANCH   1  11
HETATM   11  N1  UNL     1      21.792   2.969  51.767  1.00  0.00    -0.391 N 
HETATM   12  H6  UNL     1      21.367   3.680  52.378  1.00  0.00     0.156 HD
BRANCH  11  13
HETATM   13  C6  UNL     1      22.767   2.805  50.719  1.00  0.00     0.067 C 
BRANCH  13  14
HETATM   14  C5  UNL     1      23.604   2.727  49.668  1.00  0.00     0.106 C 
BRANCH  14  15
HETATM   15  C4  UNL     1      22.909   2.543  48.438  1.00  0.00     0.201 A 
HETATM   16  C3  UNL     1      22.043   2.758  47.549  1.00  0.00     0.102 A 
HETATM   17  F1  UNL     1      22.908   1.715  47.257  1.00  0.00    -0.358 F 
BRANCH  16  18
HETATM   18  C2  UNL     1      20.940   3.362  46.893  1.00  0.00     0.046 C 
HETATM   19  C1  UNL     1      20.001   3.324  47.806  1.00  0.00     0.059 C 
HETATM   20 CL1  UNL     1      21.758   3.678  45.398  1.00  0.00    -0.086 Cl
ENDBRANCH  16  18
ENDBRANCH  14  15
ENDBRANCH  13  14
ENDBRANCH  11  13
ENDBRANCH   1  11
BRANCH   3  21
HETATM   21  C10 UNL     1      23.717  -0.828  53.844  1.00  0.00     0.043 C 
BRANCH  21  22
HETATM   22  C11 UNL     1      24.900  -0.029  53.523  1.00  0.00     0.024 C 
BRANCH  22  23
HETATM   23  C12 UNL     1      26.072  -0.557  52.807  1.00  0.00     0.123 C 
BRANCH  23  24
HETATM   24  N2  UNL     1      27.270   0.251  52.959  1.00  0.00    -0.381 N 
HETATM   25  C13 UNL     1      28.451  -0.541  53.395  1.00  0.00     0.149 C 
HETATM   26  C14 UNL     1      29.526   0.504  53.742  1.00  0.00     0.187 C 
HETATM   27  O1  UNL     1      28.906   1.446  54.575  1.00  0.00    -0.384 OA
HETATM   28  C15 UNL     1      28.259   2.368  53.757  1.00  0.00     0.223 C 
HETATM   29  C16 UNL     1      27.491   1.632  52.734  1.00  0.00     0.021 C 
HETATM   30  C17 UNL     1      26.967   2.062  51.601  1.00  0.00     0.040 C 
ENDBRANCH  23  24
ENDBRANCH  22  23
ENDBRANCH  21  22
ENDBRANCH   3  21
BRANCH   4  31
HETATM   31  O2  UNL     1      20.610  -1.513  54.779  1.00  0.00    -0.358 OA
HETATM   32  H22 UNL     1      20.742  -1.530  55.794  1.00  0.00     0.217 HD
ENDBRANCH   4  31
TORSDOF 10
ENDMDL
MODEL 9
REMARK VINA RESULT:      -7.4      1.982      6.602
REMARK  10 active torsions:
REMARK  status: ('A' for Active; 'I' for Inactive)
REMARK    1  A    between atoms: C2_2  and  C3_4 
REMARK    2  A    between atoms: C4_6  and  C5_7 
REMARK    3  A    between atoms: C5_7  and  C6_8 
REMARK    4  A    between atoms: C6_8  and  N1_9 
REMARK    5  A    between atoms: N1_9  and  C7_10 
REMARK    6  A    between atoms: C9_12  and  C10_13 
REMARK    7  A    between atoms: C10_13  and  C11_14 
REMARK    8  A    between atoms: C11_14  and  C12_15 
REMARK    9  A    between atoms: C12_15  and  N2_16 
REMARK   10  A    between atoms: C18_23  and  O2_24 
ROOT
HETATM    1  C7  UNL     1      21.621   3.946  51.320  1.00  0.00     0.147 C 
HETATM    2  C8  UNL     1      22.758   3.289  52.106  1.00  0.00     0.038 C 
HETATM    3  C9  UNL     1      24.137   3.227  52.041  1.00  0.00    -0.022 C 
HETATM    4  C18 UNL     1      24.601   4.157  51.033  1.00  0.00     0.094 C 
HETATM    5  C19 UNL     1      23.541   4.750  50.498  1.00  0.00     0.048 C 
HETATM    6  C20 UNL     1      22.333   3.984  49.907  1.00  0.00     0.120 C 
HETATM    7  N3  UNL     1      23.400   6.206  50.504  1.00  0.00    -0.352 N 
HETATM    8  C21 UNL     1      22.099   6.357  51.186  1.00  0.00     0.204 C 
HETATM    9  N4  UNL     1      21.425   5.325  51.601  1.00  0.00    -0.249 NA
HETATM   10  H25 UNL     1      24.223   6.674  50.073  1.00  0.00     0.166 HD
ENDROOT
BRANCH   1  11
HETATM   11  N1  UNL     1      20.503   3.114  51.224  1.00  0.00    -0.391 N 
HETATM   12  H6  UNL     1      19.616   3.605  51.401  1.00  0.00     0.156 HD
BRANCH  11  13
HETATM   13  C6  UNL     1      21.040   1.820  50.884  1.00  0.00     0.067 C 
BRANCH  13  14
HETATM   14  C5  UNL     1      21.483   0.567  50.673  1.00  0.00     0.106 C 
BRANCH  14  15
HETATM   15  C4  UNL     1      21.780  -0.112  51.889  1.00  0.00     0.201 A 
HETATM   16  C3  UNL     1      21.772  -0.332  53.130  1.00  0.00     0.102 A 
HETATM   17  F1  UNL     1      22.488  -1.263  52.395  1.00  0.00    -0.358 F 
BRANCH  16  18
HETATM   18  C2  UNL     1      21.478  -0.149  54.506  1.00  0.00     0.046 C 
HETATM   19  C1  UNL     1      20.471   0.690  54.479  1.00  0.00     0.059 C 
HETATM   20 CL1  UNL     1      22.703  -1.218  55.106  1.00  0.00    -0.086 Cl
ENDBRANCH  16  18
ENDBRANCH  14  15
ENDBRANCH  13  14
ENDBRANCH  11  13
ENDBRANCH   1  11
BRANCH   3  21
HETATM   21  C10 UNL     1      24.859   2.353  52.921  1.00  0.00     0.043 C 
BRANCH  21  22
HETATM   22  C11 UNL     1      25.432   1.145  52.328  1.00  0.00     0.024 C 
BRANCH  22  23
HETATM   23  C12 UNL     1      25.539  -0.140  53.037  1.00  0.00     0.123 C 
BRANCH  23  24
HETATM   24  N2  UNL     1      26.862  -0.411  53.573  1.00  0.00    -0.381 N 
HETATM   25  C13 UNL     1      27.122   0.294  54.856  1.00  0.00     0.149 C 
HETATM   26  C14 UNL     1      28.625   0.095  55.124  1.00  0.00     0.187 C 
HETATM   27  O1  UNL     1      29.285   0.435  53.934  1.00  0.00    -0.384 OA
HETATM   28  C15 UNL     1      29.272  -0.688  53.112  1.00  0.00     0.223 C 
HETATM   29  C16 UNL     1      27.904  -1.242  53.093  1.00  0.00     0.021 C 
HETATM   30  C17 UNL     1      27.479  -2.429  52.698  1.00  0.00     0.040 C 
ENDBRANCH  23  24
ENDBRANCH  22  23
ENDBRANCH  21  22
ENDBRANCH   3  21
BRANCH   4  31
HETATM   31  O2  UNL     1      25.814   4.506  50.586  1.00  0.00    -0.358 OA
HETATM   32  H22 UNL     1      26.656   3.923  50.587  1.00  0.00     0.217 HD
ENDBRANCH   4  31
TORSDOF 10
ENDMDL
