MODEL 1
REMARK VINA RESULT:      -8.1      0.000      0.000
REMARK  6 active torsions:
REMARK  status: ('A' for Active; 'I' for Inactive)
REMARK    1  A    between atoms: C2_2  and  O1_3 
REMARK    2  A    between atoms: O1_3  and  C3_4 
REMARK    3  A    between atoms: C4_5  and  C5_6 
REMARK    4  A    between atoms: C7_8  and  N1_9 
REMARK    5  A    between atoms: N3_17  and  C14_18 
REMARK    6  A    between atoms: C14_18  and  C15_19 
ROOT
HETATM    1  N1  UNL     1      22.819   2.972  51.899  1.00  0.00    -0.317 N 
HETATM    2  C8  UNL     1      21.917   3.299  50.852  1.00  0.00     0.096 A 
HETATM    3  C9  UNL     1      21.753   4.518  50.340  1.00  0.00     0.022 A 
HETATM    4  C10 UNL     1      22.526   5.620  50.865  1.00  0.00     0.164 A 
HETATM    5  C11 UNL     1      23.469   5.209  51.965  1.00  0.00     0.005 A 
HETATM    6  C12 UNL     1      23.635   4.011  52.474  1.00  0.00     0.109 A 
HETATM    7  C13 UNL     1      24.080   6.548  52.145  1.00  0.00     0.149 C 
HETATM    8  N2  UNL     1      24.057   7.137  50.971  1.00  0.00    -0.188 NA
HETATM    9  N3  UNL     1      23.469   6.274  50.007  1.00  0.00    -0.289 N 
ENDROOT
BRANCH   1  10
HETATM   10  C7  UNL     1      22.971   1.666  52.429  1.00  0.00     0.137 A 
HETATM   11  C6  UNL     1      24.168   1.139  52.836  1.00  0.00     0.082 A 
HETATM   12  C5  UNL     1      24.283  -0.136  53.348  1.00  0.00     0.063 A 
HETATM   13  N5  UNL     1      23.207  -0.899  53.459  1.00  0.00    -0.242 NA
HETATM   14  C21 UNL     1      22.021  -0.410  53.069  1.00  0.00     0.235 A 
HETATM   15  N4  UNL     1      21.930   0.832  52.574  1.00  0.00    -0.224 NA
BRANCH  12  16
HETATM   16  C4  UNL     1      25.569  -0.643  53.762  1.00  0.00     0.055 C 
HETATM   17  C3  UNL     1      26.340   0.032  54.599  1.00  0.00     0.137 C 
BRANCH  17  18
HETATM   18  O1  UNL     1      27.577  -0.295  55.096  1.00  0.00    -0.363 OA
BRANCH  18  19
HETATM   19  C2  UNL     1      28.746   0.359  54.660  1.00  0.00     0.170 C 
HETATM   20  C1  UNL     1      29.577  -0.558  53.753  1.00  0.00     0.034 C 
ENDBRANCH  18  19
ENDBRANCH  17  18
ENDBRANCH  12  16
ENDBRANCH   1  10
BRANCH   9  21
HETATM   21  C14 UNL     1      23.881   6.247  48.605  1.00  0.00     0.184 C 
BRANCH  21  22
HETATM   22  C15 UNL     1      25.319   5.847  48.623  1.00  0.00    -0.039 A 
HETATM   23  C16 UNL     1      26.268   6.754  48.141  1.00  0.00     0.009 A 
HETATM   24  C17 UNL     1      27.612   6.500  48.108  1.00  0.00     0.001 A 
HETATM   25  C18 UNL     1      28.078   5.269  48.578  1.00  0.00     0.000 A 
HETATM   26  C19 UNL     1      27.149   4.350  49.064  1.00  0.00     0.001 A 
HETATM   27  C20 UNL     1      25.804   4.647  49.078  1.00  0.00     0.009 A 
ENDBRANCH  21  22
ENDBRANCH   9  21
TORSDOF 6
ENDMDL
MODEL 2
REMARK VINA RESULT:      -7.9      1.915      2.622
REMARK  6 active torsions:
REMARK  status: ('A' for Active; 'I' for Inactive)
REMARK    1  A    between atoms: C2_2  and  O1_3 
REMARK    2  A    between atoms: O1_3  and  C3_4 
REMARK    3  A    between atoms: C4_5  and  C5_6 
REMARK    4  A    between atoms: C7_8  and  N1_9 
REMARK    5  A    between atoms: N3_17  and  C14_18 
REMARK    6  A    between atoms: C14_18  and  C15_19 
ROOT
HETATM    1  N1  UNL     1      21.774   1.165  51.908  1.00  0.00    -0.317 N 
HETATM    2  C8  UNL     1      21.407   0.661  50.632  1.00  0.00     0.096 A 
HETATM    3  C9  UNL     1      20.800   1.366  49.679  1.00  0.00     0.022 A 
HETATM    4  C10 UNL     1      20.467   2.750  49.922  1.00  0.00     0.164 A 
HETATM    5  C11 UNL     1      20.889   3.230  51.286  1.00  0.00     0.005 A 
HETATM    6  C12 UNL     1      21.486   2.540  52.229  1.00  0.00     0.109 A 
HETATM    7  C13 UNL     1      20.453   4.633  51.093  1.00  0.00     0.149 C 
HETATM    8  N2  UNL     1      20.594   4.903  49.814  1.00  0.00    -0.188 NA
HETATM    9  N3  UNL     1      21.104   3.764  49.132  1.00  0.00    -0.289 N 
ENDROOT
BRANCH   1  10
HETATM   10  C7  UNL     1      22.415   0.391  52.907  1.00  0.00     0.137 A 
HETATM   11  C6  UNL     1      23.771   0.219  52.990  1.00  0.00     0.082 A 
HETATM   12  C5  UNL     1      24.365  -0.541  53.975  1.00  0.00     0.063 A 
HETATM   13  N5  UNL     1      23.614  -1.138  54.887  1.00  0.00    -0.242 NA
HETATM   14  C21 UNL     1      22.283  -0.987  54.832  1.00  0.00     0.235 A 
HETATM   15  N4  UNL     1      21.725  -0.244  53.867  1.00  0.00    -0.224 NA
BRANCH  12  16
HETATM   16  C4  UNL     1      25.800  -0.691  54.017  1.00  0.00     0.055 C 
HETATM   17  C3  UNL     1      26.537  -0.036  54.900  1.00  0.00     0.137 C 
BRANCH  17  18
HETATM   18  O1  UNL     1      27.896  -0.057  55.083  1.00  0.00    -0.363 OA
BRANCH  18  19
HETATM   19  C2  UNL     1      28.784   0.400  54.090  1.00  0.00     0.170 C 
HETATM   20  C1  UNL     1      29.767  -0.707  53.686  1.00  0.00     0.034 C 
ENDBRANCH  18  19
ENDBRANCH  17  18
ENDBRANCH  12  16
ENDBRANCH   1  10
BRANCH   9  21
HETATM   21  C14 UNL     1      22.002   3.858  47.983  1.00  0.00     0.184 C 
BRANCH  21  22
HETATM   22  C15 UNL     1      23.338   4.204  48.554  1.00  0.00    -0.039 A 
HETATM   23  C16 UNL     1      24.052   3.207  49.227  1.00  0.00     0.009 A 
HETATM   24  C17 UNL     1      25.283   3.406  49.789  1.00  0.00     0.001 A 
HETATM   25  C18 UNL     1      25.873   4.669  49.695  1.00  0.00     0.000 A 
HETATM   26  C19 UNL     1      25.178   5.678  49.028  1.00  0.00     0.001 A 
HETATM   27  C20 UNL     1      23.939   5.434  48.476  1.00  0.00     0.009 A 
ENDBRANCH  21  22
ENDBRANCH   9  21
TORSDOF 6
ENDMDL
MODEL 3
REMARK VINA RESULT:      -7.7      2.470      5.978
REMARK  6 active torsions:
REMARK  status: ('A' for Active; 'I' for Inactive)
REMARK    1  A    between atoms: C2_2  and  O1_3 
REMARK    2  A    between atoms: O1_3  and  C3_4 
REMARK    3  A    between atoms: C4_5  and  C5_6 
REMARK    4  A    between atoms: C7_8  and  N1_9 
REMARK    5  A    between atoms: N3_17  and  C14_18 
REMARK    6  A    between atoms: C14_18  and  C15_19 
ROOT
HETATM    1  N1  UNL     1      22.947   2.749  51.033  1.00  0.00    -0.317 N 
HETATM    2  C8  UNL     1      22.178   3.126  52.167  1.00  0.00     0.096 A 
HETATM    3  C9  UNL     1      20.850   3.056  52.244  1.00  0.00     0.022 A 
HETATM    4  C10 UNL     1      20.096   2.573  51.112  1.00  0.00     0.164 A 
HETATM    5  C11 UNL     1      20.965   2.180  49.946  1.00  0.00     0.005 A 
HETATM    6  C12 UNL     1      22.273   2.247  49.863  1.00  0.00     0.109 A 
HETATM    7  C13 UNL     1      19.857   1.698  49.089  1.00  0.00     0.149 C 
HETATM    8  N2  UNL     1      18.932   1.223  49.893  1.00  0.00    -0.188 NA
HETATM    9  N3  UNL     1      19.353   1.354  51.245  1.00  0.00    -0.289 N 
ENDROOT
BRANCH   1  10
HETATM   10  C7  UNL     1      24.360   2.837  50.975  1.00  0.00     0.137 A 
HETATM   11  C6  UNL     1      25.207   2.109  51.768  1.00  0.00     0.082 A 
HETATM   12  C5  UNL     1      26.579   2.218  51.687  1.00  0.00     0.063 A 
HETATM   13  N5  UNL     1      27.121   3.053  50.815  1.00  0.00    -0.242 NA
HETATM   14  C21 UNL     1      26.318   3.779  50.025  1.00  0.00     0.235 A 
HETATM   15  N4  UNL     1      24.987   3.659  50.119  1.00  0.00    -0.224 NA
BRANCH  12  16
HETATM   16  C4  UNL     1      27.426   1.427  52.546  1.00  0.00     0.055 C 
HETATM   17  C3  UNL     1      26.942   0.423  53.260  1.00  0.00     0.137 C 
BRANCH  17  18
HETATM   18  O1  UNL     1      27.593  -0.426  54.119  1.00  0.00    -0.363 OA
BRANCH  18  19
HETATM   19  C2  UNL     1      28.910  -0.176  54.550  1.00  0.00     0.170 C 
HETATM   20  C1  UNL     1      29.915  -0.999  53.734  1.00  0.00     0.034 C 
ENDBRANCH  18  19
ENDBRANCH  17  18
ENDBRANCH  12  16
ENDBRANCH   1  10
BRANCH   9  21
HETATM   21  C14 UNL     1      19.000   0.391  52.286  1.00  0.00     0.184 C 
BRANCH  21  22
HETATM   22  C15 UNL     1      20.298  -0.030  52.892  1.00  0.00    -0.039 A 
HETATM   23  C16 UNL     1      20.444   0.059  54.280  1.00  0.00     0.009 A 
HETATM   24  C17 UNL     1      21.584  -0.297  54.947  1.00  0.00     0.001 A 
HETATM   25  C18 UNL     1      22.673  -0.778  54.214  1.00  0.00     0.000 A 
HETATM   26  C19 UNL     1      22.549  -0.875  52.828  1.00  0.00     0.001 A 
HETATM   27  C20 UNL     1      21.381  -0.504  52.197  1.00  0.00     0.009 A 
ENDBRANCH  21  22
ENDBRANCH   9  21
TORSDOF 6
ENDMDL
MODEL 4
REMARK VINA RESULT:      -7.7      2.723      6.877
REMARK  6 active torsions:
REMARK  status: ('A' for Active; 'I' for Inactive)
REMARK    1  A    between atoms: C2_2  and  O1_3 
REMARK    2  A    between atoms: O1_3  and  C3_4 
REMARK    3  A    between atoms: C4_5  and  C5_6 
REMARK    4  A    between atoms: C7_8  and  N1_9 
REMARK    5  A    between atoms: N3_17  and  C14_18 
REMARK    6  A    between atoms: C14_18  and  C15_19 
ROOT
HETATM    1  N1  UNL     1      24.396   4.690  50.038  1.00  0.00    -0.317 N 
HETATM    2  C8  UNL     1      23.805   5.015  51.288  1.00  0.00     0.096 A 
HETATM    3  C9  UNL     1      22.845   4.310  51.883  1.00  0.00     0.022 A 
HETATM    4  C10 UNL     1      22.334   3.121  51.242  1.00  0.00     0.164 A 
HETATM    5  C11 UNL     1      23.005   2.823  49.927  1.00  0.00     0.005 A 
HETATM    6  C12 UNL     1      23.951   3.514  49.335  1.00  0.00     0.109 A 
HETATM    7  C13 UNL     1      22.277   1.558  49.671  1.00  0.00     0.149 C 
HETATM    8  N2  UNL     1      22.019   1.023  50.844  1.00  0.00    -0.188 NA
HETATM    9  N3  UNL     1      22.534   1.852  51.878  1.00  0.00    -0.289 N 
ENDROOT
BRANCH   1  10
HETATM   10  C7  UNL     1      25.414   5.461  49.422  1.00  0.00     0.137 A 
HETATM   11  C6  UNL     1      26.648   4.971  49.085  1.00  0.00     0.082 A 
HETATM   12  C5  UNL     1      27.618   5.748  48.487  1.00  0.00     0.063 A 
HETATM   13  N5  UNL     1      27.368   7.019  48.219  1.00  0.00    -0.242 NA
HETATM   14  C21 UNL     1      26.169   7.527  48.538  1.00  0.00     0.235 A 
HETATM   15  N4  UNL     1      25.240   6.756  49.118  1.00  0.00    -0.224 NA
BRANCH  12  16
HETATM   16  C4  UNL     1      28.902   5.182  48.152  1.00  0.00     0.055 C 
HETATM   17  C3  UNL     1      30.031   5.743  48.556  1.00  0.00     0.137 C 
BRANCH  17  18
HETATM   18  O1  UNL     1      31.326   5.348  48.335  1.00  0.00    -0.363 OA
BRANCH  18  19
HETATM   19  C2  UNL     1      31.654   4.418  47.329  1.00  0.00     0.170 C 
HETATM   20  C1  UNL     1      32.848   3.553  47.756  1.00  0.00     0.034 C 
ENDBRANCH  18  19
ENDBRANCH  17  18
ENDBRANCH  12  16
ENDBRANCH   1  10
BRANCH   9  21
HETATM   21  C14 UNL     1      23.060   1.324  53.135  1.00  0.00     0.184 C 
BRANCH  21  22
HETATM   22  C15 UNL     1      24.424   0.811  52.808  1.00  0.00    -0.039 A 
HETATM   23  C16 UNL     1      24.769  -0.477  53.230  1.00  0.00     0.009 A 
HETATM   24  C17 UNL     1      25.986  -1.053  52.990  1.00  0.00     0.001 A 
HETATM   25  C18 UNL     1      26.949  -0.326  52.285  1.00  0.00     0.000 A 
HETATM   26  C19 UNL     1      26.627   0.960  51.855  1.00  0.00     0.001 A 
HETATM   27  C20 UNL     1      25.388   1.502  52.119  1.00  0.00     0.009 A 
ENDBRANCH  21  22
ENDBRANCH   9  21
TORSDOF 6
ENDMDL
MODEL 5
REMARK VINA RESULT:      -7.6      3.242      5.437
REMARK  6 active torsions:
REMARK  status: ('A' for Active; 'I' for Inactive)
REMARK    1  A    between atoms: C2_2  and  O1_3 
REMARK    2  A    between atoms: O1_3  and  C3_4 
REMARK    3  A    between atoms: C4_5  and  C5_6 
REMARK    4  A    between atoms: C7_8  and  N1_9 
REMARK    5  A    between atoms: N3_17  and  C14_18 
REMARK    6  A    between atoms: C14_18  and  C15_19 
ROOT
HETATM    1  N1  UNL     1      23.280   1.214  52.963  1.00  0.00    -0.317 N 
HETATM    2  C8  UNL     1      22.920   2.482  52.432  1.00  0.00     0.096 A 
HETATM    3  C9  UNL     1      23.784   3.411  52.027  1.00  0.00     0.022 A 
HETATM    4  C10 UNL     1      25.202   3.155  52.122  1.00  0.00     0.164 A 
HETATM    5  C11 UNL     1      25.520   1.793  52.683  1.00  0.00     0.005 A 
HETATM    6  C12 UNL     1      24.675   0.874  53.085  1.00  0.00     0.109 A 
HETATM    7  C13 UNL     1      26.991   1.913  52.540  1.00  0.00     0.149 C 
HETATM    8  N2  UNL     1      27.210   2.675  51.492  1.00  0.00    -0.188 NA
HETATM    9  N3  UNL     1      25.973   3.076  50.917  1.00  0.00    -0.289 N 
ENDROOT
BRANCH   1  10
HETATM   10  C7  UNL     1      22.341   0.244  53.392  1.00  0.00     0.137 A 
HETATM   11  C6  UNL     1      21.023   0.234  53.017  1.00  0.00     0.082 A 
HETATM   12  C5  UNL     1      20.134  -0.725  53.452  1.00  0.00     0.063 A 
HETATM   13  N5  UNL     1      20.547  -1.684  54.265  1.00  0.00    -0.242 NA
HETATM   14  C21 UNL     1      21.831  -1.701  54.649  1.00  0.00     0.235 A 
HETATM   15  N4  UNL     1      22.680  -0.760  54.215  1.00  0.00    -0.224 NA
BRANCH  12  16
HETATM   16  C4  UNL     1      18.755  -0.689  53.026  1.00  0.00     0.055 C 
HETATM   17  C3  UNL     1      18.414  -0.241  51.829  1.00  0.00     0.137 C 
BRANCH  17  18
HETATM   18  O1  UNL     1      17.168  -0.136  51.264  1.00  0.00    -0.363 OA
BRANCH  18  19
HETATM   19  C2  UNL     1      16.329   0.967  51.519  1.00  0.00     0.170 C 
HETATM   20  C1  UNL     1      17.050   2.284  51.201  1.00  0.00     0.034 C 
ENDBRANCH  18  19
ENDBRANCH  17  18
ENDBRANCH  12  16
ENDBRANCH   1  10
BRANCH   9  21
HETATM   21  C14 UNL     1      25.792   3.282  49.481  1.00  0.00     0.184 C 
BRANCH  21  22
HETATM   22  C15 UNL     1      26.455   4.586  49.183  1.00  0.00    -0.039 A 
HETATM   23  C16 UNL     1      25.781   5.766  49.516  1.00  0.00     0.009 A 
HETATM   24  C17 UNL     1      26.287   7.017  49.291  1.00  0.00     0.001 A 
HETATM   25  C18 UNL     1      27.546   7.139  48.697  1.00  0.00     0.000 A 
HETATM   26  C19 UNL     1      28.235   5.976  48.357  1.00  0.00     0.001 A 
HETATM   27  C20 UNL     1      27.688   4.735  48.600  1.00  0.00     0.009 A 
ENDBRANCH  21  22
ENDBRANCH   9  21
TORSDOF 6
ENDMDL
MODEL 6
REMARK VINA RESULT:      -7.6      2.347      4.126
REMARK  6 active torsions:
REMARK  status: ('A' for Active; 'I' for Inactive)
REMARK    1  A    between atoms: C2_2  and  O1_3 
REMARK    2  A    between atoms: O1_3  and  C3_4 
REMARK    3  A    between atoms: C4_5  and  C5_6 
REMARK    4  A    between atoms: C7_8  and  N1_9 
REMARK    5  A    between atoms: N3_17  and  C14_18 
REMARK    6  A    between atoms: C14_18  and  C15_19 
ROOT
HETATM    1  N1  UNL     1      25.589   1.945  51.565  1.00  0.00    -0.317 N 
HETATM    2  C8  UNL     1      26.674   2.593  50.917  1.00  0.00     0.096 A 
HETATM    3  C9  UNL     1      26.554   3.444  49.899  1.00  0.00     0.022 A 
HETATM    4  C10 UNL     1      25.243   3.754  49.381  1.00  0.00     0.164 A 
HETATM    5  C11 UNL     1      24.134   3.045  50.114  1.00  0.00     0.005 A 
HETATM    6  C12 UNL     1      24.245   2.205  51.116  1.00  0.00     0.109 A 
HETATM    7  C13 UNL     1      23.027   3.673  49.354  1.00  0.00     0.149 C 
HETATM    8  N2  UNL     1      23.434   4.875  49.012  1.00  0.00    -0.188 NA
HETATM    9  N3  UNL     1      24.752   5.096  49.498  1.00  0.00    -0.289 N 
ENDROOT
BRANCH   1  10
HETATM   10  C7  UNL     1      25.743   1.038  52.644  1.00  0.00     0.137 A 
HETATM   11  C6  UNL     1      24.702   0.399  53.262  1.00  0.00     0.082 A 
HETATM   12  C5  UNL     1      24.885  -0.478  54.310  1.00  0.00     0.063 A 
HETATM   13  N5  UNL     1      26.107  -0.726  54.753  1.00  0.00    -0.242 NA
HETATM   14  C21 UNL     1      27.147  -0.114  54.168  1.00  0.00     0.235 A 
HETATM   15  N4  UNL     1      26.948   0.734  53.150  1.00  0.00    -0.224 NA
BRANCH  12  16
HETATM   16  C4  UNL     1      23.753  -1.126  54.927  1.00  0.00     0.055 C 
HETATM   17  C3  UNL     1      22.528  -0.980  54.448  1.00  0.00     0.137 C 
BRANCH  17  18
HETATM   18  O1  UNL     1      21.348  -1.515  54.900  1.00  0.00    -0.363 OA
BRANCH  18  19
HETATM   19  C2  UNL     1      20.190  -1.536  54.099  1.00  0.00     0.170 C 
HETATM   20  C1  UNL     1      20.125  -0.291  53.204  1.00  0.00     0.034 C 
ENDBRANCH  18  19
ENDBRANCH  17  18
ENDBRANCH  12  16
ENDBRANCH   1  10
BRANCH   9  21
HETATM   21  C14 UNL     1      25.232   6.407  49.932  1.00  0.00     0.184 C 
BRANCH  21  22
HETATM   22  C15 UNL     1      26.042   6.929  48.790  1.00  0.00    -0.039 A 
HETATM   23  C16 UNL     1      25.392   7.670  47.798  1.00  0.00     0.009 A 
HETATM   24  C17 UNL     1      26.028   8.198  46.708  1.00  0.00     0.001 A 
HETATM   25  C18 UNL     1      27.403   7.995  46.564  1.00  0.00     0.000 A 
HETATM   26  C19 UNL     1      28.071   7.259  47.543  1.00  0.00     0.001 A 
HETATM   27  C20 UNL     1      27.391   6.744  48.625  1.00  0.00     0.009 A 
ENDBRANCH  21  22
ENDBRANCH   9  21
TORSDOF 6
ENDMDL
MODEL 7
REMARK VINA RESULT:      -7.5      3.385      7.719
REMARK  6 active torsions:
REMARK  status: ('A' for Active; 'I' for Inactive)
REMARK    1  A    between atoms: C2_2  and  O1_3 
REMARK    2  A    between atoms: O1_3  and  C3_4 
REMARK    3  A    between atoms: C4_5  and  C5_6 
REMARK    4  A    between atoms: C7_8  and  N1_9 
REMARK    5  A    between atoms: N3_17  and  C14_18 
REMARK    6  A    between atoms: C14_18  and  C15_19 
ROOT
HETATM    1  N1  UNL     1      24.832   4.674  49.968  1.00  0.00    -0.317 N 
HETATM    2  C8  UNL     1      24.218   5.062  51.189  1.00  0.00     0.096 A 
HETATM    3  C9  UNL     1      23.168   4.456  51.740  1.00  0.00     0.022 A 
HETATM    4  C10 UNL     1      22.575   3.318  51.077  1.00  0.00     0.164 A 
HETATM    5  C11 UNL     1      23.274   2.950  49.795  1.00  0.00     0.005 A 
HETATM    6  C12 UNL     1      24.308   3.543  49.246  1.00  0.00     0.109 A 
HETATM    7  C13 UNL     1      22.439   1.759  49.506  1.00  0.00     0.149 C 
HETATM    8  N2  UNL     1      22.078   1.258  50.666  1.00  0.00    -0.188 NA
HETATM    9  N3  UNL     1      22.622   2.039  51.722  1.00  0.00    -0.289 N 
ENDROOT
BRANCH   1  10
HETATM   10  C7  UNL     1      25.947   5.340  49.400  1.00  0.00     0.137 A 
HETATM   11  C6  UNL     1      26.032   6.699  49.248  1.00  0.00     0.082 A 
HETATM   12  C5  UNL     1      27.132   7.317  48.692  1.00  0.00     0.063 A 
HETATM   13  N5  UNL     1      28.157   6.588  48.280  1.00  0.00    -0.242 NA
HETATM   14  C21 UNL     1      28.102   5.256  48.416  1.00  0.00     0.235 A 
HETATM   15  N4  UNL     1      27.025   4.674  48.959  1.00  0.00    -0.224 NA
BRANCH  12  16
HETATM   16  C4  UNL     1      27.171   8.753  48.555  1.00  0.00     0.055 C 
HETATM   17  C3  UNL     1      27.778   9.516  49.450  1.00  0.00     0.137 C 
BRANCH  17  18
HETATM   18  O1  UNL     1      27.913  10.881  49.480  1.00  0.00    -0.363 OA
BRANCH  18  19
HETATM   19  C2  UNL     1      28.847  11.550  48.665  1.00  0.00     0.170 C 
HETATM   20  C1  UNL     1      30.275  11.084  48.978  1.00  0.00     0.034 C 
ENDBRANCH  18  19
ENDBRANCH  17  18
ENDBRANCH  12  16
ENDBRANCH   1  10
BRANCH   9  21
HETATM   21  C14 UNL     1      23.036   1.470  53.003  1.00  0.00     0.184 C 
BRANCH  21  22
HETATM   22  C15 UNL     1      24.387   0.882  52.756  1.00  0.00    -0.039 A 
HETATM   23  C16 UNL     1      24.647  -0.409  53.228  1.00  0.00     0.009 A 
HETATM   24  C17 UNL     1      25.843  -1.050  53.061  1.00  0.00     0.001 A 
HETATM   25  C18 UNL     1      26.874  -0.391  52.385  1.00  0.00     0.000 A 
HETATM   26  C19 UNL     1      26.637   0.897  51.906  1.00  0.00     0.001 A 
HETATM   27  C20 UNL     1      25.415   1.506  52.097  1.00  0.00     0.009 A 
ENDBRANCH  21  22
ENDBRANCH   9  21
TORSDOF 6
ENDMDL
MODEL 8
REMARK VINA RESULT:      -7.5      5.053      8.278
REMARK  6 active torsions:
REMARK  status: ('A' for Active; 'I' for Inactive)
REMARK    1  A    between atoms: C2_2  and  O1_3 
REMARK    2  A    between atoms: O1_3  and  C3_4 
REMARK    3  A    between atoms: C4_5  and  C5_6 
REMARK    4  A    between atoms: C7_8  and  N1_9 
REMARK    5  A    between atoms: N3_17  and  C14_18 
REMARK    6  A    between atoms: C14_18  and  C15_19 
ROOT
HETATM    1  N1  UNL     1      29.562   7.047  47.654  1.00  0.00    -0.317 N 
HETATM    2  C8  UNL     1      29.830   7.466  46.324  1.00  0.00     0.096 A 
HETATM    3  C9  UNL     1      30.994   7.954  45.899  1.00  0.00     0.022 A 
HETATM    4  C10 UNL     1      32.091   8.090  46.829  1.00  0.00     0.164 A 
HETATM    5  C11 UNL     1      31.749   7.621  48.219  1.00  0.00     0.005 A 
HETATM    6  C12 UNL     1      30.604   7.139  48.644  1.00  0.00     0.109 A 
HETATM    7  C13 UNL     1      33.097   7.850  48.790  1.00  0.00     0.149 C 
HETATM    8  N2  UNL     1      33.960   7.656  47.818  1.00  0.00    -0.188 NA
HETATM    9  N3  UNL     1      33.273   7.306  46.623  1.00  0.00    -0.289 N 
ENDROOT
BRANCH   1  10
HETATM   10  C7  UNL     1      28.311   6.534  48.082  1.00  0.00     0.137 A 
HETATM   11  C6  UNL     1      28.121   5.255  48.532  1.00  0.00     0.082 A 
HETATM   12  C5  UNL     1      26.891   4.786  48.941  1.00  0.00     0.063 A 
HETATM   13  N5  UNL     1      25.838   5.588  48.908  1.00  0.00    -0.242 NA
HETATM   14  C21 UNL     1      25.994   6.846  48.473  1.00  0.00     0.235 A 
HETATM   15  N4  UNL     1      27.197   7.282  48.079  1.00  0.00    -0.224 NA
BRANCH  12  16
HETATM   16  C4  UNL     1      26.744   3.428  49.407  1.00  0.00     0.055 C 
HETATM   17  C3  UNL     1      26.472   3.157  50.673  1.00  0.00     0.137 C 
BRANCH  17  18
HETATM   18  O1  UNL     1      26.300   1.941  51.284  1.00  0.00    -0.363 OA
BRANCH  18  19
HETATM   19  C2  UNL     1      26.540   1.763  52.661  1.00  0.00     0.170 C 
HETATM   20  C1  UNL     1      27.951   2.238  53.033  1.00  0.00     0.034 C 
ENDBRANCH  18  19
ENDBRANCH  17  18
ENDBRANCH  12  16
ENDBRANCH   1  10
BRANCH   9  21
HETATM   21  C14 UNL     1      33.824   6.390  45.627  1.00  0.00     0.184 C 
BRANCH  21  22
HETATM   22  C15 UNL     1      33.650   5.024  46.207  1.00  0.00    -0.039 A 
HETATM   23  C16 UNL     1      32.389   4.424  46.129  1.00  0.00     0.009 A 
HETATM   24  C17 UNL     1      32.110   3.180  46.623  1.00  0.00     0.001 A 
HETATM   25  C18 UNL     1      33.131   2.455  47.244  1.00  0.00     0.000 A 
HETATM   26  C19 UNL     1      34.396   3.035  47.333  1.00  0.00     0.001 A 
HETATM   27  C20 UNL     1      34.633   4.292  46.821  1.00  0.00     0.009 A 
ENDBRANCH  21  22
ENDBRANCH   9  21
TORSDOF 6
ENDMDL
MODEL 9
REMARK VINA RESULT:      -7.4      5.543      8.427
REMARK  6 active torsions:
REMARK  status: ('A' for Active; 'I' for Inactive)
REMARK    1  A    between atoms: C2_2  and  O1_3 
REMARK    2  A    between atoms: O1_3  and  C3_4 
REMARK    3  A    between atoms: C4_5  and  C5_6 
REMARK    4  A    between atoms: C7_8  and  N1_9 
REMARK    5  A    between atoms: N3_17  and  C14_18 
REMARK    6  A    between atoms: C14_18  and  C15_19 
ROOT
HETATM    1  N1  UNL     1      21.232  -0.527  53.476  1.00  0.00    -0.317 N 
HETATM    2  C8  UNL     1      22.003   0.393  52.715  1.00  0.00     0.096 A 
HETATM    3  C9  UNL     1      23.276   0.702  52.957  1.00  0.00     0.022 A 
HETATM    4  C10 UNL     1      23.960   0.084  54.069  1.00  0.00     0.164 A 
HETATM    5  C11 UNL     1      23.095  -0.887  54.829  1.00  0.00     0.005 A 
HETATM    6  C12 UNL     1      21.840  -1.195  54.597  1.00  0.00     0.109 A 
HETATM    7  C13 UNL     1      24.151  -1.319  55.774  1.00  0.00     0.149 C 
HETATM    8  N2  UNL     1      25.294  -1.241  55.130  1.00  0.00    -0.188 NA
HETATM    9  N3  UNL     1      25.070  -0.783  53.802  1.00  0.00    -0.289 N 
ENDROOT
BRANCH   1  10
HETATM   10  C7  UNL     1      19.876  -0.835  53.200  1.00  0.00     0.137 A 
HETATM   11  C6  UNL     1      19.113  -0.174  52.274  1.00  0.00     0.082 A 
HETATM   12  C5  UNL     1      17.796  -0.499  52.029  1.00  0.00     0.063 A 
HETATM   13  N5  UNL     1      17.225  -1.484  52.703  1.00  0.00    -0.242 NA
HETATM   14  C21 UNL     1      17.947  -2.149  53.617  1.00  0.00     0.235 A 
HETATM   15  N4  UNL     1      19.226  -1.819  53.840  1.00  0.00    -0.224 NA
BRANCH  12  16
HETATM   16  C4  UNL     1      17.036   0.229  51.041  1.00  0.00     0.055 C 
HETATM   17  C3  UNL     1      15.719   0.330  51.120  1.00  0.00     0.137 C 
BRANCH  17  18
HETATM   18  O1  UNL     1      14.845   0.975  50.281  1.00  0.00    -0.363 OA
BRANCH  18  19
HETATM   19  C2  UNL     1      13.595   1.442  50.732  1.00  0.00     0.170 C 
HETATM   20  C1  UNL     1      13.766   2.378  51.936  1.00  0.00     0.034 C 
ENDBRANCH  18  19
ENDBRANCH  17  18
ENDBRANCH  12  16
ENDBRANCH   1  10
BRANCH   9  21
HETATM   21  C14 UNL     1      25.876  -1.217  52.664  1.00  0.00     0.184 C 
BRANCH  21  22
HETATM   22  C15 UNL     1      27.281  -0.841  53.008  1.00  0.00    -0.039 A 
HETATM   23  C16 UNL     1      27.574   0.509  53.223  1.00  0.00     0.009 A 
HETATM   24  C17 UNL     1      28.821   0.972  53.543  1.00  0.00     0.001 A 
HETATM   25  C18 UNL     1      29.870   0.057  53.666  1.00  0.00     0.000 A 
HETATM   26  C19 UNL     1      29.599  -1.295  53.456  1.00  0.00     0.001 A 
HETATM   27  C20 UNL     1      28.328  -1.718  53.134  1.00  0.00     0.009 A 
ENDBRANCH  21  22
ENDBRANCH   9  21
TORSDOF 6
ENDMDL
