MODEL 1
REMARK VINA RESULT:      -7.3      0.000      0.000
REMARK  6 active torsions:
REMARK  status: ('A' for Active; 'I' for Inactive)
REMARK    1  A    between atoms: C4_4  and  N1_5 
REMARK    2  A    between atoms: N1_5  and  C5_6 
REMARK    3  A    between atoms: C7_8  and  O1_9 
REMARK    4  A    between atoms: O1_9  and  C8_10 
REMARK    5  A    between atoms: C8_10  and  C9_11 
REMARK    6  A    between atoms: C9_11  and  P1_12 
ROOT
HETATM    1  C5  UNL     1      24.823   1.927  52.906  1.00  0.00     0.049 C 
HETATM    2  C6  UNL     1      24.002   2.925  53.119  1.00  0.00     0.041 C 
HETATM    3  C7  UNL     1      23.296   3.289  52.080  1.00  0.00     0.104 C 
HETATM    4  C15 UNL     1      24.125   2.800  50.956  1.00  0.00     0.070 C 
HETATM    5 CL1  UNL     1      24.083   3.112  49.218  1.00  0.00    -0.081 Cl
HETATM    6  C16 UNL     1      25.059   1.969  51.448  1.00  0.00     0.057 C 
ENDROOT
BRANCH   1   7
HETATM    7  N1  UNL     1      25.429   0.955  53.751  1.00  0.00    -0.340 N 
HETATM    8  H5  UNL     1      24.753   0.329  54.222  1.00  0.00     0.167 HD
BRANCH   7   9
HETATM    9  C4  UNL     1      26.860   1.050  53.771  1.00  0.00     0.131 A 
HETATM   10  C3  UNL     1      27.594  -0.116  53.667  1.00  0.00     0.077 A 
HETATM   11  C2  UNL     1      28.973  -0.053  53.685  1.00  0.00     0.035 A 
HETATM   12  C1  UNL     1      29.823  -1.265  53.577  1.00  0.00     0.070 C 
HETATM   13  N3  UNL     1      29.527   1.153  53.803  1.00  0.00    -0.247 NA
HETATM   14  C17 UNL     1      28.851   2.312  53.906  1.00  0.00     0.235 A 
HETATM   15  N2  UNL     1      27.487   2.241  53.888  1.00  0.00    -0.224 NA
ENDBRANCH   7   9
ENDBRANCH   1   7
BRANCH   3  16
HETATM   16  O1  UNL     1      22.130   3.924  51.694  1.00  0.00    -0.345 OA
BRANCH  16  17
HETATM   17  C8  UNL     1      20.887   3.692  52.327  1.00  0.00     0.204 C 
BRANCH  17  18
HETATM   18  C9  UNL     1      20.296   2.394  51.948  1.00  0.00     0.014 C 
BRANCH  18  19
HETATM   19  P1  UNL     1      20.467   0.941  52.648  1.00  0.00    -0.049 P 
HETATM   20  C10 UNL     1      21.636   0.077  51.838  1.00  0.00     0.014 A 
HETATM   21  C11 UNL     1      22.509  -0.848  52.608  1.00  0.00     0.001 A 
HETATM   22  C12 UNL     1      22.364  -0.982  53.906  1.00  0.00     0.000 A 
HETATM   23  C13 UNL     1      21.426  -0.335  54.814  1.00  0.00     0.001 A 
HETATM   24  C14 UNL     1      20.510   0.555  54.404  1.00  0.00     0.014 A 
ENDBRANCH  18  19
ENDBRANCH  17  18
ENDBRANCH  16  17
ENDBRANCH   3  16
TORSDOF 6
ENDMDL
MODEL 2
REMARK VINA RESULT:      -7.1      1.652      1.937
REMARK  6 active torsions:
REMARK  status: ('A' for Active; 'I' for Inactive)
REMARK    1  A    between atoms: C4_4  and  N1_5 
REMARK    2  A    between atoms: N1_5  and  C5_6 
REMARK    3  A    between atoms: C7_8  and  O1_9 
REMARK    4  A    between atoms: O1_9  and  C8_10 
REMARK    5  A    between atoms: C8_10  and  C9_11 
REMARK    6  A    between atoms: C9_11  and  P1_12 
ROOT
HETATM    1  C5  UNL     1      25.541   3.097  51.386  1.00  0.00     0.049 C 
HETATM    2  C6  UNL     1      24.338   3.105  51.904  1.00  0.00     0.041 C 
HETATM    3  C7  UNL     1      23.363   3.095  51.033  1.00  0.00     0.104 C 
HETATM    4  C15 UNL     1      24.018   3.651  49.828  1.00  0.00     0.070 C 
HETATM    5 CL1  UNL     1      23.382   4.258  48.296  1.00  0.00    -0.081 Cl
HETATM    6  C16 UNL     1      25.346   3.658  50.033  1.00  0.00     0.057 C 
ENDROOT
BRANCH   1   7
HETATM    7  N1  UNL     1      26.816   2.688  51.868  1.00  0.00    -0.340 N 
HETATM    8  H5  UNL     1      27.598   3.281  51.538  1.00  0.00     0.167 HD
BRANCH   7   9
HETATM    9  C4  UNL     1      26.747   1.533  52.715  1.00  0.00     0.131 A 
HETATM   10  C3  UNL     1      26.822   0.285  52.127  1.00  0.00     0.077 A 
HETATM   11  C2  UNL     1      26.757  -0.843  52.919  1.00  0.00     0.035 A 
HETATM   12  C1  UNL     1      26.832  -2.213  52.354  1.00  0.00     0.070 C 
HETATM   13  N3  UNL     1      26.624  -0.660  54.232  1.00  0.00    -0.247 NA
HETATM   14  C17 UNL     1      26.547   0.535  54.845  1.00  0.00     0.235 A 
HETATM   15  N2  UNL     1      26.612   1.647  54.054  1.00  0.00    -0.224 NA
ENDBRANCH   7   9
ENDBRANCH   1   7
BRANCH   3  16
HETATM   16  O1  UNL     1      22.030   2.768  50.857  1.00  0.00    -0.345 OA
BRANCH  16  17
HETATM   17  C8  UNL     1      21.013   3.208  51.734  1.00  0.00     0.204 C 
BRANCH  17  18
HETATM   18  C9  UNL     1      20.752   2.246  52.823  1.00  0.00     0.014 C 
BRANCH  18  19
HETATM   19  P1  UNL     1      21.045   0.652  52.881  1.00  0.00    -0.049 P 
HETATM   20  C10 UNL     1      22.602   0.400  53.412  1.00  0.00     0.014 A 
HETATM   21  C11 UNL     1      22.891  -0.792  54.253  1.00  0.00     0.001 A 
HETATM   22  C12 UNL     1      21.935  -1.632  54.576  1.00  0.00     0.000 A 
HETATM   23  C13 UNL     1      20.520  -1.613  54.235  1.00  0.00     0.001 A 
HETATM   24  C14 UNL     1      19.963  -0.653  53.481  1.00  0.00     0.014 A 
ENDBRANCH  18  19
ENDBRANCH  17  18
ENDBRANCH  16  17
ENDBRANCH   3  16
TORSDOF 6
ENDMDL
MODEL 3
REMARK VINA RESULT:      -7.1      2.775      4.802
REMARK  6 active torsions:
REMARK  status: ('A' for Active; 'I' for Inactive)
REMARK    1  A    between atoms: C4_4  and  N1_5 
REMARK    2  A    between atoms: N1_5  and  C5_6 
REMARK    3  A    between atoms: C7_8  and  O1_9 
REMARK    4  A    between atoms: O1_9  and  C8_10 
REMARK    5  A    between atoms: C8_10  and  C9_11 
REMARK    6  A    between atoms: C9_11  and  P1_12 
ROOT
HETATM    1  C5  UNL     1      24.559  -0.474  54.254  1.00  0.00     0.049 C 
HETATM    2  C6  UNL     1      24.338  -0.021  53.045  1.00  0.00     0.041 C 
HETATM    3  C7  UNL     1      23.101   0.330  52.806  1.00  0.00     0.104 C 
HETATM    4  C15 UNL     1      22.356  -0.460  53.811  1.00  0.00     0.070 C 
HETATM    5 CL1  UNL     1      20.638  -0.825  54.008  1.00  0.00    -0.081 Cl
HETATM    6  C16 UNL     1      23.234  -0.956  54.698  1.00  0.00     0.057 C 
ENDROOT
BRANCH   1   7
HETATM    7  N1  UNL     1      25.718  -0.558  55.075  1.00  0.00    -0.340 N 
HETATM    8  H5  UNL     1      25.594  -1.148  55.916  1.00  0.00     0.167 HD
BRANCH   7   9
HETATM    9  C4  UNL     1      26.821   0.200  54.560  1.00  0.00     0.131 A 
HETATM   10  C3  UNL     1      27.983  -0.474  54.236  1.00  0.00     0.077 A 
HETATM   11  C2  UNL     1      29.060   0.232  53.739  1.00  0.00     0.035 A 
HETATM   12  C1  UNL     1      30.337  -0.428  53.370  1.00  0.00     0.070 C 
HETATM   13  N3  UNL     1      28.914   1.548  53.597  1.00  0.00    -0.247 NA
HETATM   14  C17 UNL     1      27.802   2.243  53.899  1.00  0.00     0.235 A 
HETATM   15  N2  UNL     1      26.741   1.538  54.391  1.00  0.00    -0.224 NA
ENDBRANCH   7   9
ENDBRANCH   1   7
BRANCH   3  16
HETATM   16  O1  UNL     1      22.305   1.125  52.001  1.00  0.00    -0.345 OA
BRANCH  16  17
HETATM   17  C8  UNL     1      22.710   1.565  50.720  1.00  0.00     0.204 C 
BRANCH  17  18
HETATM   18  C9  UNL     1      23.611   2.733  50.785  1.00  0.00     0.014 C 
BRANCH  18  19
HETATM   19  P1  UNL     1      24.583   3.348  49.643  1.00  0.00    -0.049 P 
HETATM   20  C10 UNL     1      24.065   4.880  49.250  1.00  0.00     0.014 A 
HETATM   21  C11 UNL     1      25.075   5.909  48.884  1.00  0.00     0.001 A 
HETATM   22  C12 UNL     1      26.355   5.618  48.873  1.00  0.00     0.000 A 
HETATM   23  C13 UNL     1      27.031   4.365  49.181  1.00  0.00     0.001 A 
HETATM   24  C14 UNL     1      26.376   3.252  49.544  1.00  0.00     0.014 A 
ENDBRANCH  18  19
ENDBRANCH  17  18
ENDBRANCH  16  17
ENDBRANCH   3  16
TORSDOF 6
ENDMDL
MODEL 4
REMARK VINA RESULT:      -7.0      2.553      4.441
REMARK  6 active torsions:
REMARK  status: ('A' for Active; 'I' for Inactive)
REMARK    1  A    between atoms: C4_4  and  N1_5 
REMARK    2  A    between atoms: N1_5  and  C5_6 
REMARK    3  A    between atoms: C7_8  and  O1_9 
REMARK    4  A    between atoms: O1_9  and  C8_10 
REMARK    5  A    between atoms: C8_10  and  C9_11 
REMARK    6  A    between atoms: C9_11  and  P1_12 
ROOT
HETATM    1  C5  UNL     1      24.536  -0.334  54.047  1.00  0.00     0.049 C 
HETATM    2  C6  UNL     1      24.361   0.208  52.867  1.00  0.00     0.041 C 
HETATM    3  C7  UNL     1      23.131   0.564  52.602  1.00  0.00     0.104 C 
HETATM    4  C15 UNL     1      22.354  -0.307  53.511  1.00  0.00     0.070 C 
HETATM    5 CL1  UNL     1      20.634  -0.700  53.606  1.00  0.00    -0.081 Cl
HETATM    6  C16 UNL     1      23.199  -0.860  54.396  1.00  0.00     0.057 C 
ENDROOT
BRANCH   1   7
HETATM    7  N1  UNL     1      25.660  -0.469  54.910  1.00  0.00    -0.340 N 
HETATM    8  H5  UNL     1      25.483  -1.063  55.739  1.00  0.00     0.167 HD
BRANCH   7   9
HETATM    9  C4  UNL     1      26.809   0.251  54.444  1.00  0.00     0.131 A 
HETATM   10  C3  UNL     1      27.961  -0.460  54.170  1.00  0.00     0.077 A 
HETATM   11  C2  UNL     1      29.081   0.209  53.721  1.00  0.00     0.035 A 
HETATM   12  C1  UNL     1      30.351  -0.492  53.408  1.00  0.00     0.070 C 
HETATM   13  N3  UNL     1      28.985   1.530  53.575  1.00  0.00    -0.247 NA
HETATM   14  C17 UNL     1      27.884   2.261  53.829  1.00  0.00     0.235 A 
HETATM   15  N2  UNL     1      26.780   1.591  54.273  1.00  0.00    -0.224 NA
ENDBRANCH   7   9
ENDBRANCH   1   7
BRANCH   3  16
HETATM   16  O1  UNL     1      22.360   1.411  51.826  1.00  0.00    -0.345 OA
BRANCH  16  17
HETATM   17  C8  UNL     1      22.389   1.391  50.413  1.00  0.00     0.204 C 
BRANCH  17  18
HETATM   18  C9  UNL     1      22.673   2.719  49.836  1.00  0.00     0.014 C 
BRANCH  18  19
HETATM   19  P1  UNL     1      23.924   3.714  50.109  1.00  0.00    -0.049 P 
HETATM   20  C10 UNL     1      25.305   2.811  50.324  1.00  0.00     0.014 A 
HETATM   21  C11 UNL     1      26.602   3.355  49.841  1.00  0.00     0.001 A 
HETATM   22  C12 UNL     1      26.660   4.527  49.253  1.00  0.00     0.000 A 
HETATM   23  C13 UNL     1      25.597   5.478  48.957  1.00  0.00     0.001 A 
HETATM   24  C14 UNL     1      24.313   5.260  49.276  1.00  0.00     0.014 A 
ENDBRANCH  18  19
ENDBRANCH  17  18
ENDBRANCH  16  17
ENDBRANCH   3  16
TORSDOF 6
ENDMDL
MODEL 5
REMARK VINA RESULT:      -6.8      2.054      2.582
REMARK  6 active torsions:
REMARK  status: ('A' for Active; 'I' for Inactive)
REMARK    1  A    between atoms: C4_4  and  N1_5 
REMARK    2  A    between atoms: N1_5  and  C5_6 
REMARK    3  A    between atoms: C7_8  and  O1_9 
REMARK    4  A    between atoms: O1_9  and  C8_10 
REMARK    5  A    between atoms: C8_10  and  C9_11 
REMARK    6  A    between atoms: C9_11  and  P1_12 
ROOT
HETATM    1  C5  UNL     1      24.980   2.687  52.108  1.00  0.00     0.049 C 
HETATM    2  C6  UNL     1      24.362   1.937  51.229  1.00  0.00     0.041 C 
HETATM    3  C7  UNL     1      23.219   2.412  50.807  1.00  0.00     0.104 C 
HETATM    4  C15 UNL     1      22.830   3.312  51.914  1.00  0.00     0.070 C 
HETATM    5 CL1  UNL     1      21.312   4.123  52.316  1.00  0.00    -0.081 Cl
HETATM    6  C16 UNL     1      23.895   3.487  52.714  1.00  0.00     0.057 C 
ENDROOT
BRANCH   1   7
HETATM    7  N1  UNL     1      26.340   2.820  52.503  1.00  0.00    -0.340 N 
HETATM    8  H5  UNL     1      26.793   3.686  52.162  1.00  0.00     0.167 HD
BRANCH   7   9
HETATM    9  C4  UNL     1      26.800   1.717  53.296  1.00  0.00     0.131 A 
HETATM   10  C3  UNL     1      28.055   1.202  53.036  1.00  0.00     0.077 A 
HETATM   11  C2  UNL     1      28.521   0.140  53.784  1.00  0.00     0.035 A 
HETATM   12  C1  UNL     1      29.859  -0.461  53.558  1.00  0.00     0.070 C 
HETATM   13  N3  UNL     1      27.718  -0.336  54.734  1.00  0.00    -0.247 NA
HETATM   14  C17 UNL     1      26.490   0.135  55.021  1.00  0.00     0.235 A 
HETATM   15  N2  UNL     1      26.036   1.186  54.276  1.00  0.00    -0.224 NA
ENDBRANCH   7   9
ENDBRANCH   1   7
BRANCH   3  16
HETATM   16  O1  UNL     1      22.314   2.369  49.761  1.00  0.00    -0.345 OA
BRANCH  16  17
HETATM   17  C8  UNL     1      21.742   1.164  49.293  1.00  0.00     0.204 C 
BRANCH  17  18
HETATM   18  C9  UNL     1      20.342   0.998  49.728  1.00  0.00     0.014 C 
BRANCH  18  19
HETATM   19  P1  UNL     1      19.740   0.840  51.226  1.00  0.00    -0.049 P 
HETATM   20  C10 UNL     1      18.238   0.128  51.141  1.00  0.00     0.014 A 
HETATM   21  C11 UNL     1      17.815  -0.790  52.231  1.00  0.00     0.001 A 
HETATM   22  C12 UNL     1      18.612  -1.039  53.245  1.00  0.00     0.000 A 
HETATM   23  C13 UNL     1      19.951  -0.541  53.525  1.00  0.00     0.001 A 
HETATM   24  C14 UNL     1      20.598   0.310  52.715  1.00  0.00     0.014 A 
ENDBRANCH  18  19
ENDBRANCH  17  18
ENDBRANCH  16  17
ENDBRANCH   3  16
TORSDOF 6
ENDMDL
MODEL 6
REMARK VINA RESULT:      -6.8      1.878      2.347
REMARK  6 active torsions:
REMARK  status: ('A' for Active; 'I' for Inactive)
REMARK    1  A    between atoms: C4_4  and  N1_5 
REMARK    2  A    between atoms: N1_5  and  C5_6 
REMARK    3  A    between atoms: C7_8  and  O1_9 
REMARK    4  A    between atoms: O1_9  and  C8_10 
REMARK    5  A    between atoms: C8_10  and  C9_11 
REMARK    6  A    between atoms: C9_11  and  P1_12 
ROOT
HETATM    1  C5  UNL     1      25.271   1.989  51.540  1.00  0.00     0.049 C 
HETATM    2  C6  UNL     1      24.514   2.982  51.939  1.00  0.00     0.041 C 
HETATM    3  C7  UNL     1      24.441   3.988  51.107  1.00  0.00     0.104 C 
HETATM    4  C15 UNL     1      25.688   3.833  50.324  1.00  0.00     0.070 C 
HETATM    5 CL1  UNL     1      26.533   4.905  49.203  1.00  0.00    -0.081 Cl
HETATM    6  C16 UNL     1      26.202   2.619  50.580  1.00  0.00     0.057 C 
ENDROOT
BRANCH   1   7
HETATM    7  N1  UNL     1      25.317   0.601  51.851  1.00  0.00    -0.340 N 
HETATM    8  H5  UNL     1      24.715   0.016  51.247  1.00  0.00     0.167 HD
BRANCH   7   9
HETATM    9  C4  UNL     1      26.195   0.306  52.946  1.00  0.00     0.131 A 
HETATM   10  C3  UNL     1      27.462  -0.164  52.660  1.00  0.00     0.077 A 
HETATM   11  C2  UNL     1      28.327  -0.457  53.695  1.00  0.00     0.035 A 
HETATM   12  C1  UNL     1      29.701  -0.964  53.460  1.00  0.00     0.070 C 
HETATM   13  N3  UNL     1      27.880  -0.266  54.936  1.00  0.00    -0.247 NA
HETATM   14  C17 UNL     1      26.656   0.190  55.259  1.00  0.00     0.235 A 
HETATM   15  N2  UNL     1      25.806   0.477  54.229  1.00  0.00    -0.224 NA
ENDBRANCH   7   9
ENDBRANCH   1   7
BRANCH   3  16
HETATM   16  O1  UNL     1      23.662   5.066  50.730  1.00  0.00    -0.345 OA
BRANCH  16  17
HETATM   17  C8  UNL     1      22.544   5.501  51.479  1.00  0.00     0.204 C 
BRANCH  17  18
HETATM   18  C9  UNL     1      21.277   4.926  50.988  1.00  0.00     0.014 C 
BRANCH  18  19
HETATM   19  P1  UNL     1      20.735   3.400  51.079  1.00  0.00    -0.049 P 
HETATM   20  C10 UNL     1      21.372   2.517  49.820  1.00  0.00     0.014 A 
HETATM   21  C11 UNL     1      21.697   1.082  50.041  1.00  0.00     0.001 A 
HETATM   22  C12 UNL     1      21.488   0.520  51.209  1.00  0.00     0.000 A 
HETATM   23  C13 UNL     1      20.951   1.088  52.437  1.00  0.00     0.001 A 
HETATM   24  C14 UNL     1      20.567   2.369  52.542  1.00  0.00     0.014 A 
ENDBRANCH  18  19
ENDBRANCH  17  18
ENDBRANCH  16  17
ENDBRANCH   3  16
TORSDOF 6
ENDMDL
MODEL 7
REMARK VINA RESULT:      -6.8      3.112      5.937
REMARK  6 active torsions:
REMARK  status: ('A' for Active; 'I' for Inactive)
REMARK    1  A    between atoms: C4_4  and  N1_5 
REMARK    2  A    between atoms: N1_5  and  C5_6 
REMARK    3  A    between atoms: C7_8  and  O1_9 
REMARK    4  A    between atoms: O1_9  and  C8_10 
REMARK    5  A    between atoms: C8_10  and  C9_11 
REMARK    6  A    between atoms: C9_11  and  P1_12 
ROOT
HETATM    1  C5  UNL     1      24.416   2.871  51.875  1.00  0.00     0.049 C 
HETATM    2  C6  UNL     1      25.439   2.150  52.263  1.00  0.00     0.041 C 
HETATM    3  C7  UNL     1      26.600   2.558  51.823  1.00  0.00     0.104 C 
HETATM    4  C15 UNL     1      26.221   3.322  50.614  1.00  0.00     0.070 C 
HETATM    5 CL1  UNL     1      27.162   3.961  49.262  1.00  0.00    -0.081 Cl
HETATM    6  C16 UNL     1      24.892   3.518  50.635  1.00  0.00     0.057 C 
ENDROOT
BRANCH   1   7
HETATM    7  N1  UNL     1      23.111   3.086  52.398  1.00  0.00    -0.340 N 
HETATM    8  H5  UNL     1      22.962   4.039  52.775  1.00  0.00     0.167 HD
BRANCH   7   9
HETATM    9  C4  UNL     1      22.270   1.929  52.291  1.00  0.00     0.131 A 
HETATM   10  C3  UNL     1      22.305   0.999  53.312  1.00  0.00     0.077 A 
HETATM   11  C2  UNL     1      21.506  -0.124  53.233  1.00  0.00     0.035 A 
HETATM   12  C1  UNL     1      21.493  -1.162  54.294  1.00  0.00     0.070 C 
HETATM   13  N3  UNL     1      20.733  -0.249  52.156  1.00  0.00    -0.247 NA
HETATM   14  C17 UNL     1      20.668   0.632  51.141  1.00  0.00     0.235 A 
HETATM   15  N2  UNL     1      21.461   1.741  51.225  1.00  0.00    -0.224 NA
ENDBRANCH   7   9
ENDBRANCH   1   7
BRANCH   3  16
HETATM   16  O1  UNL     1      27.960   2.528  52.075  1.00  0.00    -0.345 OA
BRANCH  16  17
HETATM   17  C8  UNL     1      28.501   2.682  53.372  1.00  0.00     0.204 C 
BRANCH  17  18
HETATM   18  C9  UNL     1      28.880   1.392  53.981  1.00  0.00     0.014 C 
BRANCH  18  19
HETATM   19  P1  UNL     1      28.041   0.007  54.067  1.00  0.00    -0.049 P 
HETATM   20  C10 UNL     1      26.713   0.231  55.045  1.00  0.00     0.014 A 
HETATM   21  C11 UNL     1      25.455  -0.494  54.725  1.00  0.00     0.001 A 
HETATM   22  C12 UNL     1      25.389  -1.296  53.688  1.00  0.00     0.000 A 
HETATM   23  C13 UNL     1      26.407  -1.639  52.704  1.00  0.00     0.001 A 
HETATM   24  C14 UNL     1      27.650  -1.136  52.735  1.00  0.00     0.014 A 
ENDBRANCH  18  19
ENDBRANCH  17  18
ENDBRANCH  16  17
ENDBRANCH   3  16
TORSDOF 6
ENDMDL
MODEL 8
REMARK VINA RESULT:      -6.6      3.637      5.719
REMARK  6 active torsions:
REMARK  status: ('A' for Active; 'I' for Inactive)
REMARK    1  A    between atoms: C4_4  and  N1_5 
REMARK    2  A    between atoms: N1_5  and  C5_6 
REMARK    3  A    between atoms: C7_8  and  O1_9 
REMARK    4  A    between atoms: O1_9  and  C8_10 
REMARK    5  A    between atoms: C8_10  and  C9_11 
REMARK    6  A    between atoms: C9_11  and  P1_12 
ROOT
HETATM    1  C5  UNL     1      25.158   2.663  52.470  1.00  0.00     0.049 C 
HETATM    2  C6  UNL     1      24.976   2.540  51.178  1.00  0.00     0.041 C 
HETATM    3  C7  UNL     1      23.980   3.234  50.693  1.00  0.00     0.104 C 
HETATM    4  C15 UNL     1      23.124   3.421  51.885  1.00  0.00     0.070 C 
HETATM    5 CL1  UNL     1      21.460   3.979  52.084  1.00  0.00    -0.081 Cl
HETATM    6  C16 UNL     1      23.831   3.076  52.974  1.00  0.00     0.057 C 
ENDROOT
BRANCH   1   7
HETATM    7  N1  UNL     1      26.279   2.482  53.327  1.00  0.00    -0.340 N 
HETATM    8  H5  UNL     1      26.584   3.347  53.807  1.00  0.00     0.167 HD
BRANCH   7   9
HETATM    9  C4  UNL     1      26.754   1.129  53.344  1.00  0.00     0.131 A 
HETATM   10  C3  UNL     1      28.115   0.915  53.444  1.00  0.00     0.077 A 
HETATM   11  C2  UNL     1      28.599  -0.378  53.462  1.00  0.00     0.035 A 
HETATM   12  C1  UNL     1      30.048  -0.680  53.568  1.00  0.00     0.070 C 
HETATM   13  N3  UNL     1      27.707  -1.364  53.381  1.00  0.00    -0.247 NA
HETATM   14  C17 UNL     1      26.375  -1.200  53.283  1.00  0.00     0.235 A 
HETATM   15  N2  UNL     1      25.904   0.082  53.265  1.00  0.00    -0.224 NA
ENDBRANCH   7   9
ENDBRANCH   1   7
BRANCH   3  16
HETATM   16  O1  UNL     1      23.484   3.812  49.538  1.00  0.00    -0.345 OA
BRANCH  16  17
HETATM   17  C8  UNL     1      23.274   5.204  49.409  1.00  0.00     0.204 C 
BRANCH  17  18
HETATM   18  C9  UNL     1      24.281   5.848  48.543  1.00  0.00     0.014 C 
BRANCH  18  19
HETATM   19  P1  UNL     1      25.803   6.291  48.887  1.00  0.00    -0.049 P 
HETATM   20  C10 UNL     1      26.761   4.934  48.980  1.00  0.00     0.014 A 
HETATM   21  C11 UNL     1      28.174   5.019  48.526  1.00  0.00     0.001 A 
HETATM   22  C12 UNL     1      28.661   6.144  48.057  1.00  0.00     0.000 A 
HETATM   23  C13 UNL     1      28.018   7.439  47.881  1.00  0.00     0.001 A 
HETATM   24  C14 UNL     1      26.737   7.668  48.205  1.00  0.00     0.014 A 
ENDBRANCH  18  19
ENDBRANCH  17  18
ENDBRANCH  16  17
ENDBRANCH   3  16
TORSDOF 6
ENDMDL
MODEL 9
REMARK VINA RESULT:      -6.6      2.157      2.857
REMARK  6 active torsions:
REMARK  status: ('A' for Active; 'I' for Inactive)
REMARK    1  A    between atoms: C4_4  and  N1_5 
REMARK    2  A    between atoms: N1_5  and  C5_6 
REMARK    3  A    between atoms: C7_8  and  O1_9 
REMARK    4  A    between atoms: O1_9  and  C8_10 
REMARK    5  A    between atoms: C8_10  and  C9_11 
REMARK    6  A    between atoms: C9_11  and  P1_12 
ROOT
HETATM    1  C5  UNL     1      25.171   2.887  51.632  1.00  0.00     0.049 C 
HETATM    2  C6  UNL     1      24.521   2.627  50.525  1.00  0.00     0.041 C 
HETATM    3  C7  UNL     1      23.512   3.421  50.279  1.00  0.00     0.104 C 
HETATM    4  C15 UNL     1      23.176   3.923  51.630  1.00  0.00     0.070 C 
HETATM    5 CL1  UNL     1      21.780   4.799  52.264  1.00  0.00    -0.081 Cl
HETATM    6  C16 UNL     1      24.180   3.603  52.463  1.00  0.00     0.057 C 
ENDROOT
BRANCH   1   7
HETATM    7  N1  UNL     1      26.494   2.620  52.081  1.00  0.00    -0.340 N 
HETATM    8  H5  UNL     1      27.193   3.315  51.766  1.00  0.00     0.167 HD
BRANCH   7   9
HETATM    9  C4  UNL     1      26.581   1.433  52.882  1.00  0.00     0.131 A 
HETATM   10  C3  UNL     1      26.717   0.218  52.238  1.00  0.00     0.077 A 
HETATM   11  C2  UNL     1      26.802  -0.940  52.986  1.00  0.00     0.035 A 
HETATM   12  C1  UNL     1      26.950  -2.277  52.360  1.00  0.00     0.070 C 
HETATM   13  N3  UNL     1      26.747  -0.816  54.311  1.00  0.00    -0.247 NA
HETATM   14  C17 UNL     1      26.615   0.346  54.977  1.00  0.00     0.235 A 
HETATM   15  N2  UNL     1      26.532   1.487  54.231  1.00  0.00    -0.224 NA
ENDBRANCH   7   9
ENDBRANCH   1   7
BRANCH   3  16
HETATM   16  O1  UNL     1      22.709   3.921  49.269  1.00  0.00    -0.345 OA
BRANCH  16  17
HETATM   17  C8  UNL     1      22.347   3.161  48.133  1.00  0.00     0.204 C 
BRANCH  17  18
HETATM   18  C9  UNL     1      21.006   2.558  48.263  1.00  0.00     0.014 C 
BRANCH  18  19
HETATM   19  P1  UNL     1      20.349   1.769  49.518  1.00  0.00    -0.049 P 
HETATM   20  C10 UNL     1      21.409   0.600  50.047  1.00  0.00     0.014 A 
HETATM   21  C11 UNL     1      21.467   0.286  51.499  1.00  0.00     0.001 A 
HETATM   22  C12 UNL     1      20.698   0.920  52.353  1.00  0.00     0.000 A 
HETATM   23  C13 UNL     1      19.711   1.966  52.124  1.00  0.00     0.001 A 
HETATM   24  C14 UNL     1      19.437   2.458  50.906  1.00  0.00     0.014 A 
ENDBRANCH  18  19
ENDBRANCH  17  18
ENDBRANCH  16  17
ENDBRANCH   3  16
TORSDOF 6
ENDMDL
