MODEL 1
REMARK VINA RESULT:      -8.7      0.000      0.000
REMARK  7 active torsions:
REMARK  status: ('A' for Active; 'I' for Inactive)
REMARK    1  A    between atoms: C2_2  and  C3_4 
REMARK    2  A    between atoms: C4_5  and  C5_6 
REMARK    3  A    between atoms: C6_7  and  N1_8 
REMARK    4  A    between atoms: N1_8  and  C7_9 
REMARK    5  A    between atoms: C12_16  and  N4_17 
REMARK    6  A    between atoms: N4_17  and  C13_18 
REMARK    7  A    between atoms: C13_18  and  N5_19 
ROOT
HETATM    1  C7  UNL     1      27.333   2.217  52.483  1.00  0.00     0.141 A 
HETATM    2  N2  UNL     1      28.575   2.529  52.925  1.00  0.00    -0.224 NA
HETATM    3  C8  UNL     1      29.010   1.924  54.017  1.00  0.00     0.236 A 
HETATM    4  N3  UNL     1      28.237   1.040  54.643  1.00  0.00    -0.241 NA
HETATM    5  C9  UNL     1      27.007   0.679  54.269  1.00  0.00     0.072 A 
HETATM    6  C10 UNL     1      26.221  -0.246  54.974  1.00  0.00     0.035 A 
HETATM    7  C11 UNL     1      24.937  -0.514  54.474  1.00  0.00     0.031 A 
HETATM    8  C12 UNL     1      24.434   0.078  53.355  1.00  0.00     0.030 A 
HETATM    9  C20 UNL     1      25.262   0.983  52.704  1.00  0.00     0.046 A 
HETATM   10  C21 UNL     1      26.534   1.300  53.133  1.00  0.00     0.041 A 
ENDROOT
BRANCH   8  11
HETATM   11  N4  UNL     1      23.146  -0.087  52.820  1.00  0.00    -0.374 N 
HETATM   12  H11 UNL     1      22.866  -0.967  52.289  1.00  0.00     0.161 HD
BRANCH  11  13
HETATM   13  C13 UNL     1      22.020   0.819  52.878  1.00  0.00     0.241 C 
BRANCH  13  14
HETATM   14  N5  UNL     1      21.434   0.774  51.551  1.00  0.00    -0.394 N 
HETATM   15  C14 UNL     1      20.027   0.683  51.578  1.00  0.00     0.137 C 
HETATM   16  C15 UNL     1      19.564   2.043  52.276  1.00  0.00     0.133 C 
HETATM   17  N6  UNL     1      20.040   2.975  51.405  1.00  0.00    -0.418 N 
HETATM   18  C16 UNL     1      20.544   4.230  51.470  1.00  0.00     0.140 C 
HETATM   19  H18 UNL     1      19.412   2.900  50.509  1.00  0.00     0.153 HD
HETATM   20  C17 UNL     1      21.920   4.258  52.192  1.00  0.00     0.186 C 
HETATM   21  O1  UNL     1      22.580   3.090  51.757  1.00  0.00    -0.388 OA
HETATM   22  C18 UNL     1      22.296   2.756  50.481  1.00  0.00     0.187 C 
HETATM   23  C19 UNL     1      22.234   1.209  50.516  1.00  0.00     0.144 C 
ENDBRANCH  13  14
ENDBRANCH  11  13
ENDBRANCH   8  11
BRANCH   1  24
HETATM   24  N1  UNL     1      26.730   2.808  51.367  1.00  0.00    -0.350 N 
HETATM   25  H7  UNL     1      27.378   3.610  51.205  1.00  0.00     0.166 HD
BRANCH  24  26
HETATM   26  C6  UNL     1      25.879   3.100  50.304  1.00  0.00     0.090 C 
HETATM   27  C5  UNL     1      26.405   3.877  49.392  1.00  0.00     0.017 C 
BRANCH  27  28
HETATM   28  C4  UNL     1      27.528   4.672  48.857  1.00  0.00     0.002 C 
HETATM   29  C3  UNL     1      27.976   5.854  48.319  1.00  0.00     0.015 C 
BRANCH  29  30
HETATM   30  C2  UNL     1      29.349   5.568  48.127  1.00  0.00    -0.012 A 
HETATM   31  C1  UNL     1      29.941   6.766  47.896  1.00  0.00     0.124 A 
HETATM   32 BR1  UNL     1      31.192   5.410  47.843  1.00  0.00    -0.128 Br
ENDBRANCH  29  30
ENDBRANCH  27  28
ENDBRANCH  24  26
ENDBRANCH   1  24
TORSDOF 7
ENDMDL
MODEL 2
REMARK VINA RESULT:      -8.7      2.694      6.637
REMARK  7 active torsions:
REMARK  status: ('A' for Active; 'I' for Inactive)
REMARK    1  A    between atoms: C2_2  and  C3_4 
REMARK    2  A    between atoms: C4_5  and  C5_6 
REMARK    3  A    between atoms: C6_7  and  N1_8 
REMARK    4  A    between atoms: N1_8  and  C7_9 
REMARK    5  A    between atoms: C12_16  and  N4_17 
REMARK    6  A    between atoms: N4_17  and  C13_18 
REMARK    7  A    between atoms: C13_18  and  N5_19 
ROOT
HETATM    1  C7  UNL     1      19.837   0.531  50.978  1.00  0.00     0.141 A 
HETATM    2  N2  UNL     1      18.529   0.183  51.015  1.00  0.00    -0.224 NA
HETATM    3  C8  UNL     1      18.086  -0.427  52.102  1.00  0.00     0.236 A 
HETATM    4  N3  UNL     1      18.915  -0.678  53.112  1.00  0.00    -0.241 NA
HETATM    5  C9  UNL     1      20.213  -0.364  53.150  1.00  0.00     0.072 A 
HETATM    6  C10 UNL     1      21.053  -0.666  54.232  1.00  0.00     0.035 A 
HETATM    7  C11 UNL     1      22.402  -0.294  54.125  1.00  0.00     0.031 A 
HETATM    8  C12 UNL     1      22.917   0.336  53.032  1.00  0.00     0.030 A 
HETATM    9  C20 UNL     1      22.032   0.606  51.996  1.00  0.00     0.046 A 
HETATM   10  C21 UNL     1      20.695   0.271  52.025  1.00  0.00     0.041 A 
ENDROOT
BRANCH   8  11
HETATM   11  N4  UNL     1      24.259   0.690  52.817  1.00  0.00    -0.374 N 
HETATM   12  H11 UNL     1      24.534   1.472  52.148  1.00  0.00     0.161 HD
BRANCH  11  13
HETATM   13  C13 UNL     1      25.450   0.123  53.410  1.00  0.00     0.241 C 
BRANCH  13  14
HETATM   14  N5  UNL     1      26.369  -0.063  52.301  1.00  0.00    -0.394 N 
HETATM   15  C14 UNL     1      26.662   1.141  51.628  1.00  0.00     0.137 C 
HETATM   16  C15 UNL     1      27.395   2.034  52.731  1.00  0.00     0.133 C 
HETATM   17  N6  UNL     1      28.491   1.277  53.014  1.00  0.00    -0.418 N 
HETATM   18  C16 UNL     1      29.263   1.011  54.094  1.00  0.00     0.140 C 
HETATM   19  H18 UNL     1      29.139   1.345  52.132  1.00  0.00     0.153 HD
HETATM   20  C17 UNL     1      28.482   0.211  55.173  1.00  0.00     0.186 C 
HETATM   21  O1  UNL     1      27.683  -0.696  54.444  1.00  0.00    -0.388 OA
HETATM   22  C18 UNL     1      28.272  -1.142  53.316  1.00  0.00     0.187 C 
HETATM   23  C19 UNL     1      27.101  -1.231  52.306  1.00  0.00     0.144 C 
ENDBRANCH  13  14
ENDBRANCH  11  13
ENDBRANCH   8  11
BRANCH   1  24
HETATM   24  N1  UNL     1      20.451   1.144  49.879  1.00  0.00    -0.350 N 
HETATM   25  H7  UNL     1      21.045   1.852  50.365  1.00  0.00     0.166 HD
BRANCH  24  26
HETATM   26  C6  UNL     1      20.846   1.492  48.589  1.00  0.00     0.090 C 
HETATM   27  C5  UNL     1      21.967   2.165  48.534  1.00  0.00     0.017 C 
BRANCH  27  28
HETATM   28  C4  UNL     1      23.132   2.799  49.183  1.00  0.00     0.002 C 
HETATM   29  C3  UNL     1      23.656   3.450  50.273  1.00  0.00     0.015 C 
BRANCH  29  30
HETATM   30  C2  UNL     1      24.993   3.657  49.856  1.00  0.00    -0.012 A 
HETATM   31  C1  UNL     1      25.243   4.971  50.075  1.00  0.00     0.124 A 
HETATM   32 BR1  UNL     1      26.732   4.143  49.363  1.00  0.00    -0.128 Br
ENDBRANCH  29  30
ENDBRANCH  27  28
ENDBRANCH  24  26
ENDBRANCH   1  24
TORSDOF 7
ENDMDL
MODEL 3
REMARK VINA RESULT:      -8.4      3.504      5.966
REMARK  7 active torsions:
REMARK  status: ('A' for Active; 'I' for Inactive)
REMARK    1  A    between atoms: C2_2  and  C3_4 
REMARK    2  A    between atoms: C4_5  and  C5_6 
REMARK    3  A    between atoms: C6_7  and  N1_8 
REMARK    4  A    between atoms: N1_8  and  C7_9 
REMARK    5  A    between atoms: C12_16  and  N4_17 
REMARK    6  A    between atoms: N4_17  and  C13_18 
REMARK    7  A    between atoms: C13_18  and  N5_19 
ROOT
HETATM    1  C7  UNL     1      26.307  -0.114  54.518  1.00  0.00     0.141 A 
HETATM    2  N2  UNL     1      27.536  -0.321  55.049  1.00  0.00    -0.224 NA
HETATM    3  C8  UNL     1      28.558   0.313  54.497  1.00  0.00     0.236 A 
HETATM    4  N3  UNL     1      28.362   1.121  53.460  1.00  0.00    -0.241 NA
HETATM    5  C9  UNL     1      27.183   1.377  52.884  1.00  0.00     0.072 A 
HETATM    6  C10 UNL     1      27.027   2.224  51.776  1.00  0.00     0.035 A 
HETATM    7  C11 UNL     1      25.731   2.383  51.264  1.00  0.00     0.031 A 
HETATM    8  C12 UNL     1      24.640   1.758  51.788  1.00  0.00     0.030 A 
HETATM    9  C20 UNL     1      24.862   0.932  52.882  1.00  0.00     0.046 A 
HETATM   10  C21 UNL     1      26.104   0.724  53.443  1.00  0.00     0.041 A 
ENDROOT
BRANCH   8  11
HETATM   11  N4  UNL     1      23.323   1.814  51.303  1.00  0.00    -0.374 N 
HETATM   12  H11 UNL     1      22.872   0.987  50.805  1.00  0.00     0.161 HD
BRANCH  11  13
HETATM   13  C13 UNL     1      22.377   2.906  51.375  1.00  0.00     0.241 C 
BRANCH  13  14
HETATM   14  N5  UNL     1      21.888   3.068  50.019  1.00  0.00    -0.394 N 
HETATM   15  C14 UNL     1      20.524   3.423  49.970  1.00  0.00     0.137 C 
HETATM   16  C15 UNL     1      20.468   4.849  50.689  1.00  0.00     0.133 C 
HETATM   17  N6  UNL     1      21.263   5.598  49.876  1.00  0.00    -0.418 N 
HETATM   18  C16 UNL     1      22.129   6.629  50.010  1.00  0.00     0.140 C 
HETATM   19  H18 UNL     1      20.698   5.738  48.947  1.00  0.00     0.153 HD
HETATM   20  C17 UNL     1      23.398   6.212  50.803  1.00  0.00     0.186 C 
HETATM   21  O1  UNL     1      23.686   4.903  50.363  1.00  0.00    -0.388 OA
HETATM   22  C18 UNL     1      23.389   4.696  49.064  1.00  0.00     0.187 C 
HETATM   23  C19 UNL     1      22.844   3.246  49.043  1.00  0.00     0.144 C 
ENDBRANCH  13  14
ENDBRANCH  11  13
ENDBRANCH   8  11
BRANCH   1  24
HETATM   24  N1  UNL     1      25.144  -0.747  54.972  1.00  0.00    -0.350 N 
HETATM   25  H7  UNL     1      24.424  -0.250  54.403  1.00  0.00     0.166 HD
BRANCH  24  26
HETATM   26  C6  UNL     1      24.246  -1.573  55.644  1.00  0.00     0.090 C 
HETATM   27  C5  UNL     1      22.988  -1.334  55.369  1.00  0.00     0.017 C 
BRANCH  27  28
HETATM   28  C4  UNL     1      21.937  -0.581  54.658  1.00  0.00     0.002 C 
HETATM   29  C3  UNL     1      20.936   0.359  54.700  1.00  0.00     0.015 C 
BRANCH  29  30
HETATM   30  C2  UNL     1      20.488   0.347  53.357  1.00  0.00    -0.012 A 
HETATM   31  C1  UNL     1      19.458  -0.533  53.325  1.00  0.00     0.124 A 
HETATM   32 BR1  UNL     1      19.745   0.182  51.647  1.00  0.00    -0.128 Br
ENDBRANCH  29  30
ENDBRANCH  27  28
ENDBRANCH  24  26
ENDBRANCH   1  24
TORSDOF 7
ENDMDL
MODEL 4
REMARK VINA RESULT:      -8.4      1.100      1.859
REMARK  7 active torsions:
REMARK  status: ('A' for Active; 'I' for Inactive)
REMARK    1  A    between atoms: C2_2  and  C3_4 
REMARK    2  A    between atoms: C4_5  and  C5_6 
REMARK    3  A    between atoms: C6_7  and  N1_8 
REMARK    4  A    between atoms: N1_8  and  C7_9 
REMARK    5  A    between atoms: C12_16  and  N4_17 
REMARK    6  A    between atoms: N4_17  and  C13_18 
REMARK    7  A    between atoms: C13_18  and  N5_19 
ROOT
HETATM    1  C7  UNL     1      27.216   2.166  52.482  1.00  0.00     0.141 A 
HETATM    2  N2  UNL     1      28.505   2.368  52.846  1.00  0.00    -0.224 NA
HETATM    3  C8  UNL     1      28.959   1.704  53.896  1.00  0.00     0.236 A 
HETATM    4  N3  UNL     1      28.158   0.871  54.556  1.00  0.00    -0.241 NA
HETATM    5  C9  UNL     1      26.881   0.618  54.257  1.00  0.00     0.072 A 
HETATM    6  C10 UNL     1      26.069  -0.257  54.995  1.00  0.00     0.035 A 
HETATM    7  C11 UNL     1      24.739  -0.410  54.577  1.00  0.00     0.031 A 
HETATM    8  C12 UNL     1      24.214   0.247  53.504  1.00  0.00     0.030 A 
HETATM    9  C20 UNL     1      25.070   1.098  52.817  1.00  0.00     0.046 A 
HETATM   10  C21 UNL     1      26.388   1.302  53.166  1.00  0.00     0.041 A 
ENDROOT
BRANCH   8  11
HETATM   11  N4  UNL     1      22.885   0.198  53.054  1.00  0.00    -0.374 N 
HETATM   12  H11 UNL     1      22.063   0.179  53.730  1.00  0.00     0.161 HD
BRANCH  11  13
HETATM   13  C13 UNL     1      22.390   0.173  51.695  1.00  0.00     0.241 C 
BRANCH  13  14
HETATM   14  N5  UNL     1      22.148   1.564  51.358  1.00  0.00    -0.394 N 
HETATM   15  C14 UNL     1      22.310   1.828  49.982  1.00  0.00     0.137 C 
HETATM   16  C15 UNL     1      21.177   0.947  49.282  1.00  0.00     0.133 C 
HETATM   17  N6  UNL     1      20.044   1.479  49.817  1.00  0.00    -0.418 N 
HETATM   18  C16 UNL     1      18.818   1.040  50.185  1.00  0.00     0.140 C 
HETATM   19  H18 UNL     1      19.936   2.473  49.366  1.00  0.00     0.153 HD
HETATM   20  C17 UNL     1      18.896   0.080  51.404  1.00  0.00     0.186 C 
HETATM   21  O1  UNL     1      19.895   0.630  52.235  1.00  0.00    -0.388 OA
HETATM   22  C18 UNL     1      19.931   1.978  52.210  1.00  0.00     0.187 C 
HETATM   23  C19 UNL     1      21.444   2.302  52.284  1.00  0.00     0.144 C 
ENDBRANCH  13  14
ENDBRANCH  11  13
ENDBRANCH   8  11
BRANCH   1  24
HETATM   24  N1  UNL     1      26.592   2.830  51.419  1.00  0.00    -0.350 N 
HETATM   25  H7  UNL     1      27.231   3.648  51.307  1.00  0.00     0.166 HD
BRANCH  24  26
HETATM   26  C6  UNL     1      25.724   3.189  50.391  1.00  0.00     0.090 C 
HETATM   27  C5  UNL     1      26.265   3.948  49.472  1.00  0.00     0.017 C 
BRANCH  27  28
HETATM   28  C4  UNL     1      27.414   4.685  48.909  1.00  0.00     0.002 C 
HETATM   29  C3  UNL     1      27.913   5.848  48.377  1.00  0.00     0.015 C 
BRANCH  29  30
HETATM   30  C2  UNL     1      29.258   5.484  48.128  1.00  0.00    -0.012 A 
HETATM   31  C1  UNL     1      29.925   6.652  47.954  1.00  0.00     0.124 A 
HETATM   32 BR1  UNL     1      31.079   5.221  47.782  1.00  0.00    -0.128 Br
ENDBRANCH  29  30
ENDBRANCH  27  28
ENDBRANCH  24  26
ENDBRANCH   1  24
TORSDOF 7
ENDMDL
MODEL 5
REMARK VINA RESULT:      -8.2      3.700      6.062
REMARK  7 active torsions:
REMARK  status: ('A' for Active; 'I' for Inactive)
REMARK    1  A    between atoms: C2_2  and  C3_4 
REMARK    2  A    between atoms: C4_5  and  C5_6 
REMARK    3  A    between atoms: C6_7  and  N1_8 
REMARK    4  A    between atoms: N1_8  and  C7_9 
REMARK    5  A    between atoms: C12_16  and  N4_17 
REMARK    6  A    between atoms: N4_17  and  C13_18 
REMARK    7  A    between atoms: C13_18  and  N5_19 
ROOT
HETATM    1  C7  UNL     1      26.679   0.023  54.571  1.00  0.00     0.141 A 
HETATM    2  N2  UNL     1      27.949  -0.183  54.993  1.00  0.00    -0.224 NA
HETATM    3  C8  UNL     1      28.916   0.478  54.378  1.00  0.00     0.236 A 
HETATM    4  N3  UNL     1      28.627   1.312  53.384  1.00  0.00    -0.241 NA
HETATM    5  C9  UNL     1      27.403   1.569  52.914  1.00  0.00     0.072 A 
HETATM    6  C10 UNL     1      27.148   2.445  51.848  1.00  0.00     0.035 A 
HETATM    7  C11 UNL     1      25.813   2.602  51.447  1.00  0.00     0.031 A 
HETATM    8  C12 UNL     1      24.774   1.949  52.041  1.00  0.00     0.030 A 
HETATM    9  C20 UNL     1      25.094   1.096  53.089  1.00  0.00     0.046 A 
HETATM   10  C21 UNL     1      26.380   0.888  53.540  1.00  0.00     0.041 A 
ENDROOT
BRANCH   8  11
HETATM   11  N4  UNL     1      23.422   2.002  51.667  1.00  0.00    -0.374 N 
HETATM   12  H11 UNL     1      22.647   2.160  52.382  1.00  0.00     0.161 HD
BRANCH  11  13
HETATM   13  C13 UNL     1      22.841   1.872  50.349  1.00  0.00     0.241 C 
BRANCH  13  14
HETATM   14  N5  UNL     1      22.557   3.231  49.928  1.00  0.00    -0.394 N 
HETATM   15  C14 UNL     1      22.719   3.416  48.539  1.00  0.00     0.137 C 
HETATM   16  C15 UNL     1      21.618   2.459  47.889  1.00  0.00     0.133 C 
HETATM   17  N6  UNL     1      20.466   2.987  48.387  1.00  0.00    -0.418 N 
HETATM   18  C16 UNL     1      19.252   2.532  48.776  1.00  0.00     0.140 C 
HETATM   19  H18 UNL     1      20.328   3.947  47.876  1.00  0.00     0.153 HD
HETATM   20  C17 UNL     1      19.353   1.650  50.051  1.00  0.00     0.186 C 
HETATM   21  O1  UNL     1      20.329   2.280  50.851  1.00  0.00    -0.388 OA
HETATM   22  C18 UNL     1      20.323   3.625  50.745  1.00  0.00     0.187 C 
HETATM   23  C19 UNL     1      21.824   4.001  50.805  1.00  0.00     0.144 C 
ENDBRANCH  13  14
ENDBRANCH  11  13
ENDBRANCH   8  11
BRANCH   1  24
HETATM   24  N1  UNL     1      25.563  -0.637  55.100  1.00  0.00    -0.350 N 
HETATM   25  H7  UNL     1      25.020  -0.820  54.227  1.00  0.00     0.166 HD
BRANCH  24  26
HETATM   26  C6  UNL     1      24.646  -1.234  55.962  1.00  0.00     0.090 C 
HETATM   27  C5  UNL     1      23.435  -1.329  55.476  1.00  0.00     0.017 C 
BRANCH  27  28
HETATM   28  C4  UNL     1      22.451  -1.116  54.396  1.00  0.00     0.002 C 
HETATM   29  C3  UNL     1      22.203  -0.860  53.069  1.00  0.00     0.015 C 
BRANCH  29  30
HETATM   30  C2  UNL     1      20.788  -0.840  53.050  1.00  0.00    -0.012 A 
HETATM   31  C1  UNL     1      20.431   0.257  53.762  1.00  0.00     0.124 A 
HETATM   32 BR1  UNL     1      18.931  -0.627  53.148  1.00  0.00    -0.128 Br
ENDBRANCH  29  30
ENDBRANCH  27  28
ENDBRANCH  24  26
ENDBRANCH   1  24
TORSDOF 7
ENDMDL
MODEL 6
REMARK VINA RESULT:      -7.9      3.339      4.798
REMARK  7 active torsions:
REMARK  status: ('A' for Active; 'I' for Inactive)
REMARK    1  A    between atoms: C2_2  and  C3_4 
REMARK    2  A    between atoms: C4_5  and  C5_6 
REMARK    3  A    between atoms: C6_7  and  N1_8 
REMARK    4  A    between atoms: N1_8  and  C7_9 
REMARK    5  A    between atoms: C12_16  and  N4_17 
REMARK    6  A    between atoms: N4_17  and  C13_18 
REMARK    7  A    between atoms: C13_18  and  N5_19 
ROOT
HETATM    1  C7  UNL     1      23.608   0.130  53.335  1.00  0.00     0.141 A 
HETATM    2  N2  UNL     1      24.486  -0.352  54.246  1.00  0.00    -0.224 NA
HETATM    3  C8  UNL     1      24.024  -1.184  55.165  1.00  0.00     0.236 A 
HETATM    4  N3  UNL     1      22.738  -1.522  55.173  1.00  0.00    -0.241 NA
HETATM    5  C9  UNL     1      21.814  -1.092  54.310  1.00  0.00     0.072 A 
HETATM    6  C10 UNL     1      20.462  -1.462  54.370  1.00  0.00     0.035 A 
HETATM    7  C11 UNL     1      19.600  -0.916  53.407  1.00  0.00     0.031 A 
HETATM    8  C12 UNL     1      20.016  -0.055  52.436  1.00  0.00     0.030 A 
HETATM    9  C20 UNL     1      21.366   0.273  52.432  1.00  0.00     0.046 A 
HETATM   10  C21 UNL     1      22.275  -0.222  53.344  1.00  0.00     0.041 A 
ENDROOT
BRANCH   8  11
HETATM   11  N4  UNL     1      19.215   0.583  51.475  1.00  0.00    -0.374 N 
HETATM   12  H11 UNL     1      18.761   0.044  50.676  1.00  0.00     0.161 HD
BRANCH  11  13
HETATM   13  C13 UNL     1      18.862   1.982  51.375  1.00  0.00     0.241 C 
BRANCH  13  14
HETATM   14  N5  UNL     1      18.903   2.278  49.955  1.00  0.00    -0.394 N 
HETATM   15  C14 UNL     1      17.883   3.165  49.553  1.00  0.00     0.137 C 
HETATM   16  C15 UNL     1      18.204   4.512  50.347  1.00  0.00     0.133 C 
HETATM   17  N6  UNL     1      19.435   4.831  49.862  1.00  0.00    -0.418 N 
HETATM   18  C16 UNL     1      20.565   5.415  50.327  1.00  0.00     0.140 C 
HETATM   19  H18 UNL     1      19.277   5.156  48.827  1.00  0.00     0.153 HD
HETATM   20  C17 UNL     1      21.260   4.542  51.407  1.00  0.00     0.186 C 
HETATM   21  O1  UNL     1      21.104   3.215  50.954  1.00  0.00    -0.388 OA
HETATM   22  C18 UNL     1      21.145   3.098  49.611  1.00  0.00     0.187 C 
HETATM   23  C19 UNL     1      20.090   2.005  49.309  1.00  0.00     0.144 C 
ENDBRANCH  13  14
ENDBRANCH  11  13
ENDBRANCH   8  11
BRANCH   1  24
HETATM   24  N1  UNL     1      23.947   1.047  52.332  1.00  0.00    -0.350 N 
HETATM   25  H7  UNL     1      22.997   1.375  52.048  1.00  0.00     0.166 HD
BRANCH  24  26
HETATM   26  C6  UNL     1      24.647   1.847  51.432  1.00  0.00     0.090 C 
HETATM   27  C5  UNL     1      25.935   1.909  51.657  1.00  0.00     0.017 C 
BRANCH  27  28
HETATM   28  C4  UNL     1      27.134   1.539  52.433  1.00  0.00     0.002 C 
HETATM   29  C3  UNL     1      28.094   1.897  53.349  1.00  0.00     0.015 C 
BRANCH  29  30
HETATM   30  C2  UNL     1      28.869   0.715  53.414  1.00  0.00    -0.012 A 
HETATM   31  C1  UNL     1      28.692   0.232  54.668  1.00  0.00     0.124 A 
HETATM   32 BR1  UNL     1      29.823  -0.868  53.711  1.00  0.00    -0.128 Br
ENDBRANCH  29  30
ENDBRANCH  27  28
ENDBRANCH  24  26
ENDBRANCH   1  24
TORSDOF 7
ENDMDL
MODEL 7
REMARK VINA RESULT:      -7.9      4.291      9.635
REMARK  7 active torsions:
REMARK  status: ('A' for Active; 'I' for Inactive)
REMARK    1  A    between atoms: C2_2  and  C3_4 
REMARK    2  A    between atoms: C4_5  and  C5_6 
REMARK    3  A    between atoms: C6_7  and  N1_8 
REMARK    4  A    between atoms: N1_8  and  C7_9 
REMARK    5  A    between atoms: C12_16  and  N4_17 
REMARK    6  A    between atoms: N4_17  and  C13_18 
REMARK    7  A    between atoms: C13_18  and  N5_19 
ROOT
HETATM    1  C7  UNL     1      24.988   3.460  50.298  1.00  0.00     0.141 A 
HETATM    2  N2  UNL     1      23.651   3.395  50.499  1.00  0.00    -0.224 NA
HETATM    3  C8  UNL     1      22.906   4.369  50.002  1.00  0.00     0.236 A 
HETATM    4  N3  UNL     1      23.474   5.367  49.330  1.00  0.00    -0.241 NA
HETATM    5  C9  UNL     1      24.782   5.499  49.089  1.00  0.00     0.072 A 
HETATM    6  C10 UNL     1      25.338   6.580  48.390  1.00  0.00     0.035 A 
HETATM    7  C11 UNL     1      26.732   6.597  48.230  1.00  0.00     0.031 A 
HETATM    8  C12 UNL     1      27.550   5.624  48.719  1.00  0.00     0.030 A 
HETATM    9  C20 UNL     1      26.937   4.581  49.402  1.00  0.00     0.046 A 
HETATM   10  C21 UNL     1      25.576   4.494  49.601  1.00  0.00     0.041 A 
ENDROOT
BRANCH   8  11
HETATM   11  N4  UNL     1      28.953   5.592  48.657  1.00  0.00    -0.374 N 
HETATM   12  H11 UNL     1      29.535   5.052  49.368  1.00  0.00     0.161 HD
BRANCH  11  13
HETATM   13  C13 UNL     1      29.831   6.223  47.696  1.00  0.00     0.241 C 
BRANCH  13  14
HETATM   14  N5  UNL     1      31.171   5.863  48.120  1.00  0.00    -0.394 N 
HETATM   15  C14 UNL     1      32.043   5.632  47.036  1.00  0.00     0.137 C 
HETATM   16  C15 UNL     1      32.122   7.044  46.294  1.00  0.00     0.133 C 
HETATM   17  N6  UNL     1      32.650   7.837  47.267  1.00  0.00    -0.418 N 
HETATM   18  C16 UNL     1      32.543   9.127  47.664  1.00  0.00     0.140 C 
HETATM   19  H18 UNL     1      33.695   7.526  47.376  1.00  0.00     0.153 HD
HETATM   20  C17 UNL     1      31.130   9.437  48.231  1.00  0.00     0.186 C 
HETATM   21  O1  UNL     1      30.771   8.283  48.959  1.00  0.00    -0.388 OA
HETATM   22  C18 UNL     1      31.818   7.684  49.564  1.00  0.00     0.187 C 
HETATM   23  C19 UNL     1      31.503   6.174  49.421  1.00  0.00     0.144 C 
ENDBRANCH  13  14
ENDBRANCH  11  13
ENDBRANCH   8  11
BRANCH   1  24
HETATM   24  N1  UNL     1      25.899   2.523  50.801  1.00  0.00    -0.350 N 
HETATM   25  H7  UNL     1      26.653   2.588  50.081  1.00  0.00     0.166 HD
BRANCH  24  26
HETATM   26  C6  UNL     1      26.532   1.556  51.579  1.00  0.00     0.090 C 
HETATM   27  C5  UNL     1      25.722   0.861  52.335  1.00  0.00     0.017 C 
BRANCH  27  28
HETATM   28  C4  UNL     1      24.371   0.539  52.836  1.00  0.00     0.002 C 
HETATM   29  C3  UNL     1      23.079   0.946  53.069  1.00  0.00     0.015 C 
BRANCH  29  30
HETATM   30  C2  UNL     1      22.520  -0.222  53.640  1.00  0.00    -0.012 A 
HETATM   31  C1  UNL     1      21.378   0.182  54.249  1.00  0.00     0.124 A 
HETATM   32 BR1  UNL     1      21.615  -1.635  54.469  1.00  0.00    -0.128 Br
ENDBRANCH  29  30
ENDBRANCH  27  28
ENDBRANCH  24  26
ENDBRANCH   1  24
TORSDOF 7
ENDMDL
MODEL 8
REMARK VINA RESULT:      -7.8      4.028      6.208
REMARK  7 active torsions:
REMARK  status: ('A' for Active; 'I' for Inactive)
REMARK    1  A    between atoms: C2_2  and  C3_4 
REMARK    2  A    between atoms: C4_5  and  C5_6 
REMARK    3  A    between atoms: C6_7  and  N1_8 
REMARK    4  A    between atoms: N1_8  and  C7_9 
REMARK    5  A    between atoms: C12_16  and  N4_17 
REMARK    6  A    between atoms: N4_17  and  C13_18 
REMARK    7  A    between atoms: C13_18  and  N5_19 
ROOT
HETATM    1  C7  UNL     1      22.760   0.029  53.416  1.00  0.00     0.141 A 
HETATM    2  N2  UNL     1      23.335  -0.618  54.457  1.00  0.00    -0.224 NA
HETATM    3  C8  UNL     1      22.575  -1.431  55.173  1.00  0.00     0.236 A 
HETATM    4  N3  UNL     1      21.292  -1.592  54.860  1.00  0.00    -0.241 NA
HETATM    5  C9  UNL     1      20.655  -0.993  53.850  1.00  0.00     0.072 A 
HETATM    6  C10 UNL     1      19.293  -1.180  53.570  1.00  0.00     0.035 A 
HETATM    7  C11 UNL     1      18.753  -0.469  52.488  1.00  0.00     0.031 A 
HETATM    8  C12 UNL     1      19.485   0.382  51.716  1.00  0.00     0.030 A 
HETATM    9  C20 UNL     1      20.827   0.524  52.046  1.00  0.00     0.046 A 
HETATM   10  C21 UNL     1      21.430  -0.140  53.093  1.00  0.00     0.041 A 
ENDROOT
BRANCH   8  11
HETATM   11  N4  UNL     1      19.014   1.175  50.657  1.00  0.00    -0.374 N 
HETATM   12  H11 UNL     1      19.602   1.958  50.236  1.00  0.00     0.161 HD
BRANCH  11  13
HETATM   13  C13 UNL     1      17.745   1.103  49.966  1.00  0.00     0.241 C 
BRANCH  13  14
HETATM   14  N5  UNL     1      17.464   2.466  49.554  1.00  0.00    -0.394 N 
HETATM   15  C14 UNL     1      16.666   2.531  48.394  1.00  0.00     0.137 C 
HETATM   16  C15 UNL     1      15.287   1.855  48.833  1.00  0.00     0.133 C 
HETATM   17  N6  UNL     1      14.879   2.686  49.832  1.00  0.00    -0.418 N 
HETATM   18  C16 UNL     1      14.203   2.577  51.000  1.00  0.00     0.140 C 
HETATM   19  H18 UNL     1      14.581   3.621  49.344  1.00  0.00     0.153 HD
HETATM   20  C17 UNL     1      15.006   1.767  52.054  1.00  0.00     0.186 C 
HETATM   21  O1  UNL     1      16.347   2.167  51.874  1.00  0.00    -0.388 OA
HETATM   22  C18 UNL     1      16.477   3.461  51.516  1.00  0.00     0.187 C 
HETATM   23  C19 UNL     1      17.653   3.442  50.508  1.00  0.00     0.144 C 
ENDBRANCH  13  14
ENDBRANCH  11  13
ENDBRANCH   8  11
BRANCH   1  24
HETATM   24  N1  UNL     1      23.431   0.947  52.600  1.00  0.00    -0.350 N 
HETATM   25  H7  UNL     1      22.795   1.771  52.681  1.00  0.00     0.166 HD
BRANCH  24  26
HETATM   26  C6  UNL     1      24.348   1.561  51.749  1.00  0.00     0.090 C 
HETATM   27  C5  UNL     1      25.546   1.036  51.782  1.00  0.00     0.017 C 
BRANCH  27  28
HETATM   28  C4  UNL     1      26.515   0.046  52.294  1.00  0.00     0.002 C 
HETATM   29  C3  UNL     1      26.779  -1.247  52.675  1.00  0.00     0.015 C 
BRANCH  29  30
HETATM   30  C2  UNL     1      28.139  -1.151  53.054  1.00  0.00    -0.012 A 
HETATM   31  C1  UNL     1      28.204  -0.109  53.918  1.00  0.00     0.124 A 
HETATM   32 BR1  UNL     1      29.877  -0.852  53.682  1.00  0.00    -0.128 Br
ENDBRANCH  29  30
ENDBRANCH  27  28
ENDBRANCH  24  26
ENDBRANCH   1  24
TORSDOF 7
ENDMDL
MODEL 9
REMARK VINA RESULT:      -7.8      3.799      6.282
REMARK  7 active torsions:
REMARK  status: ('A' for Active; 'I' for Inactive)
REMARK    1  A    between atoms: C2_2  and  C3_4 
REMARK    2  A    between atoms: C4_5  and  C5_6 
REMARK    3  A    between atoms: C6_7  and  N1_8 
REMARK    4  A    between atoms: N1_8  and  C7_9 
REMARK    5  A    between atoms: C12_16  and  N4_17 
REMARK    6  A    between atoms: N4_17  and  C13_18 
REMARK    7  A    between atoms: C13_18  and  N5_19 
ROOT
HETATM    1  C7  UNL     1      25.291  -0.500  53.684  1.00  0.00     0.141 A 
HETATM    2  N2  UNL     1      26.385  -1.287  53.806  1.00  0.00    -0.224 NA
HETATM    3  C8  UNL     1      27.471  -0.940  53.134  1.00  0.00     0.236 A 
HETATM    4  N3  UNL     1      27.464   0.150  52.373  1.00  0.00    -0.241 NA
HETATM    5  C9  UNL     1      26.428   0.976  52.204  1.00  0.00     0.072 A 
HETATM    6  C10 UNL     1      26.462   2.106  51.373  1.00  0.00     0.035 A 
HETATM    7  C11 UNL     1      25.290   2.871  51.277  1.00  0.00     0.031 A 
HETATM    8  C12 UNL     1      24.142   2.565  51.943  1.00  0.00     0.030 A 
HETATM    9  C20 UNL     1      24.174   1.433  52.748  1.00  0.00     0.046 A 
HETATM   10  C21 UNL     1      25.285   0.630  52.894  1.00  0.00     0.041 A 
ENDROOT
BRANCH   8  11
HETATM   11  N4  UNL     1      22.912   3.237  51.858  1.00  0.00    -0.374 N 
HETATM   12  H11 UNL     1      22.525   3.805  52.673  1.00  0.00     0.161 HD
BRANCH  11  13
HETATM   13  C13 UNL     1      21.992   3.304  50.745  1.00  0.00     0.241 C 
BRANCH  13  14
HETATM   14  N5  UNL     1      21.068   4.370  51.085  1.00  0.00    -0.394 N 
HETATM   15  C14 UNL     1      21.559   5.647  50.745  1.00  0.00     0.137 C 
HETATM   16  C15 UNL     1      21.693   5.601  49.155  1.00  0.00     0.133 C 
HETATM   17  N6  UNL     1      20.403   5.386  48.776  1.00  0.00    -0.418 N 
HETATM   18  C16 UNL     1      19.755   4.729  47.785  1.00  0.00     0.140 C 
HETATM   19  H18 UNL     1      19.870   6.323  48.977  1.00  0.00     0.153 HD
HETATM   20  C17 UNL     1      19.935   3.190  47.906  1.00  0.00     0.186 C 
HETATM   21  O1  UNL     1      19.878   2.927  49.290  1.00  0.00    -0.388 OA
HETATM   22  C18 UNL     1      19.032   3.738  49.957  1.00  0.00     0.187 C 
HETATM   23  C19 UNL     1      19.759   3.996  51.300  1.00  0.00     0.144 C 
ENDBRANCH  13  14
ENDBRANCH  11  13
ENDBRANCH   8  11
BRANCH   1  24
HETATM   24  N1  UNL     1      24.064  -0.767  54.303  1.00  0.00    -0.350 N 
HETATM   25  H7  UNL     1      23.428  -0.176  53.723  1.00  0.00     0.166 HD
BRANCH  24  26
HETATM   26  C6  UNL     1      23.069  -1.260  55.144  1.00  0.00     0.090 C 
HETATM   27  C5  UNL     1      21.856  -0.893  54.814  1.00  0.00     0.017 C 
BRANCH  27  28
HETATM   28  C4  UNL     1      20.914  -0.168  53.939  1.00  0.00     0.002 C 
HETATM   29  C3  UNL     1      20.432   1.032  53.475  1.00  0.00     0.015 C 
BRANCH  29  30
HETATM   30  C2  UNL     1      19.426   0.598  52.579  1.00  0.00    -0.012 A 
HETATM   31  C1  UNL     1      20.080   0.220  51.453  1.00  0.00     0.124 A 
HETATM   32 BR1  UNL     1      18.260  -0.016  51.249  1.00  0.00    -0.128 Br
ENDBRANCH  29  30
ENDBRANCH  27  28
ENDBRANCH  24  26
ENDBRANCH   1  24
TORSDOF 7
ENDMDL
