MODEL 1
REMARK VINA RESULT:      -9.0      0.000      0.000
REMARK  4 active torsions:
REMARK  status: ('A' for Active; 'I' for Inactive)
REMARK    1  A    between atoms: C2_2  and  C3_3 
REMARK       I    between atoms: C3_3  and  N1_5 
REMARK    2  A    between atoms: N1_5  and  C4_6 
REMARK    3  A    between atoms: C12_16  and  N4_17 
REMARK    4  A    between atoms: N4_17  and  C13_18 
ROOT
HETATM    1  C4  UNL     1      20.525  -0.525  53.143  1.00  0.00     0.102 C 
HETATM    2  C5  UNL     1      21.752  -0.548  53.635  1.00  0.00    -0.019 A 
HETATM    3  C6  UNL     1      22.131  -1.343  54.799  1.00  0.00     0.027 A 
HETATM    4  C7  UNL     1      23.351  -1.350  55.269  1.00  0.00     0.007 A 
HETATM    5  C8  UNL     1      24.290  -0.647  54.723  1.00  0.00     0.080 A 
HETATM    6  N2  UNL     1      25.509  -0.708  55.261  1.00  0.00    -0.258 NA
HETATM    7  C9  UNL     1      26.566  -0.022  54.779  1.00  0.00     0.142 A 
HETATM    8  C10 UNL     1      26.314   0.765  53.674  1.00  0.00     0.089 A 
HETATM    9  C11 UNL     1      27.443   1.500  53.158  1.00  0.00     0.103 C 
HETATM   10  N3  UNL     1      28.366   2.100  52.739  1.00  0.00    -0.191 NA
HETATM   11  C12 UNL     1      25.073   0.871  53.069  1.00  0.00     0.067 A 
HETATM   12  C19 UNL     1      24.015   0.142  53.605  1.00  0.00     0.023 A 
HETATM   13  C20 UNL     1      22.818   0.241  53.026  1.00  0.00     0.029 A 
ENDROOT
BRANCH  11  14
HETATM   14  N4  UNL     1      24.864   1.681  51.949  1.00  0.00    -0.354 N 
HETATM   15  H10 UNL     1      24.994   1.004  51.198  1.00  0.00     0.166 HD
BRANCH  14  16
HETATM   16  C13 UNL     1      24.553   3.064  51.741  1.00  0.00     0.033 A 
HETATM   17  C14 UNL     1      23.747   3.677  52.682  1.00  0.00     0.029 A 
HETATM   18  C15 UNL     1      23.478   5.007  52.436  1.00  0.00     0.004 A 
HETATM   19  C16 UNL     1      23.976   5.687  51.327  1.00  0.00     0.019 A 
HETATM   20  C17 UNL     1      24.779   5.029  50.415  1.00  0.00     0.013 A 
HETATM   21 BR1  UNL     1      25.430   6.007  48.920  1.00  0.00    -0.051 Br
HETATM   22  C18 UNL     1      25.069   3.697  50.630  1.00  0.00     0.048 A 
ENDBRANCH  14  16
ENDBRANCH  11  14
BRANCH   1  23
HETATM   23  N1  UNL     1      19.463  -1.267  53.695  1.00  0.00    -0.336 N 
HETATM   24  C3  UNL     1      18.217  -1.402  53.059  1.00  0.00     0.221 C 
HETATM   25  O1  UNL     1      17.974  -0.860  51.945  1.00  0.00    -0.273 OA
HETATM   26  H6  UNL     1      19.487  -1.778  54.603  1.00  0.00     0.168 HD
BRANCH  24  27
HETATM   27  C2  UNL     1      17.061  -2.183  53.613  1.00  0.00     0.098 C 
HETATM   28  C1  UNL     1      17.349  -3.655  53.468  1.00  0.00     0.014 C 
ENDBRANCH  24  27
ENDBRANCH   1  23
TORSDOF 4
ENDMDL
MODEL 2
REMARK VINA RESULT:      -9.0      3.798      7.532
REMARK  4 active torsions:
REMARK  status: ('A' for Active; 'I' for Inactive)
REMARK    1  A    between atoms: C2_2  and  C3_3 
REMARK       I    between atoms: C3_3  and  N1_5 
REMARK    2  A    between atoms: N1_5  and  C4_6 
REMARK    3  A    between atoms: C12_16  and  N4_17 
REMARK    4  A    between atoms: N4_17  and  C13_18 
ROOT
HETATM    1  C4  UNL     1      24.904   4.039  49.982  1.00  0.00     0.102 C 
HETATM    2  C5  UNL     1      25.144   2.991  50.752  1.00  0.00    -0.019 A 
HETATM    3  C6  UNL     1      26.463   2.380  50.881  1.00  0.00     0.027 A 
HETATM    4  C7  UNL     1      26.677   1.344  51.649  1.00  0.00     0.007 A 
HETATM    5  C8  UNL     1      25.724   0.804  52.338  1.00  0.00     0.080 A 
HETATM    6  N2  UNL     1      26.022  -0.250  53.098  1.00  0.00    -0.258 NA
HETATM    7  C9  UNL     1      25.113  -0.894  53.859  1.00  0.00     0.142 A 
HETATM    8  C10 UNL     1      23.828  -0.394  53.809  1.00  0.00     0.089 A 
HETATM    9  C11 UNL     1      22.856  -1.082  54.622  1.00  0.00     0.103 C 
HETATM   10  N3  UNL     1      22.064  -1.647  55.286  1.00  0.00    -0.191 NA
HETATM   11  C12 UNL     1      23.455   0.696  53.042  1.00  0.00     0.067 A 
HETATM   12  C19 UNL     1      24.430   1.327  52.274  1.00  0.00     0.023 A 
HETATM   13  C20 UNL     1      24.075   2.376  51.533  1.00  0.00     0.029 A 
ENDROOT
BRANCH  11  14
HETATM   14  N4  UNL     1      22.140   1.170  53.022  1.00  0.00    -0.354 N 
HETATM   15  H10 UNL     1      22.199   1.921  53.710  1.00  0.00     0.166 HD
BRANCH  14  16
HETATM   16  C13 UNL     1      20.946   0.820  52.313  1.00  0.00     0.033 A 
HETATM   17  C14 UNL     1      20.852   1.233  50.997  1.00  0.00     0.029 A 
HETATM   18  C15 UNL     1      19.684   0.872  50.358  1.00  0.00     0.004 A 
HETATM   19  C16 UNL     1      18.673   0.147  50.985  1.00  0.00     0.019 A 
HETATM   20  C17 UNL     1      18.815  -0.243  52.302  1.00  0.00     0.013 A 
HETATM   21 BR1  UNL     1      17.403  -1.230  53.106  1.00  0.00    -0.051 Br
HETATM   22  C18 UNL     1      19.971   0.102  52.973  1.00  0.00     0.048 A 
ENDBRANCH  14  16
ENDBRANCH  11  14
BRANCH   1  23
HETATM   23  N1  UNL     1      25.900   4.667  49.210  1.00  0.00    -0.336 N 
HETATM   24  C3  UNL     1      26.214   6.032  49.335  1.00  0.00     0.221 C 
HETATM   25  O1  UNL     1      25.614   6.782  50.154  1.00  0.00    -0.273 OA
HETATM   26  H6  UNL     1      26.491   4.203  48.488  1.00  0.00     0.168 HD
BRANCH  24  27
HETATM   27  C2  UNL     1      27.266   6.739  48.532  1.00  0.00     0.098 C 
HETATM   28  C1  UNL     1      28.399   5.783  48.260  1.00  0.00     0.014 C 
ENDBRANCH  24  27
ENDBRANCH   1  23
TORSDOF 4
ENDMDL
MODEL 3
REMARK VINA RESULT:      -8.7      3.577      6.475
REMARK  4 active torsions:
REMARK  status: ('A' for Active; 'I' for Inactive)
REMARK    1  A    between atoms: C2_2  and  C3_3 
REMARK       I    between atoms: C3_3  and  N1_5 
REMARK    2  A    between atoms: N1_5  and  C4_6 
REMARK    3  A    between atoms: C12_16  and  N4_17 
REMARK    4  A    between atoms: N4_17  and  C13_18 
ROOT
HETATM    1  C4  UNL     1      26.559   0.527  52.194  1.00  0.00     0.102 C 
HETATM    2  C5  UNL     1      25.306   0.444  52.609  1.00  0.00    -0.019 A 
HETATM    3  C6  UNL     1      24.848  -0.551  53.574  1.00  0.00     0.027 A 
HETATM    4  C7  UNL     1      23.603  -0.615  53.969  1.00  0.00     0.007 A 
HETATM    5  C8  UNL     1      22.709   0.207  53.522  1.00  0.00     0.080 A 
HETATM    6  N2  UNL     1      21.461   0.077  53.974  1.00  0.00    -0.258 NA
HETATM    7  C9  UNL     1      20.446   0.874  53.581  1.00  0.00     0.142 A 
HETATM    8  C10 UNL     1      20.773   1.853  52.665  1.00  0.00     0.089 A 
HETATM    9  C11 UNL     1      19.689   2.705  52.245  1.00  0.00     0.103 C 
HETATM   10  N3  UNL     1      18.801   3.398  51.901  1.00  0.00    -0.191 NA
HETATM   11  C12 UNL     1      22.048   2.040  52.159  1.00  0.00     0.067 A 
HETATM   12  C19 UNL     1      23.061   1.191  52.596  1.00  0.00     0.023 A 
HETATM   13  C20 UNL     1      24.290   1.366  52.110  1.00  0.00     0.029 A 
ENDROOT
BRANCH  11  14
HETATM   14  N4  UNL     1      22.335   3.046  51.232  1.00  0.00    -0.354 N 
HETATM   15  H10 UNL     1      22.623   3.800  51.854  1.00  0.00     0.166 HD
BRANCH  14  16
HETATM   16  C13 UNL     1      22.290   3.153  49.804  1.00  0.00     0.033 A 
HETATM   17  C14 UNL     1      22.142   1.979  49.089  1.00  0.00     0.029 A 
HETATM   18  C15 UNL     1      22.105   2.136  47.719  1.00  0.00     0.004 A 
HETATM   19  C16 UNL     1      22.208   3.379  47.098  1.00  0.00     0.019 A 
HETATM   20  C17 UNL     1      22.353   4.523  47.857  1.00  0.00     0.013 A 
HETATM   21 BR1  UNL     1      22.489   6.191  46.956  1.00  0.00    -0.051 Br
HETATM   22  C18 UNL     1      22.395   4.403  49.232  1.00  0.00     0.048 A 
ENDBRANCH  14  16
ENDBRANCH  11  14
BRANCH   1  23
HETATM   23  N1  UNL     1      27.575  -0.338  52.645  1.00  0.00    -0.336 N 
HETATM   24  C3  UNL     1      28.739   0.121  53.284  1.00  0.00     0.221 C 
HETATM   25  O1  UNL     1      28.945   1.349  53.493  1.00  0.00    -0.273 OA
HETATM   26  H6  UNL     1      27.571  -1.377  52.556  1.00  0.00     0.168 HD
BRANCH  24  27
HETATM   27  C2  UNL     1      29.844  -0.767  53.778  1.00  0.00     0.098 C 
HETATM   28  C1  UNL     1      29.541  -2.190  53.387  1.00  0.00     0.014 C 
ENDBRANCH  24  27
ENDBRANCH   1  23
TORSDOF 4
ENDMDL
MODEL 4
REMARK VINA RESULT:      -8.6      3.798      7.451
REMARK  4 active torsions:
REMARK  status: ('A' for Active; 'I' for Inactive)
REMARK    1  A    between atoms: C2_2  and  C3_3 
REMARK       I    between atoms: C3_3  and  N1_5 
REMARK    2  A    between atoms: N1_5  and  C4_6 
REMARK    3  A    between atoms: C12_16  and  N4_17 
REMARK    4  A    between atoms: N4_17  and  C13_18 
ROOT
HETATM    1  C4  UNL     1      25.644  -0.506  52.815  1.00  0.00     0.102 C 
HETATM    2  C5  UNL     1      25.038   0.669  52.791  1.00  0.00    -0.019 A 
HETATM    3  C6  UNL     1      25.682   1.908  53.215  1.00  0.00     0.027 A 
HETATM    4  C7  UNL     1      25.064   3.060  53.183  1.00  0.00     0.007 A 
HETATM    5  C8  UNL     1      23.841   3.159  52.770  1.00  0.00     0.080 A 
HETATM    6  N2  UNL     1      23.281   4.369  52.767  1.00  0.00    -0.258 NA
HETATM    7  C9  UNL     1      22.015   4.596  52.358  1.00  0.00     0.142 A 
HETATM    8  C10 UNL     1      21.314   3.486  51.934  1.00  0.00     0.089 A 
HETATM    9  C11 UNL     1      19.961   3.727  51.497  1.00  0.00     0.103 C 
HETATM   10  N3  UNL     1      18.856   3.927  51.143  1.00  0.00    -0.191 NA
HETATM   11  C12 UNL     1      21.839   2.204  51.913  1.00  0.00     0.067 A 
HETATM   12  C19 UNL     1      23.150   2.023  52.345  1.00  0.00     0.023 A 
HETATM   13  C20 UNL     1      23.660   0.792  52.326  1.00  0.00     0.029 A 
ENDROOT
BRANCH  11  14
HETATM   14  N4  UNL     1      21.093   1.107  51.474  1.00  0.00    -0.354 N 
HETATM   15  H10 UNL     1      21.486   0.971  50.543  1.00  0.00     0.166 HD
BRANCH  14  16
HETATM   16  C13 UNL     1      20.052   0.299  52.035  1.00  0.00     0.033 A 
HETATM   17  C14 UNL     1      20.336  -0.364  53.215  1.00  0.00     0.029 A 
HETATM   18  C15 UNL     1      19.302  -1.129  53.714  1.00  0.00     0.004 A 
HETATM   19  C16 UNL     1      18.065  -1.230  53.082  1.00  0.00     0.019 A 
HETATM   20  C17 UNL     1      17.830  -0.548  51.904  1.00  0.00     0.013 A 
HETATM   21 BR1  UNL     1      16.123  -0.723  51.086  1.00  0.00    -0.051 Br
HETATM   22  C18 UNL     1      18.843   0.227  51.376  1.00  0.00     0.048 A 
ENDBRANCH  14  16
ENDBRANCH  11  14
BRANCH   1  23
HETATM   23  N1  UNL     1      26.971  -0.676  53.255  1.00  0.00    -0.336 N 
HETATM   24  C3  UNL     1      27.751  -1.793  52.909  1.00  0.00     0.221 C 
HETATM   25  O1  UNL     1      27.303  -2.720  52.179  1.00  0.00    -0.273 OA
HETATM   26  H6  UNL     1      27.499  -0.014  53.862  1.00  0.00     0.168 HD
BRANCH  24  27
HETATM   27  C2  UNL     1      29.167  -2.012  53.356  1.00  0.00     0.098 C 
HETATM   28  C1  UNL     1      29.786  -0.680  53.691  1.00  0.00     0.014 C 
ENDBRANCH  24  27
ENDBRANCH   1  23
TORSDOF 4
ENDMDL
MODEL 5
REMARK VINA RESULT:      -8.5      3.222      6.373
REMARK  4 active torsions:
REMARK  status: ('A' for Active; 'I' for Inactive)
REMARK    1  A    between atoms: C2_2  and  C3_3 
REMARK       I    between atoms: C3_3  and  N1_5 
REMARK    2  A    between atoms: N1_5  and  C4_6 
REMARK    3  A    between atoms: C12_16  and  N4_17 
REMARK    4  A    between atoms: N4_17  and  C13_18 
ROOT
HETATM    1  C4  UNL     1      26.221   1.333  53.209  1.00  0.00     0.102 C 
HETATM    2  C5  UNL     1      24.936   1.026  53.149  1.00  0.00    -0.019 A 
HETATM    3  C6  UNL     1      24.417  -0.302  53.462  1.00  0.00     0.027 A 
HETATM    4  C7  UNL     1      23.142  -0.584  53.395  1.00  0.00     0.007 A 
HETATM    5  C8  UNL     1      22.270   0.307  53.046  1.00  0.00     0.080 A 
HETATM    6  N2  UNL     1      20.988  -0.058  53.002  1.00  0.00    -0.258 NA
HETATM    7  C9  UNL     1      19.992   0.782  52.653  1.00  0.00     0.142 A 
HETATM    8  C10 UNL     1      20.377   2.068  52.336  1.00  0.00     0.089 A 
HETATM    9  C11 UNL     1      19.313   2.967  51.963  1.00  0.00     0.103 C 
HETATM   10  N3  UNL     1      18.442   3.698  51.656  1.00  0.00    -0.191 NA
HETATM   11  C12 UNL     1      21.689   2.509  52.362  1.00  0.00     0.067 A 
HETATM   12  C19 UNL     1      22.681   1.604  52.729  1.00  0.00     0.023 A 
HETATM   13  C20 UNL     1      23.946   2.023  52.756  1.00  0.00     0.029 A 
ENDROOT
BRANCH  11  14
HETATM   14  N4  UNL     1      22.034   3.823  52.033  1.00  0.00    -0.354 N 
HETATM   15  H10 UNL     1      21.723   4.315  52.871  1.00  0.00     0.166 HD
BRANCH  14  16
HETATM   16  C13 UNL     1      22.644   4.460  50.905  1.00  0.00     0.033 A 
HETATM   17  C14 UNL     1      22.213   4.067  49.651  1.00  0.00     0.029 A 
HETATM   18  C15 UNL     1      22.830   4.710  48.598  1.00  0.00     0.004 A 
HETATM   19  C16 UNL     1      23.813   5.681  48.778  1.00  0.00     0.019 A 
HETATM   20  C17 UNL     1      24.209   6.039  50.051  1.00  0.00     0.013 A 
HETATM   21 BR1  UNL     1      25.553   7.370  50.235  1.00  0.00    -0.051 Br
HETATM   22  C18 UNL     1      23.612   5.416  51.129  1.00  0.00     0.048 A 
ENDBRANCH  14  16
ENDBRANCH  11  14
BRANCH   1  23
HETATM   23  N1  UNL     1      27.214   0.407  53.581  1.00  0.00    -0.336 N 
HETATM   24  C3  UNL     1      28.589   0.685  53.488  1.00  0.00     0.221 C 
HETATM   25  O1  UNL     1      29.018   1.792  53.059  1.00  0.00    -0.273 OA
HETATM   26  H6  UNL     1      27.042  -0.551  53.954  1.00  0.00     0.168 HD
BRANCH  24  27
HETATM   27  C2  UNL     1      29.678  -0.273  53.874  1.00  0.00     0.098 C 
HETATM   28  C1  UNL     1      29.323  -1.648  53.370  1.00  0.00     0.014 C 
ENDBRANCH  24  27
ENDBRANCH   1  23
TORSDOF 4
ENDMDL
MODEL 6
REMARK VINA RESULT:      -8.4      3.735      7.389
REMARK  4 active torsions:
REMARK  status: ('A' for Active; 'I' for Inactive)
REMARK    1  A    between atoms: C2_2  and  C3_3 
REMARK       I    between atoms: C3_3  and  N1_5 
REMARK    2  A    between atoms: N1_5  and  C4_6 
REMARK    3  A    between atoms: C12_16  and  N4_17 
REMARK    4  A    between atoms: N4_17  and  C13_18 
ROOT
HETATM    1  C4  UNL     1      25.935   0.156  53.156  1.00  0.00     0.102 C 
HETATM    2  C5  UNL     1      25.552   1.105  52.319  1.00  0.00    -0.019 A 
HETATM    3  C6  UNL     1      26.430   1.675  51.302  1.00  0.00     0.027 A 
HETATM    4  C7  UNL     1      26.029   2.614  50.485  1.00  0.00     0.007 A 
HETATM    5  C8  UNL     1      24.826   3.088  50.537  1.00  0.00     0.080 A 
HETATM    6  N2  UNL     1      24.494   4.044  49.669  1.00  0.00    -0.258 NA
HETATM    7  C9  UNL     1      23.271   4.614  49.628  1.00  0.00     0.142 A 
HETATM    8  C10 UNL     1      22.361   4.144  50.552  1.00  0.00     0.089 A 
HETATM    9  C11 UNL     1      21.054   4.752  50.510  1.00  0.00     0.103 C 
HETATM   10  N3  UNL     1      19.988   5.251  50.474  1.00  0.00    -0.191 NA
HETATM   11  C12 UNL     1      22.643   3.154  51.479  1.00  0.00     0.067 A 
HETATM   12  C19 UNL     1      23.920   2.599  51.480  1.00  0.00     0.023 A 
HETATM   13  C20 UNL     1      24.197   1.646  52.370  1.00  0.00     0.029 A 
ENDROOT
BRANCH  11  14
HETATM   14  N4  UNL     1      21.689   2.708  52.398  1.00  0.00    -0.354 N 
HETATM   15  H10 UNL     1      21.803   3.400  53.139  1.00  0.00     0.166 HD
BRANCH  14  16
HETATM   16  C13 UNL     1      20.753   1.626  52.444  1.00  0.00     0.033 A 
HETATM   17  C14 UNL     1      20.874   0.732  53.491  1.00  0.00     0.029 A 
HETATM   18  C15 UNL     1      19.949  -0.291  53.491  1.00  0.00     0.004 A 
HETATM   19  C16 UNL     1      18.965  -0.419  52.512  1.00  0.00     0.019 A 
HETATM   20  C17 UNL     1      18.885   0.501  51.486  1.00  0.00     0.013 A 
HETATM   21 BR1  UNL     1      17.523   0.276  50.179  1.00  0.00    -0.051 Br
HETATM   22  C18 UNL     1      19.795   1.538  51.455  1.00  0.00     0.048 A 
ENDBRANCH  14  16
ENDBRANCH  11  14
BRANCH   1  23
HETATM   23  N1  UNL     1      27.230  -0.397  53.147  1.00  0.00    -0.336 N 
HETATM   24  C3  UNL     1      28.242   0.017  54.030  1.00  0.00     0.221 C 
HETATM   25  O1  UNL     1      28.048   0.920  54.891  1.00  0.00    -0.273 OA
HETATM   26  H6  UNL     1      27.565  -1.149  52.507  1.00  0.00     0.168 HD
BRANCH  24  27
HETATM   27  C2  UNL     1      29.633  -0.546  54.053  1.00  0.00     0.098 C 
HETATM   28  C1  UNL     1      29.629  -1.889  53.371  1.00  0.00     0.014 C 
ENDBRANCH  24  27
ENDBRANCH   1  23
TORSDOF 4
ENDMDL
MODEL 7
REMARK VINA RESULT:      -8.4      3.649      7.818
REMARK  4 active torsions:
REMARK  status: ('A' for Active; 'I' for Inactive)
REMARK    1  A    between atoms: C2_2  and  C3_3 
REMARK       I    between atoms: C3_3  and  N1_5 
REMARK    2  A    between atoms: N1_5  and  C4_6 
REMARK    3  A    between atoms: C12_16  and  N4_17 
REMARK    4  A    between atoms: N4_17  and  C13_18 
ROOT
HETATM    1  C4  UNL     1      25.581   4.311  49.865  1.00  0.00     0.102 C 
HETATM    2  C5  UNL     1      24.559   3.485  50.016  1.00  0.00    -0.019 A 
HETATM    3  C6  UNL     1      23.443   3.416  49.078  1.00  0.00     0.027 A 
HETATM    4  C7  UNL     1      22.443   2.591  49.248  1.00  0.00     0.007 A 
HETATM    5  C8  UNL     1      22.392   1.790  50.263  1.00  0.00     0.080 A 
HETATM    6  N2  UNL     1      21.338   0.978  50.365  1.00  0.00    -0.258 NA
HETATM    7  C9  UNL     1      21.176   0.101  51.377  1.00  0.00     0.142 A 
HETATM    8  C10 UNL     1      22.181   0.086  52.323  1.00  0.00     0.089 A 
HETATM    9  C11 UNL     1      22.009  -0.852  53.405  1.00  0.00     0.103 C 
HETATM   10  N3  UNL     1      21.864  -1.617  54.288  1.00  0.00    -0.191 NA
HETATM   11  C12 UNL     1      23.299   0.901  52.273  1.00  0.00     0.067 A 
HETATM   12  C19 UNL     1      23.419   1.790  51.208  1.00  0.00     0.023 A 
HETATM   13  C20 UNL     1      24.493   2.577  51.157  1.00  0.00     0.029 A 
ENDROOT
BRANCH  11  14
HETATM   14  N4  UNL     1      24.293   0.852  53.255  1.00  0.00    -0.354 N 
HETATM   15  H10 UNL     1      23.806   1.284  54.039  1.00  0.00     0.166 HD
BRANCH  14  16
HETATM   16  C13 UNL     1      25.642   0.374  53.309  1.00  0.00     0.033 A 
HETATM   17  C14 UNL     1      25.871  -0.917  52.872  1.00  0.00     0.029 A 
HETATM   18  C15 UNL     1      27.186  -1.330  52.945  1.00  0.00     0.004 A 
HETATM   19  C16 UNL     1      28.208  -0.513  53.422  1.00  0.00     0.019 A 
HETATM   20  C17 UNL     1      27.928   0.771  53.847  1.00  0.00     0.013 A 
HETATM   21 BR1  UNL     1      29.363   1.841  54.487  1.00  0.00    -0.051 Br
HETATM   22  C18 UNL     1      26.623   1.217  53.788  1.00  0.00     0.048 A 
ENDBRANCH  14  16
ENDBRANCH  11  14
BRANCH   1  23
HETATM   23  N1  UNL     1      25.691   5.206  48.783  1.00  0.00    -0.336 N 
HETATM   24  C3  UNL     1      25.921   6.582  48.952  1.00  0.00     0.221 C 
HETATM   25  O1  UNL     1      26.043   7.102  50.096  1.00  0.00    -0.273 OA
HETATM   26  H6  UNL     1      25.616   4.951  47.775  1.00  0.00     0.168 HD
BRANCH  24  27
HETATM   27  C2  UNL     1      26.044   7.568  47.827  1.00  0.00     0.098 C 
HETATM   28  C1  UNL     1      27.499   7.725  47.471  1.00  0.00     0.014 C 
ENDBRANCH  24  27
ENDBRANCH   1  23
TORSDOF 4
ENDMDL
MODEL 8
REMARK VINA RESULT:      -8.2      3.660      7.454
REMARK  4 active torsions:
REMARK  status: ('A' for Active; 'I' for Inactive)
REMARK    1  A    between atoms: C2_2  and  C3_3 
REMARK       I    between atoms: C3_3  and  N1_5 
REMARK    2  A    between atoms: N1_5  and  C4_6 
REMARK    3  A    between atoms: C12_16  and  N4_17 
REMARK    4  A    between atoms: N4_17  and  C13_18 
ROOT
HETATM    1  C4  UNL     1      26.215   0.886  53.013  1.00  0.00     0.102 C 
HETATM    2  C5  UNL     1      25.790   1.740  52.097  1.00  0.00    -0.019 A 
HETATM    3  C6  UNL     1      26.640   2.250  51.026  1.00  0.00     0.027 A 
HETATM    4  C7  UNL     1      26.199   3.095  50.130  1.00  0.00     0.007 A 
HETATM    5  C8  UNL     1      24.978   3.524  50.149  1.00  0.00     0.080 A 
HETATM    6  N2  UNL     1      24.604   4.384  49.201  1.00  0.00    -0.258 NA
HETATM    7  C9  UNL     1      23.359   4.898  49.119  1.00  0.00     0.142 A 
HETATM    8  C10 UNL     1      22.473   4.479  50.089  1.00  0.00     0.089 A 
HETATM    9  C11 UNL     1      21.142   5.028  50.002  1.00  0.00     0.103 C 
HETATM   10  N3  UNL     1      20.057   5.480  49.930  1.00  0.00    -0.191 NA
HETATM   11  C12 UNL     1      22.799   3.589  51.099  1.00  0.00     0.067 A 
HETATM   12  C19 UNL     1      24.096   3.086  51.140  1.00  0.00     0.023 A 
HETATM   13  C20 UNL     1      24.415   2.229  52.110  1.00  0.00     0.029 A 
ENDROOT
BRANCH  11  14
HETATM   14  N4  UNL     1      21.867   3.191  52.062  1.00  0.00    -0.354 N 
HETATM   15  H10 UNL     1      21.913   3.980  52.706  1.00  0.00     0.166 HD
BRANCH  14  16
HETATM   16  C13 UNL     1      21.019   2.051  52.244  1.00  0.00     0.033 A 
HETATM   17  C14 UNL     1      19.801   2.062  51.589  1.00  0.00     0.029 A 
HETATM   18  C15 UNL     1      19.021   0.943  51.796  1.00  0.00     0.004 A 
HETATM   19  C16 UNL     1      19.424  -0.119  52.601  1.00  0.00     0.019 A 
HETATM   20  C17 UNL     1      20.652  -0.083  53.233  1.00  0.00     0.013 A 
HETATM   21 BR1  UNL     1      21.149  -1.562  54.320  1.00  0.00    -0.051 Br
HETATM   22  C18 UNL     1      21.458   1.022  53.049  1.00  0.00     0.048 A 
ENDBRANCH  14  16
ENDBRANCH  11  14
BRANCH   1  23
HETATM   23  N1  UNL     1      27.531   0.386  53.044  1.00  0.00    -0.336 N 
HETATM   24  C3  UNL     1      27.823  -0.984  53.164  1.00  0.00     0.221 C 
HETATM   25  O1  UNL     1      26.913  -1.854  53.253  1.00  0.00    -0.273 OA
HETATM   26  H6  UNL     1      28.400   0.958  52.982  1.00  0.00     0.168 HD
BRANCH  24  27
HETATM   27  C2  UNL     1      29.209  -1.558  53.200  1.00  0.00     0.098 C 
HETATM   28  C1  UNL     1      30.180  -0.469  53.577  1.00  0.00     0.014 C 
ENDBRANCH  24  27
ENDBRANCH   1  23
TORSDOF 4
ENDMDL
MODEL 9
REMARK VINA RESULT:      -8.2      1.749      2.297
REMARK  4 active torsions:
REMARK  status: ('A' for Active; 'I' for Inactive)
REMARK    1  A    between atoms: C2_2  and  C3_3 
REMARK       I    between atoms: C3_3  and  N1_5 
REMARK    2  A    between atoms: N1_5  and  C4_6 
REMARK    3  A    between atoms: C12_16  and  N4_17 
REMARK    4  A    between atoms: N4_17  and  C13_18 
ROOT
HETATM    1  C4  UNL     1      20.282   1.858  52.045  1.00  0.00     0.102 C 
HETATM    2  C5  UNL     1      21.356   1.272  52.548  1.00  0.00    -0.019 A 
HETATM    3  C6  UNL     1      21.340  -0.072  53.116  1.00  0.00     0.027 A 
HETATM    4  C7  UNL     1      22.415  -0.632  53.608  1.00  0.00     0.007 A 
HETATM    5  C8  UNL     1      23.553  -0.017  53.617  1.00  0.00     0.080 A 
HETATM    6  N2  UNL     1      24.603  -0.655  54.137  1.00  0.00    -0.258 NA
HETATM    7  C9  UNL     1      25.839  -0.116  54.200  1.00  0.00     0.142 A 
HETATM    8  C10 UNL     1      25.963   1.159  53.687  1.00  0.00     0.089 A 
HETATM    9  C11 UNL     1      27.283   1.736  53.755  1.00  0.00     0.103 C 
HETATM   10  N3  UNL     1      28.361   2.205  53.813  1.00  0.00    -0.191 NA
HETATM   11  C12 UNL     1      24.914   1.874  53.134  1.00  0.00     0.067 A 
HETATM   12  C19 UNL     1      23.658   1.274  53.092  1.00  0.00     0.023 A 
HETATM   13  C20 UNL     1      22.645   1.957  52.562  1.00  0.00     0.029 A 
ENDROOT
BRANCH  11  14
HETATM   14  N4  UNL     1      25.085   3.164  52.626  1.00  0.00    -0.354 N 
HETATM   15  H10 UNL     1      24.939   3.720  53.468  1.00  0.00     0.166 HD
BRANCH  14  16
HETATM   16  C13 UNL     1      25.380   3.717  51.338  1.00  0.00     0.033 A 
HETATM   17  C14 UNL     1      26.490   3.221  50.679  1.00  0.00     0.029 A 
HETATM   18  C15 UNL     1      26.731   3.785  49.444  1.00  0.00     0.004 A 
HETATM   19  C16 UNL     1      25.922   4.778  48.896  1.00  0.00     0.019 A 
HETATM   20  C17 UNL     1      24.823   5.240  49.594  1.00  0.00     0.013 A 
HETATM   21 BR1  UNL     1      23.755   6.596  48.798  1.00  0.00    -0.051 Br
HETATM   22  C18 UNL     1      24.552   4.698  50.834  1.00  0.00     0.048 A 
ENDBRANCH  14  16
ENDBRANCH  11  14
BRANCH   1  23
HETATM   23  N1  UNL     1      19.017   1.239  52.008  1.00  0.00    -0.336 N 
HETATM   24  C3  UNL     1      18.457   0.719  50.829  1.00  0.00     0.221 C 
HETATM   25  O1  UNL     1      19.060   0.778  49.722  1.00  0.00    -0.273 OA
HETATM   26  H6  UNL     1      18.384   1.105  52.825  1.00  0.00     0.168 HD
BRANCH  24  27
HETATM   27  C2  UNL     1      17.114   0.054  50.748  1.00  0.00     0.098 C 
HETATM   28  C1  UNL     1      16.975  -0.911  51.897  1.00  0.00     0.014 C 
ENDBRANCH  24  27
ENDBRANCH   1  23
TORSDOF 4
ENDMDL
