MODEL 1
REMARK VINA RESULT:      -8.2      0.000      0.000
REMARK  3 active torsions:
REMARK  status: ('A' for Active; 'I' for Inactive)
REMARK       I    between atoms: C2_2  and  N1_4 
REMARK    1  A    between atoms: N1_4  and  C3_5 
REMARK    2  A    between atoms: C8_12  and  N4_13 
REMARK    3  A    between atoms: N4_13  and  C9_14 
ROOT
HETATM    1  C3  UNL     1      22.994   1.360  51.507  1.00  0.00     0.035 A 
HETATM    2  C4  UNL     1      21.820   1.228  52.221  1.00  0.00     0.032 A 
HETATM    3  C5  UNL     1      21.856   0.498  53.411  1.00  0.00     0.035 A 
HETATM    4  C6  UNL     1      23.039  -0.065  53.839  1.00  0.00     0.072 A 
HETATM    5  N2  UNL     1      23.086  -0.778  54.996  1.00  0.00    -0.241 NA
HETATM    6  C7  UNL     1      24.282  -1.315  55.374  1.00  0.00     0.236 A 
HETATM    7  N3  UNL     1      25.436  -1.178  54.657  1.00  0.00    -0.224 NA
HETATM    8  C8  UNL     1      25.433  -0.479  53.506  1.00  0.00     0.142 A 
HETATM    9  C15 UNL     1      24.218   0.060  53.132  1.00  0.00     0.041 A 
HETATM   10  C16 UNL     1      24.164   0.785  51.959  1.00  0.00     0.047 A 
ENDROOT
BRANCH   8  11
HETATM   11  N4  UNL     1      26.629  -0.353  52.793  1.00  0.00    -0.341 N 
HETATM   12  H8  UNL     1      26.949  -0.837  51.956  1.00  0.00     0.167 HD
BRANCH  11  13
HETATM   13  C9  UNL     1      27.588   0.582  53.272  1.00  0.00     0.054 A 
HETATM   14  C10 UNL     1      27.628   1.873  52.975  1.00  0.00     0.028 A 
HETATM   15  C11 UNL     1      28.748   2.536  53.644  1.00  0.00     0.002 A 
HETATM   16  C12 UNL     1      29.388   1.624  54.353  1.00  0.00     0.022 A 
HETATM   17  C13 UNL     1      28.732   0.314  54.196  1.00  0.00     0.160 A 
HETATM   18  C14 UNL     1      29.743  -0.620  53.564  1.00  0.00     0.063 C 
HETATM   19  F1  UNL     1      28.351  -0.147  55.419  1.00  0.00    -0.232 F 
ENDBRANCH  11  13
ENDBRANCH   8  11
BRANCH   1  20
HETATM   20  N1  UNL     1      22.842   2.120  50.316  1.00  0.00    -0.327 N 
HETATM   21  C2  UNL     1      23.247   3.504  50.325  1.00  0.00     0.218 C 
HETATM   22  C1  UNL     1      23.068   4.250  49.066  1.00  0.00     0.117 C 
HETATM   23  O1  UNL     1      23.732   4.092  51.326  1.00  0.00    -0.274 OA
HETATM   24  H4  UNL     1      22.443   1.698  49.437  1.00  0.00     0.169 HD
ENDBRANCH   1  20
TORSDOF 3
ENDMDL
MODEL 2
REMARK VINA RESULT:      -8.0      2.223      5.250
REMARK  3 active torsions:
REMARK  status: ('A' for Active; 'I' for Inactive)
REMARK       I    between atoms: C2_2  and  N1_4 
REMARK    1  A    between atoms: N1_4  and  C3_5 
REMARK    2  A    between atoms: C8_12  and  N4_13 
REMARK    3  A    between atoms: N4_13  and  C9_14 
ROOT
HETATM    1  C3  UNL     1      25.019  -0.733  54.187  1.00  0.00     0.035 A 
HETATM    2  C4  UNL     1      24.445  -1.326  55.293  1.00  0.00     0.032 A 
HETATM    3  C5  UNL     1      23.055  -1.271  55.418  1.00  0.00     0.035 A 
HETATM    4  C6  UNL     1      22.301  -0.638  54.454  1.00  0.00     0.072 A 
HETATM    5  N2  UNL     1      20.946  -0.579  54.566  1.00  0.00    -0.241 NA
HETATM    6  C7  UNL     1      20.247   0.060  53.584  1.00  0.00     0.236 A 
HETATM    7  N3  UNL     1      20.827   0.644  52.495  1.00  0.00    -0.224 NA
HETATM    8  C8  UNL     1      22.165   0.607  52.346  1.00  0.00     0.142 A 
HETATM    9  C15 UNL     1      22.865  -0.042  53.345  1.00  0.00     0.041 A 
HETATM   10  C16 UNL     1      24.238  -0.106  53.237  1.00  0.00     0.047 A 
ENDROOT
BRANCH   8  11
HETATM   11  N4  UNL     1      22.733   1.212  51.220  1.00  0.00    -0.341 N 
HETATM   12  H8  UNL     1      23.050   0.802  50.344  1.00  0.00     0.167 HD
BRANCH  11  13
HETATM   13  C9  UNL     1      22.921   2.621  51.253  1.00  0.00     0.054 A 
HETATM   14  C10 UNL     1      22.109   3.525  50.723  1.00  0.00     0.028 A 
HETATM   15  C11 UNL     1      22.611   4.882  50.944  1.00  0.00     0.002 A 
HETATM   16  C12 UNL     1      23.742   4.786  51.618  1.00  0.00     0.022 A 
HETATM   17  C13 UNL     1      24.053   3.370  51.881  1.00  0.00     0.160 A 
HETATM   18  C14 UNL     1      25.365   3.063  51.190  1.00  0.00     0.063 C 
HETATM   19  F1  UNL     1      24.159   3.175  53.224  1.00  0.00    -0.232 F 
ENDBRANCH  11  13
ENDBRANCH   8  11
BRANCH   1  20
HETATM   20  N1  UNL     1      26.435  -0.849  54.161  1.00  0.00    -0.327 N 
HETATM   21  C2  UNL     1      27.227   0.288  54.562  1.00  0.00     0.218 C 
HETATM   22  C1  UNL     1      28.691   0.117  54.517  1.00  0.00     0.117 C 
HETATM   23  O1  UNL     1      26.747   1.388  54.936  1.00  0.00    -0.274 OA
HETATM   24  H4  UNL     1      26.912  -1.739  53.859  1.00  0.00     0.169 HD
ENDBRANCH   1  20
TORSDOF 3
ENDMDL
MODEL 3
REMARK VINA RESULT:      -7.9      2.247      4.157
REMARK  3 active torsions:
REMARK  status: ('A' for Active; 'I' for Inactive)
REMARK       I    between atoms: C2_2  and  N1_4 
REMARK    1  A    between atoms: N1_4  and  C3_5 
REMARK    2  A    between atoms: C8_12  and  N4_13 
REMARK    3  A    between atoms: N4_13  and  C9_14 
ROOT
HETATM    1  C3  UNL     1      22.789   1.459  52.402  1.00  0.00     0.035 A 
HETATM    2  C4  UNL     1      22.223   1.706  51.168  1.00  0.00     0.032 A 
HETATM    3  C5  UNL     1      23.034   2.263  50.176  1.00  0.00     0.035 A 
HETATM    4  C6  UNL     1      24.355   2.548  50.445  1.00  0.00     0.072 A 
HETATM    5  N2  UNL     1      25.153   3.091  49.487  1.00  0.00    -0.241 NA
HETATM    6  C7  UNL     1      26.453   3.355  49.805  1.00  0.00     0.236 A 
HETATM    7  N3  UNL     1      27.001   3.105  51.031  1.00  0.00    -0.224 NA
HETATM    8  C8  UNL     1      26.244   2.568  52.008  1.00  0.00     0.142 A 
HETATM    9  C15 UNL     1      24.930   2.306  51.676  1.00  0.00     0.041 A 
HETATM   10  C16 UNL     1      24.115   1.755  52.643  1.00  0.00     0.047 A 
ENDROOT
BRANCH   8  11
HETATM   11  N4  UNL     1      26.831   2.323  53.253  1.00  0.00    -0.341 N 
HETATM   12  H8  UNL     1      26.732   2.820  54.136  1.00  0.00     0.167 HD
BRANCH  11  13
HETATM   13  C9  UNL     1      27.718   1.216  53.357  1.00  0.00     0.054 A 
HETATM   14  C10 UNL     1      29.036   1.285  53.479  1.00  0.00     0.028 A 
HETATM   15  C11 UNL     1      29.632  -0.049  53.559  1.00  0.00     0.002 A 
HETATM   16  C12 UNL     1      28.652  -0.930  53.484  1.00  0.00     0.022 A 
HETATM   17  C13 UNL     1      27.359  -0.236  53.351  1.00  0.00     0.160 A 
HETATM   18  C14 UNL     1      26.763  -0.650  52.022  1.00  0.00     0.063 C 
HETATM   19  F1  UNL     1      26.545  -0.602  54.378  1.00  0.00    -0.232 F 
ENDBRANCH  11  13
ENDBRANCH   8  11
BRANCH   1  20
HETATM   20  N1  UNL     1      21.877   0.893  53.333  1.00  0.00    -0.327 N 
HETATM   21  C2  UNL     1      21.941  -0.525  53.587  1.00  0.00     0.218 C 
HETATM   22  C1  UNL     1      20.972  -1.063  54.560  1.00  0.00     0.117 C 
HETATM   23  O1  UNL     1      22.759  -1.305  53.036  1.00  0.00    -0.274 OA
HETATM   24  H4  UNL     1      21.162   1.483  53.835  1.00  0.00     0.169 HD
ENDBRANCH   1  20
TORSDOF 3
ENDMDL
MODEL 4
REMARK VINA RESULT:      -7.4      1.582      2.122
REMARK  3 active torsions:
REMARK  status: ('A' for Active; 'I' for Inactive)
REMARK       I    between atoms: C2_2  and  N1_4 
REMARK    1  A    between atoms: N1_4  and  C3_5 
REMARK    2  A    between atoms: C8_12  and  N4_13 
REMARK    3  A    between atoms: N4_13  and  C9_14 
ROOT
HETATM    1  C3  UNL     1      21.670   1.908  51.963  1.00  0.00     0.035 A 
HETATM    2  C4  UNL     1      20.553   1.540  52.687  1.00  0.00     0.032 A 
HETATM    3  C5  UNL     1      20.719   0.617  53.722  1.00  0.00     0.035 A 
HETATM    4  C6  UNL     1      21.969   0.104  53.994  1.00  0.00     0.072 A 
HETATM    5  N2  UNL     1      22.142  -0.795  55.000  1.00  0.00    -0.241 NA
HETATM    6  C7  UNL     1      23.400  -1.272  55.228  1.00  0.00     0.236 A 
HETATM    7  N3  UNL     1      24.496  -0.900  54.504  1.00  0.00    -0.224 NA
HETATM    8  C8  UNL     1      24.368  -0.012  53.499  1.00  0.00     0.142 A 
HETATM    9  C15 UNL     1      23.091   0.465  53.277  1.00  0.00     0.041 A 
HETATM   10  C16 UNL     1      22.909   1.378  52.258  1.00  0.00     0.047 A 
ENDROOT
BRANCH   8  11
HETATM   11  N4  UNL     1      25.507   0.353  52.776  1.00  0.00    -0.341 N 
HETATM   12  H8  UNL     1      25.665   1.141  52.150  1.00  0.00     0.167 HD
BRANCH  11  13
HETATM   13  C9  UNL     1      26.656  -0.477  52.894  1.00  0.00     0.054 A 
HETATM   14  C10 UNL     1      26.747  -1.739  52.499  1.00  0.00     0.028 A 
HETATM   15  C11 UNL     1      28.075  -2.287  52.775  1.00  0.00     0.002 A 
HETATM   16  C12 UNL     1      28.790  -1.335  53.345  1.00  0.00     0.022 A 
HETATM   17  C13 UNL     1      27.983  -0.110  53.478  1.00  0.00     0.160 A 
HETATM   18  C14 UNL     1      27.868   0.192  54.958  1.00  0.00     0.063 C 
HETATM   19  F1  UNL     1      28.604   0.910  52.826  1.00  0.00    -0.232 F 
ENDBRANCH  11  13
ENDBRANCH   8  11
BRANCH   1  20
HETATM   20  N1  UNL     1      21.386   2.849  50.937  1.00  0.00    -0.327 N 
HETATM   21  C2  UNL     1      21.571   4.252  51.217  1.00  0.00     0.218 C 
HETATM   22  C1  UNL     1      21.261   5.188  50.120  1.00  0.00     0.117 C 
HETATM   23  O1  UNL     1      21.970   4.706  52.320  1.00  0.00    -0.274 OA
HETATM   24  H4  UNL     1      21.047   2.546  49.986  1.00  0.00     0.169 HD
ENDBRANCH   1  20
TORSDOF 3
ENDMDL
MODEL 5
REMARK VINA RESULT:      -7.4      3.244      6.167
REMARK  3 active torsions:
REMARK  status: ('A' for Active; 'I' for Inactive)
REMARK       I    between atoms: C2_2  and  N1_4 
REMARK    1  A    between atoms: N1_4  and  C3_5 
REMARK    2  A    between atoms: C8_12  and  N4_13 
REMARK    3  A    between atoms: N4_13  and  C9_14 
ROOT
HETATM    1  C3  UNL     1      25.231   0.767  52.949  1.00  0.00     0.035 A 
HETATM    2  C4  UNL     1      24.313  -0.257  53.071  1.00  0.00     0.032 A 
HETATM    3  C5  UNL     1      22.958   0.062  52.952  1.00  0.00     0.035 A 
HETATM    4  C6  UNL     1      22.574   1.365  52.720  1.00  0.00     0.072 A 
HETATM    5  N2  UNL     1      21.258   1.686  52.604  1.00  0.00    -0.241 NA
HETATM    6  C7  UNL     1      20.931   2.991  52.374  1.00  0.00     0.236 A 
HETATM    7  N3  UNL     1      21.850   3.994  52.255  1.00  0.00    -0.224 NA
HETATM    8  C8  UNL     1      23.164   3.718  52.364  1.00  0.00     0.142 A 
HETATM    9  C15 UNL     1      23.484   2.395  52.597  1.00  0.00     0.041 A 
HETATM   10  C16 UNL     1      24.818   2.063  52.716  1.00  0.00     0.047 A 
ENDROOT
BRANCH   8  11
HETATM   11  N4  UNL     1      24.083   4.765  52.237  1.00  0.00    -0.341 N 
HETATM   12  H8  UNL     1      24.589   5.284  52.951  1.00  0.00     0.167 HD
BRANCH  11  13
HETATM   13  C9  UNL     1      24.392   5.215  50.924  1.00  0.00     0.054 A 
HETATM   14  C10 UNL     1      25.359   4.745  50.150  1.00  0.00     0.028 A 
HETATM   15  C11 UNL     1      25.393   5.440  48.863  1.00  0.00     0.002 A 
HETATM   16  C12 UNL     1      24.428   6.341  48.869  1.00  0.00     0.022 A 
HETATM   17  C13 UNL     1      23.704   6.295  50.151  1.00  0.00     0.160 A 
HETATM   18  C14 UNL     1      23.882   7.645  50.815  1.00  0.00     0.063 C 
HETATM   19  F1  UNL     1      22.387   6.045  49.916  1.00  0.00    -0.232 F 
ENDBRANCH  11  13
ENDBRANCH   8  11
BRANCH   1  20
HETATM   20  N1  UNL     1      26.576   0.330  53.086  1.00  0.00    -0.327 N 
HETATM   21  C2  UNL     1      27.205   0.428  54.380  1.00  0.00     0.218 C 
HETATM   22  C1  UNL     1      28.602  -0.037  54.469  1.00  0.00     0.117 C 
HETATM   23  O1  UNL     1      26.638   0.879  55.409  1.00  0.00    -0.274 OA
HETATM   24  H4  UNL     1      27.118  -0.059  52.269  1.00  0.00     0.169 HD
ENDBRANCH   1  20
TORSDOF 3
ENDMDL
MODEL 6
REMARK VINA RESULT:      -7.3      3.073      6.328
REMARK  3 active torsions:
REMARK  status: ('A' for Active; 'I' for Inactive)
REMARK       I    between atoms: C2_2  and  N1_4 
REMARK    1  A    between atoms: N1_4  and  C3_5 
REMARK    2  A    between atoms: C8_12  and  N4_13 
REMARK    3  A    between atoms: N4_13  and  C9_14 
ROOT
HETATM    1  C3  UNL     1      25.642  -0.159  54.426  1.00  0.00     0.035 A 
HETATM    2  C4  UNL     1      25.392  -0.909  55.557  1.00  0.00     0.032 A 
HETATM    3  C5  UNL     1      24.090  -1.374  55.759  1.00  0.00     0.035 A 
HETATM    4  C6  UNL     1      23.103  -1.079  54.844  1.00  0.00     0.072 A 
HETATM    5  N2  UNL     1      21.832  -1.526  55.032  1.00  0.00    -0.241 NA
HETATM    6  C7  UNL     1      20.893  -1.206  54.095  1.00  0.00     0.236 A 
HETATM    7  N3  UNL     1      21.154  -0.462  52.981  1.00  0.00    -0.224 NA
HETATM    8  C8  UNL     1      22.400  -0.000  52.758  1.00  0.00     0.142 A 
HETATM    9  C15 UNL     1      23.343  -0.329  53.711  1.00  0.00     0.041 A 
HETATM   10  C16 UNL     1      24.634   0.121  53.526  1.00  0.00     0.047 A 
ENDROOT
BRANCH   8  11
HETATM   11  N4  UNL     1      22.639   0.758  51.608  1.00  0.00    -0.341 N 
HETATM   12  H8  UNL     1      23.326   0.630  50.867  1.00  0.00     0.167 HD
BRANCH  11  13
HETATM   13  C9  UNL     1      21.823   1.903  51.391  1.00  0.00     0.054 A 
HETATM   14  C10 UNL     1      21.647   2.903  52.243  1.00  0.00     0.028 A 
HETATM   15  C11 UNL     1      20.741   3.913  51.694  1.00  0.00     0.002 A 
HETATM   16  C12 UNL     1      20.370   3.508  50.493  1.00  0.00     0.022 A 
HETATM   17  C13 UNL     1      21.004   2.216  50.179  1.00  0.00     0.160 A 
HETATM   18  C14 UNL     1      19.893   1.205  49.990  1.00  0.00     0.063 C 
HETATM   19  F1  UNL     1      21.740   2.341  49.041  1.00  0.00    -0.232 F 
ENDBRANCH  11  13
ENDBRANCH   8  11
BRANCH   1  20
HETATM   20  N1  UNL     1      26.996   0.260  54.321  1.00  0.00    -0.327 N 
HETATM   21  C2  UNL     1      27.947  -0.629  53.700  1.00  0.00     0.218 C 
HETATM   22  C1  UNL     1      29.339  -0.148  53.617  1.00  0.00     0.117 C 
HETATM   23  O1  UNL     1      27.658  -1.763  53.240  1.00  0.00    -0.274 OA
HETATM   24  H4  UNL     1      27.315   1.197  54.684  1.00  0.00     0.169 HD
ENDBRANCH   1  20
TORSDOF 3
ENDMDL
MODEL 7
REMARK VINA RESULT:      -7.3      2.752      5.977
REMARK  3 active torsions:
REMARK  status: ('A' for Active; 'I' for Inactive)
REMARK       I    between atoms: C2_2  and  N1_4 
REMARK    1  A    between atoms: N1_4  and  C3_5 
REMARK    2  A    between atoms: C8_12  and  N4_13 
REMARK    3  A    between atoms: N4_13  and  C9_14 
ROOT
HETATM    1  C3  UNL     1      24.980   0.507  53.107  1.00  0.00     0.035 A 
HETATM    2  C4  UNL     1      24.842  -0.577  53.951  1.00  0.00     0.032 A 
HETATM    3  C5  UNL     1      23.552  -0.934  54.350  1.00  0.00     0.035 A 
HETATM    4  C6  UNL     1      22.467  -0.211  53.903  1.00  0.00     0.072 A 
HETATM    5  N2  UNL     1      21.207  -0.550  54.287  1.00  0.00    -0.241 NA
HETATM    6  C7  UNL     1      20.167   0.198  53.816  1.00  0.00     0.236 A 
HETATM    7  N3  UNL     1      20.319   1.268  52.981  1.00  0.00    -0.224 NA
HETATM    8  C8  UNL     1      21.550   1.636  52.578  1.00  0.00     0.142 A 
HETATM    9  C15 UNL     1      22.595   0.873  53.060  1.00  0.00     0.041 A 
HETATM   10  C16 UNL     1      23.876   1.212  52.675  1.00  0.00     0.047 A 
ENDROOT
BRANCH   8  11
HETATM   11  N4  UNL     1      21.675   2.735  51.723  1.00  0.00    -0.341 N 
HETATM   12  H8  UNL     1      21.614   3.732  51.921  1.00  0.00     0.167 HD
BRANCH  11  13
HETATM   13  C9  UNL     1      21.927   2.475  50.347  1.00  0.00     0.054 A 
HETATM   14  C10 UNL     1      22.794   3.121  49.581  1.00  0.00     0.028 A 
HETATM   15  C11 UNL     1      22.792   2.592  48.216  1.00  0.00     0.002 A 
HETATM   16  C12 UNL     1      21.908   1.613  48.168  1.00  0.00     0.022 A 
HETATM   17  C13 UNL     1      21.277   1.437  49.488  1.00  0.00     0.160 A 
HETATM   18  C14 UNL     1      19.797   1.711  49.318  1.00  0.00     0.063 C 
HETATM   19  F1  UNL     1      21.484   0.163  49.920  1.00  0.00    -0.232 F 
ENDBRANCH  11  13
ENDBRANCH   8  11
BRANCH   1  20
HETATM   20  N1  UNL     1      26.332   0.780  52.765  1.00  0.00    -0.327 N 
HETATM   21  C2  UNL     1      27.042   1.790  53.511  1.00  0.00     0.218 C 
HETATM   22  C1  UNL     1      28.442   2.036  53.116  1.00  0.00     0.117 C 
HETATM   23  O1  UNL     1      26.541   2.455  54.453  1.00  0.00    -0.274 OA
HETATM   24  H4  UNL     1      26.822   0.264  51.987  1.00  0.00     0.169 HD
ENDBRANCH   1  20
TORSDOF 3
ENDMDL
MODEL 8
REMARK VINA RESULT:      -7.2      2.805      4.294
REMARK  3 active torsions:
REMARK  status: ('A' for Active; 'I' for Inactive)
REMARK       I    between atoms: C2_2  and  N1_4 
REMARK    1  A    between atoms: N1_4  and  C3_5 
REMARK    2  A    between atoms: C8_12  and  N4_13 
REMARK    3  A    between atoms: N4_13  and  C9_14 
ROOT
HETATM    1  C3  UNL     1      21.957   0.355  53.014  1.00  0.00     0.035 A 
HETATM    2  C4  UNL     1      22.053  -0.918  53.539  1.00  0.00     0.032 A 
HETATM    3  C5  UNL     1      23.284  -1.317  54.065  1.00  0.00     0.035 A 
HETATM    4  C6  UNL     1      24.355  -0.449  54.049  1.00  0.00     0.072 A 
HETATM    5  N2  UNL     1      25.558  -0.828  54.558  1.00  0.00    -0.241 NA
HETATM    6  C7  UNL     1      26.585   0.069  54.517  1.00  0.00     0.236 A 
HETATM    7  N3  UNL     1      26.476   1.325  53.994  1.00  0.00    -0.224 NA
HETATM    8  C8  UNL     1      25.302   1.739  53.480  1.00  0.00     0.142 A 
HETATM    9  C15 UNL     1      24.268   0.824  53.526  1.00  0.00     0.041 A 
HETATM   10  C16 UNL     1      23.046   1.203  53.011  1.00  0.00     0.047 A 
ENDROOT
BRANCH   8  11
HETATM   11  N4  UNL     1      25.218   3.031  52.952  1.00  0.00    -0.341 N 
HETATM   12  H8  UNL     1      25.003   3.915  53.409  1.00  0.00     0.167 HD
BRANCH  11  13
HETATM   13  C9  UNL     1      25.462   3.192  51.560  1.00  0.00     0.054 A 
HETATM   14  C10 UNL     1      26.594   2.907  50.932  1.00  0.00     0.028 A 
HETATM   15  C11 UNL     1      26.493   3.196  49.501  1.00  0.00     0.002 A 
HETATM   16  C12 UNL     1      25.279   3.661  49.271  1.00  0.00     0.022 A 
HETATM   17  C13 UNL     1      24.511   3.707  50.527  1.00  0.00     0.160 A 
HETATM   18  C14 UNL     1      24.154   5.157  50.782  1.00  0.00     0.063 C 
HETATM   19  F1  UNL     1      23.387   2.952  50.395  1.00  0.00    -0.232 F 
ENDBRANCH  11  13
ENDBRANCH   8  11
BRANCH   1  20
HETATM   20  N1  UNL     1      20.663   0.654  52.508  1.00  0.00    -0.327 N 
HETATM   21  C2  UNL     1      20.452   0.608  51.082  1.00  0.00     0.218 C 
HETATM   22  C1  UNL     1      19.092   0.928  50.609  1.00  0.00     0.117 C 
HETATM   23  O1  UNL     1      21.344   0.318  50.245  1.00  0.00    -0.274 OA
HETATM   24  H4  UNL     1      19.864   0.906  53.148  1.00  0.00     0.169 HD
ENDBRANCH   1  20
TORSDOF 3
ENDMDL
MODEL 9
REMARK VINA RESULT:      -7.2      2.919      6.356
REMARK  3 active torsions:
REMARK  status: ('A' for Active; 'I' for Inactive)
REMARK       I    between atoms: C2_2  and  N1_4 
REMARK    1  A    between atoms: N1_4  and  C3_5 
REMARK    2  A    between atoms: C8_12  and  N4_13 
REMARK    3  A    between atoms: N4_13  and  C9_14 
ROOT
HETATM    1  C3  UNL     1      24.732  -0.042  53.346  1.00  0.00     0.035 A 
HETATM    2  C4  UNL     1      23.930  -0.787  54.186  1.00  0.00     0.032 A 
HETATM    3  C5  UNL     1      22.571  -0.467  54.246  1.00  0.00     0.035 A 
HETATM    4  C6  UNL     1      22.071   0.565  53.482  1.00  0.00     0.072 A 
HETATM    5  N2  UNL     1      20.750   0.885  53.534  1.00  0.00    -0.241 NA
HETATM    6  C7  UNL     1      20.307   1.915  52.757  1.00  0.00     0.236 A 
HETATM    7  N3  UNL     1      21.112   2.644  51.930  1.00  0.00    -0.224 NA
HETATM    8  C8  UNL     1      22.426   2.359  51.849  1.00  0.00     0.142 A 
HETATM    9  C15 UNL     1      22.866   1.315  52.640  1.00  0.00     0.041 A 
HETATM   10  C16 UNL     1      24.204   0.986  52.591  1.00  0.00     0.047 A 
ENDROOT
BRANCH   8  11
HETATM   11  N4  UNL     1      23.227   3.122  50.994  1.00  0.00    -0.341 N 
HETATM   12  H8  UNL     1      24.074   3.653  51.186  1.00  0.00     0.167 HD
BRANCH  11  13
HETATM   13  C9  UNL     1      22.840   3.204  49.627  1.00  0.00     0.054 A 
HETATM   14  C10 UNL     1      22.620   2.177  48.820  1.00  0.00     0.028 A 
HETATM   15  C11 UNL     1      22.239   2.627  47.481  1.00  0.00     0.002 A 
HETATM   16  C12 UNL     1      22.231   3.948  47.490  1.00  0.00     0.022 A 
HETATM   17  C13 UNL     1      22.604   4.444  48.826  1.00  0.00     0.160 A 
HETATM   18  C14 UNL     1      23.878   5.247  48.666  1.00  0.00     0.063 C 
HETATM   19  F1  UNL     1      21.601   5.226  49.311  1.00  0.00    -0.232 F 
ENDBRANCH  11  13
ENDBRANCH   8  11
BRANCH   1  20
HETATM   20  N1  UNL     1      26.093  -0.453  53.362  1.00  0.00    -0.327 N 
HETATM   21  C2  UNL     1      27.012   0.239  54.233  1.00  0.00     0.218 C 
HETATM   22  C1  UNL     1      28.411  -0.225  54.213  1.00  0.00     0.117 C 
HETATM   23  O1  UNL     1      26.689   1.192  54.987  1.00  0.00    -0.274 OA
HETATM   24  H4  UNL     1      26.439  -1.244  52.758  1.00  0.00     0.169 HD
ENDBRANCH   1  20
TORSDOF 3
ENDMDL
