MODEL 1
REMARK VINA RESULT:      -7.2      0.000      0.000
REMARK  2 active torsions:
REMARK  status: ('A' for Active; 'I' for Inactive)
REMARK    1  A    between atoms: C2_2  and  C3_3 
REMARK    2  A    between atoms: C3_3  and  C4_4 
ROOT
HETATM    1  C4  UNL     1      26.117   1.077  52.776  1.00  0.00     0.038 C 
HETATM    2  N1  UNL     1      25.678   2.243  53.002  1.00  0.00    -0.184 NA
HETATM    3  N2  UNL     1      24.283   2.353  52.985  1.00  0.00    -0.286 N 
HETATM    4  C5  UNL     1      23.462   3.513  52.616  1.00  0.00     0.223 C 
HETATM    5  S1  UNL     1      23.915   4.184  51.012  1.00  0.00    -0.119 SA
HETATM    6  C6  UNL     1      23.566   2.963  49.755  1.00  0.00     0.063 C 
HETATM    7  C7  UNL     1      22.695   1.978  49.902  1.00  0.00     0.095 C 
HETATM    8  N3  UNL     1      21.909   1.724  51.035  1.00  0.00    -0.365 N 
HETATM    9  C8  UNL     1      21.705   0.927  52.174  1.00  0.00     0.041 A 
HETATM   10  C9  UNL     1      20.420   0.432  52.117  1.00  0.00     0.049 A 
HETATM   11  C10 UNL     1      19.859  -0.411  53.082  1.00  0.00     0.013 A 
HETATM   12 BR1  UNL     1      18.129  -1.142  53.108  1.00  0.00    -0.051 Br
HETATM   13  C11 UNL     1      20.710  -0.716  54.122  1.00  0.00     0.020 A 
HETATM   14  C12 UNL     1      21.992  -0.220  54.176  1.00  0.00     0.013 A 
HETATM   15  C13 UNL     1      22.541   0.613  53.220  1.00  0.00    -0.007 A 
HETATM   16  C14 UNL     1      23.922   1.048  53.425  1.00  0.00     0.145 C 
HETATM   17  C15 UNL     1      24.907   0.236  52.566  1.00  0.00     0.088 C 
HETATM   18  H10 UNL     1      21.231   2.519  50.825  1.00  0.00     0.165 HD
ENDROOT
BRANCH   1  19
HETATM   19  C3  UNL     1      27.539   0.586  52.715  1.00  0.00     0.082 C 
BRANCH  19  20
HETATM   20  C2  UNL     1      27.822  -0.222  53.915  1.00  0.00    -0.031 C 
HETATM   21  C1  UNL     1      28.639   0.226  54.835  1.00  0.00     0.007 C 
ENDBRANCH  19  20
ENDBRANCH   1  19
TORSDOF 2
ENDMDL
MODEL 2
REMARK VINA RESULT:      -7.1      3.833      5.933
REMARK  2 active torsions:
REMARK  status: ('A' for Active; 'I' for Inactive)
REMARK    1  A    between atoms: C2_2  and  C3_3 
REMARK    2  A    between atoms: C3_3  and  C4_4 
ROOT
HETATM    1  C4  UNL     1      23.797   0.881  52.580  1.00  0.00     0.038 C 
HETATM    2  N1  UNL     1      22.950   0.902  51.638  1.00  0.00    -0.184 NA
HETATM    3  N2  UNL     1      23.140   1.930  50.708  1.00  0.00    -0.286 N 
HETATM    4  C5  UNL     1      22.133   2.627  49.898  1.00  0.00     0.223 C 
HETATM    5  S1  UNL     1      20.779   3.261  50.894  1.00  0.00    -0.119 SA
HETATM    6  C6  UNL     1      21.413   4.510  52.004  1.00  0.00     0.063 C 
HETATM    7  C7  UNL     1      22.529   5.189  51.793  1.00  0.00     0.095 C 
HETATM    8  N3  UNL     1      23.389   5.056  50.693  1.00  0.00    -0.365 N 
HETATM    9  C8  UNL     1      24.610   4.562  50.204  1.00  0.00     0.041 A 
HETATM   10  C9  UNL     1      25.296   5.616  49.639  1.00  0.00     0.049 A 
HETATM   11  C10 UNL     1      26.560   5.506  49.052  1.00  0.00     0.013 A 
HETATM   12 BR1  UNL     1      27.583   6.866  48.256  1.00  0.00    -0.051 Br
HETATM   13  C11 UNL     1      27.081   4.231  49.080  1.00  0.00     0.020 A 
HETATM   14  C12 UNL     1      26.395   3.181  49.643  1.00  0.00     0.013 A 
HETATM   15  C13 UNL     1      25.146   3.294  50.223  1.00  0.00    -0.007 A 
HETATM   16  C14 UNL     1      24.554   2.080  50.783  1.00  0.00     0.145 C 
HETATM   17  C15 UNL     1      24.709   2.026  52.313  1.00  0.00     0.088 C 
HETATM   18  H10 UNL     1      22.741   5.592  50.038  1.00  0.00     0.165 HD
ENDROOT
BRANCH   1  19
HETATM   19  C3  UNL     1      23.907  -0.066  53.745  1.00  0.00     0.082 C 
BRANCH  19  20
HETATM   20  C2  UNL     1      22.694  -0.901  53.805  1.00  0.00    -0.031 C 
HETATM   21  C1  UNL     1      21.856  -0.778  54.804  1.00  0.00     0.007 C 
ENDBRANCH  19  20
ENDBRANCH   1  19
TORSDOF 2
ENDMDL
MODEL 3
REMARK VINA RESULT:      -6.9      4.275      6.345
REMARK  2 active torsions:
REMARK  status: ('A' for Active; 'I' for Inactive)
REMARK    1  A    between atoms: C2_2  and  C3_3 
REMARK    2  A    between atoms: C3_3  and  C4_4 
ROOT
HETATM    1  C4  UNL     1      23.846   1.817  51.934  1.00  0.00     0.038 C 
HETATM    2  N1  UNL     1      23.082   1.874  50.926  1.00  0.00    -0.184 NA
HETATM    3  N2  UNL     1      23.415   2.870  50.001  1.00  0.00    -0.286 N 
HETATM    4  C5  UNL     1      22.525   3.615  49.101  1.00  0.00     0.223 C 
HETATM    5  S1  UNL     1      21.139   4.354  49.973  1.00  0.00    -0.119 SA
HETATM    6  C6  UNL     1      21.762   5.580  51.114  1.00  0.00     0.063 C 
HETATM    7  C7  UNL     1      22.934   6.181  50.987  1.00  0.00     0.095 C 
HETATM    8  N3  UNL     1      23.870   5.972  49.964  1.00  0.00    -0.365 N 
HETATM    9  C8  UNL     1      25.091   5.391  49.583  1.00  0.00     0.041 A 
HETATM   10  C9  UNL     1      25.888   6.387  49.063  1.00  0.00     0.049 A 
HETATM   11  C10 UNL     1      27.186   6.185  48.583  1.00  0.00     0.013 A 
HETATM   12 BR1  UNL     1      28.358   7.460  47.856  1.00  0.00    -0.051 Br
HETATM   13  C11 UNL     1      27.618   4.879  48.671  1.00  0.00     0.020 A 
HETATM   14  C12 UNL     1      26.821   3.887  49.191  1.00  0.00     0.013 A 
HETATM   15  C13 UNL     1      25.539   4.092  49.664  1.00  0.00    -0.007 A 
HETATM   16  C14 UNL     1      24.825   2.930  50.189  1.00  0.00     0.145 C 
HETATM   17  C15 UNL     1      24.851   2.895  51.728  1.00  0.00     0.088 C 
HETATM   18  H10 UNL     1      23.314   6.536  49.250  1.00  0.00     0.165 HD
ENDROOT
BRANCH   1  19
HETATM   19  C3  UNL     1      23.798   0.887  53.118  1.00  0.00     0.082 C 
BRANCH  19  20
HETATM   20  C2  UNL     1      25.011   0.049  53.123  1.00  0.00    -0.031 C 
HETATM   21  C1  UNL     1      25.309  -0.675  54.173  1.00  0.00     0.007 C 
ENDBRANCH  19  20
ENDBRANCH   1  19
TORSDOF 2
ENDMDL
MODEL 4
REMARK VINA RESULT:      -6.8      1.524      2.253
REMARK  2 active torsions:
REMARK  status: ('A' for Active; 'I' for Inactive)
REMARK    1  A    between atoms: C2_2  and  C3_3 
REMARK    2  A    between atoms: C3_3  and  C4_4 
ROOT
HETATM    1  C4  UNL     1      23.972   0.133  53.059  1.00  0.00     0.038 C 
HETATM    2  N1  UNL     1      23.640   1.356  53.073  1.00  0.00    -0.184 NA
HETATM    3  N2  UNL     1      22.310   1.600  52.715  1.00  0.00    -0.286 N 
HETATM    4  C5  UNL     1      21.742   2.787  52.062  1.00  0.00     0.223 C 
HETATM    5  S1  UNL     1      22.627   3.225  50.560  1.00  0.00    -0.119 SA
HETATM    6  C6  UNL     1      22.425   1.910  49.367  1.00  0.00     0.063 C 
HETATM    7  C7  UNL     1      21.429   1.040  49.386  1.00  0.00     0.095 C 
HETATM    8  N3  UNL     1      20.381   0.995  50.318  1.00  0.00    -0.365 N 
HETATM    9  C8  UNL     1      19.827   0.356  51.440  1.00  0.00     0.041 A 
HETATM   10  C9  UNL     1      18.537  -0.013  51.121  1.00  0.00     0.049 A 
HETATM   11  C10 UNL     1      17.673  -0.682  51.994  1.00  0.00     0.013 A 
HETATM   12 BR1  UNL     1      15.906  -1.230  51.670  1.00  0.00    -0.051 Br
HETATM   13  C11 UNL     1      18.222  -0.950  53.229  1.00  0.00     0.020 A 
HETATM   14  C12 UNL     1      19.509  -0.581  53.544  1.00  0.00     0.013 A 
HETATM   15  C13 UNL     1      20.359   0.080  52.678  1.00  0.00    -0.007 A 
HETATM   16  C14 UNL     1      21.700   0.396  53.168  1.00  0.00     0.145 C 
HETATM   17  C15 UNL     1      22.747  -0.601  52.641  1.00  0.00     0.088 C 
HETATM   18  H10 UNL     1      19.871   1.824  49.884  1.00  0.00     0.165 HD
ENDROOT
BRANCH   1  19
HETATM   19  C3  UNL     1      25.299  -0.500  53.382  1.00  0.00     0.082 C 
BRANCH  19  20
HETATM   20  C2  UNL     1      26.262  -0.175  52.315  1.00  0.00    -0.031 C 
HETATM   21  C1  UNL     1      27.221   0.691  52.532  1.00  0.00     0.007 C 
ENDBRANCH  19  20
ENDBRANCH   1  19
TORSDOF 2
ENDMDL
MODEL 5
REMARK VINA RESULT:      -6.7      2.885      5.946
REMARK  2 active torsions:
REMARK  status: ('A' for Active; 'I' for Inactive)
REMARK    1  A    between atoms: C2_2  and  C3_3 
REMARK    2  A    between atoms: C3_3  and  C4_4 
ROOT
HETATM    1  C4  UNL     1      20.265  -0.060  52.660  1.00  0.00     0.038 C 
HETATM    2  N1  UNL     1      20.470   0.197  51.437  1.00  0.00    -0.184 NA
HETATM    3  N2  UNL     1      21.711   0.782  51.166  1.00  0.00    -0.286 N 
HETATM    4  C5  UNL     1      22.066   1.715  50.089  1.00  0.00     0.223 C 
HETATM    5  S1  UNL     1      20.957   3.127  50.019  1.00  0.00    -0.119 SA
HETATM    6  C6  UNL     1      21.137   4.078  51.521  1.00  0.00     0.063 C 
HETATM    7  C7  UNL     1      22.211   4.046  52.293  1.00  0.00     0.095 C 
HETATM    8  N3  UNL     1      23.368   3.284  52.077  1.00  0.00    -0.365 N 
HETATM    9  C8  UNL     1      24.123   2.157  52.443  1.00  0.00     0.041 A 
HETATM   10  C9  UNL     1      25.392   2.587  52.767  1.00  0.00     0.049 A 
HETATM   11  C10 UNL     1      26.425   1.742  53.187  1.00  0.00     0.013 A 
HETATM   12 BR1  UNL     1      28.182   2.214  53.652  1.00  0.00    -0.051 Br
HETATM   13  C11 UNL     1      26.069   0.413  53.252  1.00  0.00     0.020 A 
HETATM   14  C12 UNL     1      24.802  -0.014  52.927  1.00  0.00     0.013 A 
HETATM   15  C13 UNL     1      23.785   0.825  52.513  1.00  0.00    -0.007 A 
HETATM   16  C14 UNL     1      22.493   0.212  52.210  1.00  0.00     0.145 C 
HETATM   17  C15 UNL     1      21.494   0.391  53.367  1.00  0.00     0.088 C 
HETATM   18  H10 UNL     1      23.731   3.931  51.312  1.00  0.00     0.165 HD
ENDROOT
BRANCH   1  19
HETATM   19  C3  UNL     1      19.061  -0.682  53.318  1.00  0.00     0.082 C 
BRANCH  19  20
HETATM   20  C2  UNL     1      17.960  -0.754  52.341  1.00  0.00    -0.031 C 
HETATM   21  C1  UNL     1      16.849  -1.379  52.642  1.00  0.00     0.007 C 
ENDBRANCH  19  20
ENDBRANCH   1  19
TORSDOF 2
ENDMDL
MODEL 6
REMARK VINA RESULT:      -6.5      8.999     10.541
REMARK  2 active torsions:
REMARK  status: ('A' for Active; 'I' for Inactive)
REMARK    1  A    between atoms: C2_2  and  C3_3 
REMARK    2  A    between atoms: C3_3  and  C4_4 
ROOT
HETATM    1  C4  UNL     1      32.918   4.226  47.396  1.00  0.00     0.038 C 
HETATM    2  N1  UNL     1      33.250   5.157  48.189  1.00  0.00    -0.184 NA
HETATM    3  N2  UNL     1      32.264   6.129  48.388  1.00  0.00    -0.286 N 
HETATM    4  C5  UNL     1      32.435   7.554  48.700  1.00  0.00     0.223 C 
HETATM    5  S1  UNL     1      33.550   8.373  47.553  1.00  0.00    -0.119 SA
HETATM    6  C6  UNL     1      32.819   8.350  45.922  1.00  0.00     0.063 C 
HETATM    7  C7  UNL     1      31.522   8.218  45.694  1.00  0.00     0.095 C 
HETATM    8  N3  UNL     1      30.517   8.080  46.662  1.00  0.00    -0.365 N 
HETATM    9  C8  UNL     1      29.618   7.219  47.314  1.00  0.00     0.041 A 
HETATM   10  C9  UNL     1      28.354   7.751  47.184  1.00  0.00     0.049 A 
HETATM   11  C10 UNL     1      27.196   7.164  47.703  1.00  0.00     0.013 A 
HETATM   12 BR1  UNL     1      25.431   7.796  47.587  1.00  0.00    -0.051 Br
HETATM   13  C11 UNL     1      27.421   5.981  48.374  1.00  0.00     0.020 A 
HETATM   14  C12 UNL     1      28.684   5.452  48.503  1.00  0.00     0.013 A 
HETATM   15  C13 UNL     1      29.825   6.037  47.988  1.00  0.00    -0.007 A 
HETATM   16  C14 UNL     1      31.092   5.341  48.209  1.00  0.00     0.145 C 
HETATM   17  C15 UNL     1      31.534   4.556  46.962  1.00  0.00     0.088 C 
HETATM   18  H10 UNL     1      30.537   9.112  46.926  1.00  0.00     0.165 HD
ENDROOT
BRANCH   1  19
HETATM   19  C3  UNL     1      33.709   3.025  46.948  1.00  0.00     0.082 C 
BRANCH  19  20
HETATM   20  C2  UNL     1      32.952   1.802  47.269  1.00  0.00    -0.031 C 
HETATM   21  C1  UNL     1      33.090   1.228  48.438  1.00  0.00     0.007 C 
ENDBRANCH  19  20
ENDBRANCH   1  19
TORSDOF 2
ENDMDL
MODEL 7
REMARK VINA RESULT:      -6.2      3.091      6.217
REMARK  2 active torsions:
REMARK  status: ('A' for Active; 'I' for Inactive)
REMARK    1  A    between atoms: C2_2  and  C3_3 
REMARK    2  A    between atoms: C3_3  and  C4_4 
ROOT
HETATM    1  C4  UNL     1      18.642   1.773  50.944  1.00  0.00     0.038 C 
HETATM    2  N1  UNL     1      19.117   1.340  49.852  1.00  0.00    -0.184 NA
HETATM    3  N2  UNL     1      20.477   1.015  49.900  1.00  0.00    -0.286 N 
HETATM    4  C5  UNL     1      21.467   1.067  48.816  1.00  0.00     0.223 C 
HETATM    5  S1  UNL     1      21.486   2.662  47.988  1.00  0.00    -0.119 SA
HETATM    6  C6  UNL     1      22.018   3.910  49.151  1.00  0.00     0.063 C 
HETATM    7  C7  UNL     1      22.733   3.655  50.235  1.00  0.00     0.095 C 
HETATM    8  N3  UNL     1      23.189   2.397  50.654  1.00  0.00    -0.365 N 
HETATM    9  C8  UNL     1      23.033   1.323  51.546  1.00  0.00     0.041 A 
HETATM   10  C9  UNL     1      24.242   1.120  52.178  1.00  0.00     0.049 A 
HETATM   11  C10 UNL     1      24.468   0.134  53.143  1.00  0.00     0.013 A 
HETATM   12 BR1  UNL     1      26.063  -0.231  54.065  1.00  0.00    -0.051 Br
HETATM   13  C11 UNL     1      23.363  -0.640  53.422  1.00  0.00     0.020 A 
HETATM   14  C12 UNL     1      22.159  -0.437  52.790  1.00  0.00     0.013 A 
HETATM   15  C13 UNL     1      21.940   0.539  51.837  1.00  0.00    -0.007 A 
HETATM   16  C14 UNL     1      20.598   0.627  51.264  1.00  0.00     0.145 C 
HETATM   17  C15 UNL     1      19.783   1.768  51.898  1.00  0.00     0.088 C 
HETATM   18  H10 UNL     1      23.969   2.365  49.928  1.00  0.00     0.165 HD
ENDROOT
BRANCH   1  19
HETATM   19  C3  UNL     1      17.239   2.214  51.266  1.00  0.00     0.082 C 
BRANCH  19  20
HETATM   20  C2  UNL     1      17.234   3.667  51.512  1.00  0.00    -0.031 C 
HETATM   21  C1  UNL     1      16.187   4.243  52.049  1.00  0.00     0.007 C 
ENDBRANCH  19  20
ENDBRANCH   1  19
TORSDOF 2
ENDMDL
MODEL 8
REMARK VINA RESULT:      -6.0     10.653     13.079
REMARK  2 active torsions:
REMARK  status: ('A' for Active; 'I' for Inactive)
REMARK    1  A    between atoms: C2_2  and  C3_3 
REMARK    2  A    between atoms: C3_3  and  C4_4 
ROOT
HETATM    1  C4  UNL     1      29.658   6.252  48.116  1.00  0.00     0.038 C 
HETATM    2  N1  UNL     1      30.611   5.746  48.779  1.00  0.00    -0.184 NA
HETATM    3  N2  UNL     1      31.886   6.054  48.291  1.00  0.00    -0.286 N 
HETATM    4  C5  UNL     1      33.114   5.253  48.372  1.00  0.00     0.223 C 
HETATM    5  S1  UNL     1      32.873   3.576  47.774  1.00  0.00    -0.119 SA
HETATM    6  C6  UNL     1      32.484   3.636  46.030  1.00  0.00     0.063 C 
HETATM    7  C7  UNL     1      32.803   4.644  45.235  1.00  0.00     0.095 C 
HETATM    8  N3  UNL     1      33.485   5.812  45.604  1.00  0.00    -0.365 N 
HETATM    9  C8  UNL     1      33.403   7.185  45.891  1.00  0.00     0.041 A 
HETATM   10  C9  UNL     1      34.294   7.841  45.069  1.00  0.00     0.049 A 
HETATM   11  C10 UNL     1      34.487   9.226  45.066  1.00  0.00     0.013 A 
HETATM   12 BR1  UNL     1      35.666  10.224  43.997  1.00  0.00    -0.051 Br
HETATM   13  C11 UNL     1      33.698   9.903  45.972  1.00  0.00     0.020 A 
HETATM   14  C12 UNL     1      32.810   9.246  46.791  1.00  0.00     0.013 A 
HETATM   15  C13 UNL     1      32.624   7.877  46.790  1.00  0.00    -0.007 A 
HETATM   16  C14 UNL     1      31.635   7.335  47.721  1.00  0.00     0.145 C 
HETATM   17  C15 UNL     1      30.306   7.014  47.015  1.00  0.00     0.088 C 
HETATM   18  H10 UNL     1      34.432   5.325  45.646  1.00  0.00     0.165 HD
ENDROOT
BRANCH   1  19
HETATM   19  C3  UNL     1      28.173   6.140  48.341  1.00  0.00     0.082 C 
BRANCH  19  20
HETATM   20  C2  UNL     1      27.826   4.728  48.582  1.00  0.00    -0.031 C 
HETATM   21  C1  UNL     1      26.733   4.418  49.233  1.00  0.00     0.007 C 
ENDBRANCH  19  20
ENDBRANCH   1  19
TORSDOF 2
ENDMDL
MODEL 9
REMARK VINA RESULT:      -5.9     20.101     21.609
REMARK  2 active torsions:
REMARK  status: ('A' for Active; 'I' for Inactive)
REMARK    1  A    between atoms: C2_2  and  C3_3 
REMARK    2  A    between atoms: C3_3  and  C4_4 
ROOT
HETATM    1  C4  UNL     1      42.586  -2.782  56.675  1.00  0.00     0.038 C 
HETATM    2  N1  UNL     1      43.826  -2.909  56.905  1.00  0.00    -0.184 NA
HETATM    3  N2  UNL     1      44.651  -2.632  55.810  1.00  0.00    -0.286 N 
HETATM    4  C5  UNL     1      45.968  -3.199  55.492  1.00  0.00     0.223 C 
HETATM    5  S1  UNL     1      45.959  -4.995  55.516  1.00  0.00    -0.119 SA
HETATM    6  C6  UNL     1      44.884  -5.585  54.216  1.00  0.00     0.063 C 
HETATM    7  C7  UNL     1      44.564  -4.879  53.144  1.00  0.00     0.095 C 
HETATM    8  N3  UNL     1      44.999  -3.581  52.841  1.00  0.00    -0.365 N 
HETATM    9  C8  UNL     1      44.679  -2.213  52.783  1.00  0.00     0.041 A 
HETATM   10  C9  UNL     1      44.940  -1.774  51.503  1.00  0.00     0.049 A 
HETATM   11  C10 UNL     1      44.737  -0.461  51.066  1.00  0.00     0.013 A 
HETATM   12 BR1  UNL     1      45.055   0.247  49.356  1.00  0.00    -0.051 Br
HETATM   13  C11 UNL     1      44.243   0.382  52.038  1.00  0.00     0.020 A 
HETATM   14  C12 UNL     1      43.984  -0.059  53.315  1.00  0.00     0.013 A 
HETATM   15  C13 UNL     1      44.187  -1.358  53.742  1.00  0.00    -0.007 A 
HETATM   16  C14 UNL     1      43.856  -1.665  55.132  1.00  0.00     0.145 C 
HETATM   17  C15 UNL     1      42.493  -2.369  55.249  1.00  0.00     0.088 C 
HETATM   18  H10 UNL     1      45.971  -3.903  52.546  1.00  0.00     0.165 HD
ENDROOT
BRANCH   1  19
HETATM   19  C3  UNL     1      41.416  -2.993  57.599  1.00  0.00     0.082 C 
BRANCH  19  20
HETATM   20  C2  UNL     1      41.907  -3.083  58.986  1.00  0.00    -0.031 C 
HETATM   21  C1  UNL     1      41.804  -2.055  59.791  1.00  0.00     0.007 C 
ENDBRANCH  19  20
ENDBRANCH   1  19
TORSDOF 2
ENDMDL
