MODEL 1
REMARK VINA RESULT:      -8.4      0.000      0.000
REMARK  6 active torsions:
REMARK  status: ('A' for Active; 'I' for Inactive)
REMARK    1  A    between atoms: C2_2  and  C3_3 
REMARK    2  A    between atoms: C3_3  and  C4_4 
REMARK    3  A    between atoms: C4_4  and  C5_5 
REMARK    4  A    between atoms: C6_6  and  C7_7 
REMARK       I    between atoms: C7_7  and  N1_9 
REMARK    5  A    between atoms: N1_9  and  C8_10 
REMARK    6  A    between atoms: N4_18  and  C14_19 
ROOT
HETATM    1  C8  UNL     1      25.992   2.850  50.832  1.00  0.00     0.018 A 
HETATM    2  C9  UNL     1      24.678   2.700  50.723  1.00  0.00     0.028 A 
HETATM    3  C10 UNL     1      23.971   1.749  51.570  1.00  0.00     0.036 A 
HETATM    4  C11 UNL     1      24.628   1.038  52.444  1.00  0.00     0.084 A 
HETATM    5  C12 UNL     1      26.061   1.161  52.611  1.00  0.00     0.070 A 
HETATM    6  N2  UNL     1      26.612   0.433  53.508  1.00  0.00    -0.242 NA
HETATM    7  C13 UNL     1      25.829  -0.471  54.316  1.00  0.00     0.255 A 
HETATM    8  N3  UNL     1      24.552  -0.589  54.177  1.00  0.00    -0.160 NA
HETATM    9  N4  UNL     1      23.841   0.158  53.225  1.00  0.00    -0.231 N 
HETATM   10  C20 UNL     1      26.840   2.087  51.786  1.00  0.00     0.118 A 
ENDROOT
BRANCH   1  11
HETATM   11  N1  UNL     1      26.824   3.731  50.081  1.00  0.00    -0.320 N 
HETATM   12  C7  UNL     1      26.552   4.794  49.179  1.00  0.00     0.300 C 
HETATM   13  O1  UNL     1      25.388   5.177  48.857  1.00  0.00    -0.258 OA
HETATM   14  H10 UNL     1      27.806   3.460  50.309  1.00  0.00     0.169 HD
BRANCH  12  15
HETATM   15  C6  UNL     1      27.690   5.462  48.608  1.00  0.00    -0.005 C 
HETATM   16  C5  UNL     1      28.639   6.024  48.112  1.00  0.00    -0.096 C 
BRANCH  16  17
HETATM   17  C4  UNL     1      29.801   6.699  47.482  1.00  0.00     0.094 C 
BRANCH  17  18
HETATM   18  C3  UNL     1      31.078   5.973  47.779  1.00  0.00     0.012 C 
BRANCH  18  19
HETATM   19  C2  UNL     1      31.654   6.300  49.151  1.00  0.00    -0.004 C 
HETATM   20  C1  UNL     1      31.611   7.752  49.490  1.00  0.00     0.005 C 
ENDBRANCH  18  19
ENDBRANCH  17  18
ENDBRANCH  16  17
ENDBRANCH  12  15
ENDBRANCH   1  11
BRANCH   9  21
HETATM   21  C14 UNL     1      22.454  -0.088  53.205  1.00  0.00     0.059 A 
HETATM   22  C15 UNL     1      21.437   0.513  52.497  1.00  0.00     0.034 A 
HETATM   23  C16 UNL     1      20.119   0.137  52.641  1.00  0.00     0.044 A 
HETATM   24  C17 UNL     1      19.737  -0.863  53.504  1.00  0.00     0.116 A 
HETATM   25  F1  UNL     1      18.423  -1.167  53.584  1.00  0.00    -0.206 F 
HETATM   26  C18 UNL     1      20.716  -1.497  54.238  1.00  0.00     0.044 A 
HETATM   27  C19 UNL     1      22.028  -1.102  54.074  1.00  0.00     0.034 A 
ENDBRANCH   9  21
TORSDOF 6
ENDMDL
MODEL 2
REMARK VINA RESULT:      -8.1      5.390      8.729
REMARK  6 active torsions:
REMARK  status: ('A' for Active; 'I' for Inactive)
REMARK    1  A    between atoms: C2_2  and  C3_3 
REMARK    2  A    between atoms: C3_3  and  C4_4 
REMARK    3  A    between atoms: C4_4  and  C5_5 
REMARK    4  A    between atoms: C6_6  and  C7_7 
REMARK       I    between atoms: C7_7  and  N1_9 
REMARK    5  A    between atoms: N1_9  and  C8_10 
REMARK    6  A    between atoms: N4_18  and  C14_19 
ROOT
HETATM    1  C8  UNL     1      21.703   1.147  52.352  1.00  0.00     0.018 A 
HETATM    2  C9  UNL     1      22.957   1.295  51.945  1.00  0.00     0.028 A 
HETATM    3  C10 UNL     1      24.048   0.648  52.662  1.00  0.00     0.036 A 
HETATM    4  C11 UNL     1      23.796  -0.085  53.710  1.00  0.00     0.084 A 
HETATM    5  C12 UNL     1      22.448  -0.287  54.199  1.00  0.00     0.070 A 
HETATM    6  N2  UNL     1      22.302  -1.039  55.224  1.00  0.00    -0.242 NA
HETATM    7  C13 UNL     1      23.440  -1.656  55.863  1.00  0.00     0.255 A 
HETATM    8  N3  UNL     1      24.646  -1.483  55.437  1.00  0.00    -0.160 NA
HETATM    9  N4  UNL     1      24.926  -0.679  54.320  1.00  0.00    -0.231 N 
HETATM   10  C20 UNL     1      21.303   0.343  53.537  1.00  0.00     0.118 A 
ENDROOT
BRANCH   1  11
HETATM   11  N1  UNL     1      20.533   1.711  51.763  1.00  0.00    -0.320 N 
HETATM   12  C7  UNL     1      19.942   3.001  51.819  1.00  0.00     0.300 C 
HETATM   13  O1  UNL     1      20.413   3.976  52.478  1.00  0.00    -0.258 OA
HETATM   14  H10 UNL     1      20.098   0.946  51.203  1.00  0.00     0.169 HD
BRANCH  12  15
HETATM   15  C6  UNL     1      18.728   3.187  51.069  1.00  0.00    -0.005 C 
HETATM   16  C5  UNL     1      17.709   3.360  50.444  1.00  0.00    -0.096 C 
BRANCH  16  17
HETATM   17  C4  UNL     1      16.447   3.586  49.695  1.00  0.00     0.094 C 
BRANCH  17  18
HETATM   18  C3  UNL     1      15.351   4.051  50.606  1.00  0.00     0.012 C 
BRANCH  18  19
HETATM   19  C2  UNL     1      15.250   3.242  51.893  1.00  0.00    -0.004 C 
HETATM   20  C1  UNL     1      14.847   4.050  53.080  1.00  0.00     0.005 C 
ENDBRANCH  18  19
ENDBRANCH  17  18
ENDBRANCH  16  17
ENDBRANCH  12  15
ENDBRANCH   1  11
BRANCH   9  21
HETATM   21  C14 UNL     1      26.292  -0.600  53.986  1.00  0.00     0.059 A 
HETATM   22  C15 UNL     1      27.017  -1.206  52.983  1.00  0.00     0.034 A 
HETATM   23  C16 UNL     1      28.373  -1.016  52.838  1.00  0.00     0.044 A 
HETATM   24  C17 UNL     1      29.091  -0.208  53.689  1.00  0.00     0.116 A 
HETATM   25  F1  UNL     1      30.419  -0.077  53.475  1.00  0.00    -0.206 F 
HETATM   26  C18 UNL     1      28.414   0.423  54.711  1.00  0.00     0.044 A 
HETATM   27  C19 UNL     1      27.055   0.216  54.833  1.00  0.00     0.034 A 
ENDBRANCH   9  21
TORSDOF 6
ENDMDL
MODEL 3
REMARK VINA RESULT:      -7.9      4.969      7.170
REMARK  6 active torsions:
REMARK  status: ('A' for Active; 'I' for Inactive)
REMARK    1  A    between atoms: C2_2  and  C3_3 
REMARK    2  A    between atoms: C3_3  and  C4_4 
REMARK    3  A    between atoms: C4_4  and  C5_5 
REMARK    4  A    between atoms: C6_6  and  C7_7 
REMARK       I    between atoms: C7_7  and  N1_9 
REMARK    5  A    between atoms: N1_9  and  C8_10 
REMARK    6  A    between atoms: N4_18  and  C14_19 
ROOT
HETATM    1  C8  UNL     1      23.011   3.521  51.915  1.00  0.00     0.018 A 
HETATM    2  C9  UNL     1      24.327   3.417  52.049  1.00  0.00     0.028 A 
HETATM    3  C10 UNL     1      24.915   2.235  52.666  1.00  0.00     0.036 A 
HETATM    4  C11 UNL     1      24.147   1.271  53.091  1.00  0.00     0.084 A 
HETATM    5  C12 UNL     1      22.705   1.326  52.969  1.00  0.00     0.070 A 
HETATM    6  N2  UNL     1      22.041   0.321  53.400  1.00  0.00    -0.242 NA
HETATM    7  C13 UNL     1      22.709  -0.818  53.983  1.00  0.00     0.255 A 
HETATM    8  N3  UNL     1      23.992  -0.879  54.098  1.00  0.00    -0.160 NA
HETATM    9  N4  UNL     1      24.823   0.165  53.660  1.00  0.00    -0.231 N 
HETATM   10  C20 UNL     1      22.044   2.488  52.370  1.00  0.00     0.118 A 
ENDROOT
BRANCH   1  11
HETATM   11  N1  UNL     1      22.287   4.605  51.337  1.00  0.00    -0.320 N 
HETATM   12  C7  UNL     1      22.605   5.967  51.092  1.00  0.00     0.300 C 
HETATM   13  O1  UNL     1      23.717   6.504  51.379  1.00  0.00    -0.258 OA
HETATM   14  H10 UNL     1      21.352   4.218  51.078  1.00  0.00     0.169 HD
BRANCH  12  15
HETATM   15  C6  UNL     1      21.582   6.768  50.475  1.00  0.00    -0.005 C 
HETATM   16  C5  UNL     1      20.721   7.429  49.943  1.00  0.00    -0.096 C 
BRANCH  16  17
HETATM   17  C4  UNL     1      19.676   8.238  49.267  1.00  0.00     0.094 C 
BRANCH  17  18
HETATM   18  C3  UNL     1      19.394   9.503  50.020  1.00  0.00     0.012 C 
BRANCH  18  19
HETATM   19  C2  UNL     1      18.196  10.274  49.480  1.00  0.00    -0.004 C 
HETATM   20  C1  UNL     1      17.774   9.847  48.115  1.00  0.00     0.005 C 
ENDBRANCH  18  19
ENDBRANCH  17  18
ENDBRANCH  16  17
ENDBRANCH  12  15
ENDBRANCH   1  11
BRANCH   9  21
HETATM   21  C14 UNL     1      26.199  -0.063  53.855  1.00  0.00     0.059 A 
HETATM   22  C15 UNL     1      27.078   0.443  54.787  1.00  0.00     0.034 A 
HETATM   23  C16 UNL     1      28.415   0.110  54.794  1.00  0.00     0.044 A 
HETATM   24  C17 UNL     1      28.956  -0.751  53.869  1.00  0.00     0.116 A 
HETATM   25  F1  UNL     1      30.277  -1.023  53.948  1.00  0.00    -0.206 F 
HETATM   26  C18 UNL     1      28.119  -1.286  52.913  1.00  0.00     0.044 A 
HETATM   27  C19 UNL     1      26.785  -0.936  52.928  1.00  0.00     0.034 A 
ENDBRANCH   9  21
TORSDOF 6
ENDMDL
MODEL 4
REMARK VINA RESULT:      -7.9      4.075      5.931
REMARK  6 active torsions:
REMARK  status: ('A' for Active; 'I' for Inactive)
REMARK    1  A    between atoms: C2_2  and  C3_3 
REMARK    2  A    between atoms: C3_3  and  C4_4 
REMARK    3  A    between atoms: C4_4  and  C5_5 
REMARK    4  A    between atoms: C6_6  and  C7_7 
REMARK       I    between atoms: C7_7  and  N1_9 
REMARK    5  A    between atoms: N1_9  and  C8_10 
REMARK    6  A    between atoms: N4_18  and  C14_19 
ROOT
HETATM    1  C8  UNL     1      25.043   3.309  50.174  1.00  0.00     0.018 A 
HETATM    2  C9  UNL     1      26.274   2.848  50.360  1.00  0.00     0.028 A 
HETATM    3  C10 UNL     1      26.517   1.746  51.282  1.00  0.00     0.036 A 
HETATM    4  C11 UNL     1      25.523   1.204  51.929  1.00  0.00     0.084 A 
HETATM    5  C12 UNL     1      24.159   1.662  51.764  1.00  0.00     0.070 A 
HETATM    6  N2  UNL     1      23.251   1.054  52.430  1.00  0.00    -0.242 NA
HETATM    7  C13 UNL     1      23.582  -0.043  53.309  1.00  0.00     0.255 A 
HETATM    8  N3  UNL     1      24.793  -0.459  53.464  1.00  0.00    -0.160 NA
HETATM    9  N4  UNL     1      25.870   0.132  52.785  1.00  0.00    -0.231 N 
HETATM   10  C20 UNL     1      23.841   2.774  50.865  1.00  0.00     0.118 A 
ENDROOT
BRANCH   1  11
HETATM   11  N1  UNL     1      24.643   4.374  49.314  1.00  0.00    -0.320 N 
HETATM   12  C7  UNL     1      24.495   5.774  49.503  1.00  0.00     0.300 C 
HETATM   13  O1  UNL     1      24.722   6.375  50.595  1.00  0.00    -0.258 OA
HETATM   14  H10 UNL     1      24.441   3.933  48.390  1.00  0.00     0.169 HD
BRANCH  12  15
HETATM   15  C6  UNL     1      24.058   6.535  48.363  1.00  0.00    -0.005 C 
HETATM   16  C5  UNL     1      23.675   7.173  47.411  1.00  0.00    -0.096 C 
BRANCH  16  17
HETATM   17  C4  UNL     1      23.183   7.941  46.240  1.00  0.00     0.094 C 
BRANCH  17  18
HETATM   18  C3  UNL     1      22.894   7.038  45.079  1.00  0.00     0.012 C 
BRANCH  18  19
HETATM   19  C2  UNL     1      23.670   7.405  43.820  1.00  0.00    -0.004 C 
HETATM   20  C1  UNL     1      24.929   8.159  44.088  1.00  0.00     0.005 C 
ENDBRANCH  18  19
ENDBRANCH  17  18
ENDBRANCH  16  17
ENDBRANCH  12  15
ENDBRANCH   1  11
BRANCH   9  21
HETATM   21  C14 UNL     1      27.124  -0.445  53.065  1.00  0.00     0.059 A 
HETATM   22  C15 UNL     1      27.659  -1.665  52.714  1.00  0.00     0.034 A 
HETATM   23  C16 UNL     1      28.916  -2.060  53.116  1.00  0.00     0.044 A 
HETATM   24  C17 UNL     1      29.717  -1.258  53.895  1.00  0.00     0.116 A 
HETATM   25  F1  UNL     1      30.937  -1.724  54.244  1.00  0.00    -0.206 F 
HETATM   26  C18 UNL     1      29.230  -0.026  54.274  1.00  0.00     0.044 A 
HETATM   27  C19 UNL     1      27.968   0.345  53.858  1.00  0.00     0.034 A 
ENDBRANCH   9  21
TORSDOF 6
ENDMDL
MODEL 5
REMARK VINA RESULT:      -7.8      1.812      2.308
REMARK  6 active torsions:
REMARK  status: ('A' for Active; 'I' for Inactive)
REMARK    1  A    between atoms: C2_2  and  C3_3 
REMARK    2  A    between atoms: C3_3  and  C4_4 
REMARK    3  A    between atoms: C4_4  and  C5_5 
REMARK    4  A    between atoms: C6_6  and  C7_7 
REMARK       I    between atoms: C7_7  and  N1_9 
REMARK    5  A    between atoms: N1_9  and  C8_10 
REMARK    6  A    between atoms: N4_18  and  C14_19 
ROOT
HETATM    1  C8  UNL     1      26.089   3.651  49.956  1.00  0.00     0.018 A 
HETATM    2  C9  UNL     1      24.793   3.858  49.755  1.00  0.00     0.028 A 
HETATM    3  C10 UNL     1      23.800   3.071  50.475  1.00  0.00     0.036 A 
HETATM    4  C11 UNL     1      24.181   2.158  51.324  1.00  0.00     0.084 A 
HETATM    5  C12 UNL     1      25.579   1.890  51.588  1.00  0.00     0.070 A 
HETATM    6  N2  UNL     1      25.851   0.987  52.452  1.00  0.00    -0.242 NA
HETATM    7  C13 UNL     1      24.800   0.268  53.132  1.00  0.00     0.255 A 
HETATM    8  N3  UNL     1      23.551   0.497  52.906  1.00  0.00    -0.160 NA
HETATM    9  N4  UNL     1      23.135   1.465  51.978  1.00  0.00    -0.231 N 
HETATM   10  C20 UNL     1      26.633   2.633  50.892  1.00  0.00     0.118 A 
ENDROOT
BRANCH   1  11
HETATM   11  N1  UNL     1      27.177   4.331  49.334  1.00  0.00    -0.320 N 
HETATM   12  C7  UNL     1      27.292   5.585  48.677  1.00  0.00     0.300 C 
HETATM   13  O1  UNL     1      26.335   6.400  48.519  1.00  0.00    -0.258 OA
HETATM   14  H10 UNL     1      28.002   3.700  49.434  1.00  0.00     0.169 HD
BRANCH  12  15
HETATM   15  C6  UNL     1      28.593   5.928  48.167  1.00  0.00    -0.005 C 
HETATM   16  C5  UNL     1      29.681   6.211  47.723  1.00  0.00    -0.096 C 
BRANCH  16  17
HETATM   17  C4  UNL     1      31.017   6.536  47.163  1.00  0.00     0.094 C 
BRANCH  17  18
HETATM   18  C3  UNL     1      32.055   5.562  47.631  1.00  0.00     0.012 C 
BRANCH  18  19
HETATM   19  C2  UNL     1      31.715   4.113  47.304  1.00  0.00    -0.004 C 
HETATM   20  C1  UNL     1      32.461   3.571  46.131  1.00  0.00     0.005 C 
ENDBRANCH  18  19
ENDBRANCH  17  18
ENDBRANCH  16  17
ENDBRANCH  12  15
ENDBRANCH   1  11
BRANCH   9  21
HETATM   21  C14 UNL     1      21.737   1.592  51.854  1.00  0.00     0.059 A 
HETATM   22  C15 UNL     1      20.876   2.581  52.276  1.00  0.00     0.034 A 
HETATM   23  C16 UNL     1      19.515   2.505  52.078  1.00  0.00     0.044 A 
HETATM   24  C17 UNL     1      18.930   1.433  51.445  1.00  0.00     0.116 A 
HETATM   25  F1  UNL     1      17.587   1.439  51.292  1.00  0.00    -0.206 F 
HETATM   26  C18 UNL     1      19.747   0.415  51.002  1.00  0.00     0.044 A 
HETATM   27  C19 UNL     1      21.106   0.516  51.214  1.00  0.00     0.034 A 
ENDBRANCH   9  21
TORSDOF 6
ENDMDL
MODEL 6
REMARK VINA RESULT:      -7.7      1.801      2.132
REMARK  6 active torsions:
REMARK  status: ('A' for Active; 'I' for Inactive)
REMARK    1  A    between atoms: C2_2  and  C3_3 
REMARK    2  A    between atoms: C3_3  and  C4_4 
REMARK    3  A    between atoms: C4_4  and  C5_5 
REMARK    4  A    between atoms: C6_6  and  C7_7 
REMARK       I    between atoms: C7_7  and  N1_9 
REMARK    5  A    between atoms: N1_9  and  C8_10 
REMARK    6  A    between atoms: N4_18  and  C14_19 
ROOT
HETATM    1  C8  UNL     1      26.118   3.508  49.926  1.00  0.00     0.018 A 
HETATM    2  C9  UNL     1      24.833   3.573  49.601  1.00  0.00     0.028 A 
HETATM    3  C10 UNL     1      23.849   2.770  50.315  1.00  0.00     0.036 A 
HETATM    4  C11 UNL     1      24.228   1.981  51.282  1.00  0.00     0.084 A 
HETATM    5  C12 UNL     1      25.614   1.871  51.684  1.00  0.00     0.070 A 
HETATM    6  N2  UNL     1      25.883   1.083  52.656  1.00  0.00    -0.242 NA
HETATM    7  C13 UNL     1      24.840   0.338  53.319  1.00  0.00     0.255 A 
HETATM    8  N3  UNL     1      23.601   0.427  52.969  1.00  0.00    -0.160 NA
HETATM    9  N4  UNL     1      23.189   1.259  51.917  1.00  0.00    -0.231 N 
HETATM   10  C20 UNL     1      26.660   2.639  51.003  1.00  0.00     0.118 A 
ENDROOT
BRANCH   1  11
HETATM   11  N1  UNL     1      27.195   4.225  49.327  1.00  0.00    -0.320 N 
HETATM   12  C7  UNL     1      27.285   5.485  48.678  1.00  0.00     0.300 C 
HETATM   13  O1  UNL     1      26.305   6.270  48.505  1.00  0.00    -0.258 OA
HETATM   14  H10 UNL     1      28.038   3.619  49.440  1.00  0.00     0.169 HD
BRANCH  12  15
HETATM   15  C6  UNL     1      28.583   5.870  48.194  1.00  0.00    -0.005 C 
HETATM   16  C5  UNL     1      29.667   6.203  47.775  1.00  0.00    -0.096 C 
BRANCH  16  17
HETATM   17  C4  UNL     1      30.989   6.609  47.236  1.00  0.00     0.094 C 
BRANCH  17  18
HETATM   18  C3  UNL     1      31.598   7.705  48.056  1.00  0.00     0.012 C 
BRANCH  18  19
HETATM   19  C2  UNL     1      30.776   8.989  48.055  1.00  0.00    -0.004 C 
HETATM   20  C1  UNL     1      30.562   9.566  49.414  1.00  0.00     0.005 C 
ENDBRANCH  18  19
ENDBRANCH  17  18
ENDBRANCH  16  17
ENDBRANCH  12  15
ENDBRANCH   1  11
BRANCH   9  21
HETATM   21  C14 UNL     1      21.803   1.243  51.667  1.00  0.00     0.059 A 
HETATM   22  C15 UNL     1      21.044   0.467  50.819  1.00  0.00     0.034 A 
HETATM   23  C16 UNL     1      19.681   0.626  50.698  1.00  0.00     0.044 A 
HETATM   24  C17 UNL     1      18.992   1.572  51.420  1.00  0.00     0.116 A 
HETATM   25  F1  UNL     1      17.655   1.660  51.241  1.00  0.00    -0.206 F 
HETATM   26  C18 UNL     1      19.704   2.375  52.285  1.00  0.00     0.044 A 
HETATM   27  C19 UNL     1      21.067   2.195  52.386  1.00  0.00     0.034 A 
ENDBRANCH   9  21
TORSDOF 6
ENDMDL
MODEL 7
REMARK VINA RESULT:      -7.6      3.186      5.135
REMARK  6 active torsions:
REMARK  status: ('A' for Active; 'I' for Inactive)
REMARK    1  A    between atoms: C2_2  and  C3_3 
REMARK    2  A    between atoms: C3_3  and  C4_4 
REMARK    3  A    between atoms: C4_4  and  C5_5 
REMARK    4  A    between atoms: C6_6  and  C7_7 
REMARK       I    between atoms: C7_7  and  N1_9 
REMARK    5  A    between atoms: N1_9  and  C8_10 
REMARK    6  A    between atoms: N4_18  and  C14_19 
ROOT
HETATM    1  C8  UNL     1      27.693   5.586  48.585  1.00  0.00     0.018 A 
HETATM    2  C9  UNL     1      27.327   4.359  48.934  1.00  0.00     0.028 A 
HETATM    3  C10 UNL     1      26.115   4.144  49.714  1.00  0.00     0.036 A 
HETATM    4  C11 UNL     1      25.382   5.160  50.074  1.00  0.00     0.084 A 
HETATM    5  C12 UNL     1      25.728   6.521  49.720  1.00  0.00     0.070 A 
HETATM    6  N2  UNL     1      24.934   7.447  50.104  1.00  0.00    -0.242 NA
HETATM    7  C13 UNL     1      23.744   7.141  50.861  1.00  0.00     0.255 A 
HETATM    8  N3  UNL     1      23.425   5.933  51.183  1.00  0.00    -0.160 NA
HETATM    9  N4  UNL     1      24.220   4.836  50.815  1.00  0.00    -0.231 N 
HETATM   10  C20 UNL     1      26.938   6.814  48.947  1.00  0.00     0.118 A 
ENDROOT
BRANCH   1  11
HETATM   11  N1  UNL     1      28.843   5.959  47.829  1.00  0.00    -0.320 N 
HETATM   12  C7  UNL     1      30.239   5.888  48.080  1.00  0.00     0.300 C 
HETATM   13  O1  UNL     1      30.750   5.426  49.144  1.00  0.00    -0.258 OA
HETATM   14  H10 UNL     1      28.479   6.352  46.932  1.00  0.00     0.169 HD
BRANCH  12  15
HETATM   15  C6  UNL     1      31.106   6.380  47.044  1.00  0.00    -0.005 C 
HETATM   16  C5  UNL     1      31.836   6.809  46.182  1.00  0.00    -0.096 C 
BRANCH  16  17
HETATM   17  C4  UNL     1      32.719   7.358  45.122  1.00  0.00     0.094 C 
BRANCH  17  18
HETATM   18  C3  UNL     1      33.858   6.430  44.828  1.00  0.00     0.012 C 
BRANCH  18  19
HETATM   19  C2  UNL     1      33.409   5.027  44.435  1.00  0.00    -0.004 C 
HETATM   20  C1  UNL     1      33.327   4.814  42.961  1.00  0.00     0.005 C 
ENDBRANCH  18  19
ENDBRANCH  17  18
ENDBRANCH  16  17
ENDBRANCH  12  15
ENDBRANCH   1  11
BRANCH   9  21
HETATM   21  C14 UNL     1      23.727   3.588  51.243  1.00  0.00     0.059 A 
HETATM   22  C15 UNL     1      23.913   2.895  52.419  1.00  0.00     0.034 A 
HETATM   23  C16 UNL     1      23.356   1.654  52.637  1.00  0.00     0.044 A 
HETATM   24  C17 UNL     1      22.579   1.028  51.691  1.00  0.00     0.116 A 
HETATM   25  F1  UNL     1      22.072  -0.189  51.987  1.00  0.00    -0.206 F 
HETATM   26  C18 UNL     1      22.362   1.678  50.495  1.00  0.00     0.044 A 
HETATM   27  C19 UNL     1      22.931   2.920  50.302  1.00  0.00     0.034 A 
ENDBRANCH   9  21
TORSDOF 6
ENDMDL
MODEL 8
REMARK VINA RESULT:      -7.6      2.361      3.594
REMARK  6 active torsions:
REMARK  status: ('A' for Active; 'I' for Inactive)
REMARK    1  A    between atoms: C2_2  and  C3_3 
REMARK    2  A    between atoms: C3_3  and  C4_4 
REMARK    3  A    between atoms: C4_4  and  C5_5 
REMARK    4  A    between atoms: C6_6  and  C7_7 
REMARK       I    between atoms: C7_7  and  N1_9 
REMARK    5  A    between atoms: N1_9  and  C8_10 
REMARK    6  A    between atoms: N4_18  and  C14_19 
ROOT
HETATM    1  C8  UNL     1      26.568   4.516  49.648  1.00  0.00     0.018 A 
HETATM    2  C9  UNL     1      26.315   3.243  49.930  1.00  0.00     0.028 A 
HETATM    3  C10 UNL     1      25.068   2.865  50.580  1.00  0.00     0.036 A 
HETATM    4  C11 UNL     1      24.189   3.777  50.888  1.00  0.00     0.084 A 
HETATM    5  C12 UNL     1      24.406   5.180  50.602  1.00  0.00     0.070 A 
HETATM    6  N2  UNL     1      23.476   5.996  50.926  1.00  0.00    -0.242 NA
HETATM    7  C13 UNL     1      22.262   5.530  51.552  1.00  0.00     0.255 A 
HETATM    8  N3  UNL     1      22.056   4.283  51.812  1.00  0.00    -0.160 NA
HETATM    9  N4  UNL     1      23.007   3.298  51.501  1.00  0.00    -0.231 N 
HETATM   10  C20 UNL     1      25.643   5.636  49.962  1.00  0.00     0.118 A 
ENDROOT
BRANCH   1  11
HETATM   11  N1  UNL     1      27.734   5.044  49.020  1.00  0.00    -0.320 N 
HETATM   12  C7  UNL     1      27.964   6.170  48.186  1.00  0.00     0.300 C 
HETATM   13  O1  UNL     1      27.065   6.985  47.822  1.00  0.00    -0.258 OA
HETATM   14  H10 UNL     1      28.515   4.406  49.287  1.00  0.00     0.169 HD
BRANCH  12  15
HETATM   15  C6  UNL     1      29.316   6.376  47.739  1.00  0.00    -0.005 C 
HETATM   16  C5  UNL     1      30.454   6.531  47.365  1.00  0.00    -0.096 C 
BRANCH  16  17
HETATM   17  C4  UNL     1      31.861   6.705  46.924  1.00  0.00     0.094 C 
BRANCH  17  18
HETATM   18  C3  UNL     1      32.689   5.502  47.261  1.00  0.00     0.012 C 
BRANCH  18  19
HETATM   19  C2  UNL     1      32.681   4.437  46.170  1.00  0.00    -0.004 C 
HETATM   20  C1  UNL     1      31.976   3.183  46.562  1.00  0.00     0.005 C 
ENDBRANCH  18  19
ENDBRANCH  17  18
ENDBRANCH  16  17
ENDBRANCH  12  15
ENDBRANCH   1  11
BRANCH   9  21
HETATM   21  C14 UNL     1      22.624   1.987  51.848  1.00  0.00     0.059 A 
HETATM   22  C15 UNL     1      21.756   1.106  51.240  1.00  0.00     0.034 A 
HETATM   23  C16 UNL     1      21.493  -0.143  51.760  1.00  0.00     0.044 A 
HETATM   24  C17 UNL     1      22.082  -0.587  52.921  1.00  0.00     0.116 A 
HETATM   25  F1  UNL     1      21.767  -1.826  53.360  1.00  0.00    -0.206 F 
HETATM   26  C18 UNL     1      22.959   0.256  53.569  1.00  0.00     0.044 A 
HETATM   27  C19 UNL     1      23.205   1.500  53.027  1.00  0.00     0.034 A 
ENDBRANCH   9  21
TORSDOF 6
ENDMDL
MODEL 9
REMARK VINA RESULT:      -7.5      2.500      3.486
REMARK  6 active torsions:
REMARK  status: ('A' for Active; 'I' for Inactive)
REMARK    1  A    between atoms: C2_2  and  C3_3 
REMARK    2  A    between atoms: C3_3  and  C4_4 
REMARK    3  A    between atoms: C4_4  and  C5_5 
REMARK    4  A    between atoms: C6_6  and  C7_7 
REMARK       I    between atoms: C7_7  and  N1_9 
REMARK    5  A    between atoms: N1_9  and  C8_10 
REMARK    6  A    between atoms: N4_18  and  C14_19 
ROOT
HETATM    1  C8  UNL     1      24.812   4.106  49.862  1.00  0.00     0.018 A 
HETATM    2  C9  UNL     1      24.944   3.572  51.070  1.00  0.00     0.028 A 
HETATM    3  C10 UNL     1      24.053   2.506  51.509  1.00  0.00     0.036 A 
HETATM    4  C11 UNL     1      23.118   2.068  50.713  1.00  0.00     0.084 A 
HETATM    5  C12 UNL     1      22.928   2.607  49.382  1.00  0.00     0.070 A 
HETATM    6  N2  UNL     1      21.995   2.097  48.671  1.00  0.00    -0.242 NA
HETATM    7  C13 UNL     1      21.169   1.029  49.181  1.00  0.00     0.255 A 
HETATM    8  N3  UNL     1      21.329   0.540  50.364  1.00  0.00    -0.160 NA
HETATM    9  N4  UNL     1      22.321   1.021  51.233  1.00  0.00    -0.231 N 
HETATM   10  C20 UNL     1      23.778   3.689  48.879  1.00  0.00     0.118 A 
ENDROOT
BRANCH   1  11
HETATM   11  N1  UNL     1      25.597   5.148  49.289  1.00  0.00    -0.320 N 
HETATM   12  C7  UNL     1      26.932   5.208  48.806  1.00  0.00     0.300 C 
HETATM   13  O1  UNL     1      27.735   4.229  48.805  1.00  0.00    -0.258 OA
HETATM   14  H10 UNL     1      24.980   5.990  49.265  1.00  0.00     0.169 HD
BRANCH  12  15
HETATM   15  C6  UNL     1      27.374   6.476  48.290  1.00  0.00    -0.005 C 
HETATM   16  C5  UNL     1      27.759   7.541  47.868  1.00  0.00    -0.096 C 
BRANCH  16  17
HETATM   17  C4  UNL     1      28.237   8.857  47.374  1.00  0.00     0.094 C 
BRANCH  17  18
HETATM   18  C3  UNL     1      28.378   9.841  48.495  1.00  0.00     0.012 C 
BRANCH  18  19
HETATM   19  C2  UNL     1      29.573   9.561  49.398  1.00  0.00    -0.004 C 
HETATM   20  C1  UNL     1      30.877   9.999  48.821  1.00  0.00     0.005 C 
ENDBRANCH  18  19
ENDBRANCH  17  18
ENDBRANCH  16  17
ENDBRANCH  12  15
ENDBRANCH   1  11
BRANCH   9  21
HETATM   21  C14 UNL     1      22.363   0.376  52.485  1.00  0.00     0.059 A 
HETATM   22  C15 UNL     1      21.390   0.192  53.442  1.00  0.00     0.034 A 
HETATM   23  C16 UNL     1      21.642  -0.454  54.633  1.00  0.00     0.044 A 
HETATM   24  C17 UNL     1      22.885  -0.957  54.939  1.00  0.00     0.116 A 
HETATM   25  F1  UNL     1      23.045  -1.576  56.130  1.00  0.00    -0.206 F 
HETATM   26  C18 UNL     1      23.895  -0.799  54.015  1.00  0.00     0.044 A 
HETATM   27  C19 UNL     1      23.616  -0.148  52.832  1.00  0.00     0.034 A 
ENDBRANCH   9  21
TORSDOF 6
ENDMDL
