MODEL 1
REMARK VINA RESULT:      -8.4      0.000      0.000
REMARK  7 active torsions:
REMARK  status: ('A' for Active; 'I' for Inactive)
REMARK    1  A    between atoms: C4_4  and  C5_5 
REMARK    2  A    between atoms: C4_4  and  C8_8 
REMARK    3  A    between atoms: C5_5  and  C6_6 
REMARK    4  A    between atoms: N3_18  and  C16_19 
REMARK    5  A    between atoms: C16_19  and  C17_20 
REMARK    6  A    between atoms: C17_20  and  C18_21 
REMARK    7  A    between atoms: C18_21  and  N4_22 
ROOT
HETATM    1  C1  UNL     1      21.956   5.182  51.415  1.00  0.00     0.017 C 
HETATM    2  C2  UNL     1      23.007   4.796  51.000  1.00  0.00    -0.088 C 
HETATM    3  C3  UNL     1      24.264   4.311  50.516  1.00  0.00     0.077 C 
HETATM    4  C4  UNL     1      25.182   3.425  50.799  1.00  0.00     0.001 C 
ENDROOT
BRANCH   4   5
HETATM    5  C5  UNL     1      26.128   3.675  49.688  1.00  0.00     0.010 C 
BRANCH   5   6
HETATM    6  C6  UNL     1      26.998   4.372  49.032  1.00  0.00    -0.030 C 
HETATM    7  C7  UNL     1      27.803   5.482  48.494  1.00  0.00     0.036 C 
ENDBRANCH   5   6
ENDBRANCH   4   5
BRANCH   4   8
HETATM    8  C8  UNL     1      25.799   2.434  51.660  1.00  0.00     0.081 A 
HETATM    9  N1  UNL     1      27.113   2.351  51.878  1.00  0.00    -0.240 NA
HETATM   10  C9  UNL     1      27.790   1.525  52.640  1.00  0.00     0.234 A 
HETATM   11  N2  UNL     1      27.041   0.643  53.289  1.00  0.00    -0.241 NA
HETATM   12  C10 UNL     1      25.716   0.558  53.214  1.00  0.00     0.073 A 
HETATM   13  C11 UNL     1      25.089  -0.394  53.982  1.00  0.00     0.071 A 
HETATM   14  C15 UNL     1      25.124   1.479  52.382  1.00  0.00     0.025 A 
HETATM   15  C12 UNL     1      23.713  -0.407  53.897  1.00  0.00     0.098 A 
HETATM   16  C13 UNL     1      23.017   0.493  53.081  1.00  0.00     0.071 A 
HETATM   17  O2  UNL     1      23.056  -1.371  54.674  1.00  0.00    -0.340 OA
HETATM   18  C14 UNL     1      23.750   1.403  52.355  1.00  0.00     0.049 A 
HETATM   19  N3  UNL     1      21.581   0.392  53.069  1.00  0.00    -0.314 N 
HETATM   20  C24 UNL     1      20.945  -0.598  53.867  1.00  0.00     0.248 C 
HETATM   21  O1  UNL     1      19.780  -0.908  53.556  1.00  0.00    -0.271 OA
HETATM   22  C25 UNL     1      21.682  -1.204  55.008  1.00  0.00     0.279 C 
BRANCH  19  23
HETATM   23  C16 UNL     1      20.937   1.361  52.224  1.00  0.00     0.134 C 
BRANCH  23  24
HETATM   24  C17 UNL     1      20.573   0.757  50.907  1.00  0.00     0.050 C 
BRANCH  24  25
HETATM   25  C18 UNL     1      20.081   1.791  49.953  1.00  0.00     0.274 C 
BRANCH  25  26
HETATM   26  N4  UNL     1      20.618   1.715  48.628  1.00  0.00     0.088 N 
HETATM   27  C19 UNL     1      20.073   2.789  47.821  1.00  0.00     0.272 C 
HETATM   28  C20 UNL     1      20.827   4.072  48.024  1.00  0.00     0.030 C 
HETATM   29  C21 UNL     1      22.200   3.941  47.441  1.00  0.00     0.003 C 
HETATM   30  C22 UNL     1      22.628   2.498  47.462  1.00  0.00     0.030 C 
HETATM   31  C23 UNL     1      22.059   1.760  48.671  1.00  0.00     0.272 C 
ENDBRANCH  25  26
ENDBRANCH  24  25
ENDBRANCH  23  24
ENDBRANCH  19  23
ENDBRANCH   4   8
TORSDOF 7
ENDMDL
MODEL 2
REMARK VINA RESULT:      -8.3      2.412      5.537
REMARK  7 active torsions:
REMARK  status: ('A' for Active; 'I' for Inactive)
REMARK    1  A    between atoms: C4_4  and  C5_5 
REMARK    2  A    between atoms: C4_4  and  C8_8 
REMARK    3  A    between atoms: C5_5  and  C6_6 
REMARK    4  A    between atoms: N3_18  and  C16_19 
REMARK    5  A    between atoms: C16_19  and  C17_20 
REMARK    6  A    between atoms: C17_20  and  C18_21 
REMARK    7  A    between atoms: C18_21  and  N4_22 
ROOT
HETATM    1  C1  UNL     1      22.225   4.880  52.203  1.00  0.00     0.017 C 
HETATM    2  C2  UNL     1      21.743   3.800  52.031  1.00  0.00    -0.088 C 
HETATM    3  C3  UNL     1      21.172   2.500  51.850  1.00  0.00     0.077 C 
HETATM    4  C4  UNL     1      21.185   1.308  52.384  1.00  0.00     0.001 C 
ENDROOT
BRANCH   4   5
HETATM    5  C5  UNL     1      20.247   0.611  51.475  1.00  0.00     0.010 C 
BRANCH   5   6
HETATM    6  C6  UNL     1      19.075   0.290  51.031  1.00  0.00    -0.030 C 
HETATM    7  C7  UNL     1      17.789   0.286  50.313  1.00  0.00     0.036 C 
ENDBRANCH   5   6
ENDBRANCH   4   5
BRANCH   4   8
HETATM    8  C8  UNL     1      21.700   0.308  53.300  1.00  0.00     0.081 A 
HETATM    9  N1  UNL     1      20.944  -0.615  53.899  1.00  0.00    -0.240 NA
HETATM   10  C9  UNL     1      21.285  -1.578  54.722  1.00  0.00     0.234 A 
HETATM   11  N2  UNL     1      22.582  -1.632  54.993  1.00  0.00    -0.241 NA
HETATM   12  C10 UNL     1      23.505  -0.810  54.499  1.00  0.00     0.073 A 
HETATM   13  C11 UNL     1      24.814  -1.027  54.855  1.00  0.00     0.071 A 
HETATM   14  C15 UNL     1      23.022   0.156  53.648  1.00  0.00     0.025 A 
HETATM   15  C12 UNL     1      25.730  -0.172  54.280  1.00  0.00     0.098 A 
HETATM   16  C13 UNL     1      25.338   0.841  53.397  1.00  0.00     0.071 A 
HETATM   17  O2  UNL     1      27.071  -0.379  54.629  1.00  0.00    -0.340 OA
HETATM   18  C14 UNL     1      23.997   0.966  53.114  1.00  0.00     0.049 A 
HETATM   19  N3  UNL     1      26.378   1.676  52.853  1.00  0.00    -0.314 N 
HETATM   20  C24 UNL     1      27.729   1.442  53.230  1.00  0.00     0.248 C 
HETATM   21  O1  UNL     1      28.530   2.379  53.060  1.00  0.00    -0.271 OA
HETATM   22  C25 UNL     1      28.112   0.122  53.797  1.00  0.00     0.279 C 
BRANCH  19  23
HETATM   23  C16 UNL     1      25.900   2.679  51.940  1.00  0.00     0.134 C 
BRANCH  23  24
HETATM   24  C17 UNL     1      26.451   2.452  50.570  1.00  0.00     0.050 C 
BRANCH  24  25
HETATM   25  C18 UNL     1      26.254   3.647  49.700  1.00  0.00     0.274 C 
BRANCH  25  26
HETATM   26  N4  UNL     1      25.090   4.431  49.982  1.00  0.00     0.088 N 
HETATM   27  C19 UNL     1      25.443   5.837  49.989  1.00  0.00     0.272 C 
HETATM   28  C20 UNL     1      25.460   6.411  48.601  1.00  0.00     0.030 C 
HETATM   29  C21 UNL     1      24.062   6.466  48.068  1.00  0.00     0.003 C 
HETATM   30  C22 UNL     1      23.227   5.392  48.712  1.00  0.00     0.030 C 
HETATM   31  C23 UNL     1      24.053   4.148  49.022  1.00  0.00     0.272 C 
ENDBRANCH  25  26
ENDBRANCH  24  25
ENDBRANCH  23  24
ENDBRANCH  19  23
ENDBRANCH   4   8
TORSDOF 7
ENDMDL
MODEL 3
REMARK VINA RESULT:      -8.2      2.044      4.350
REMARK  7 active torsions:
REMARK  status: ('A' for Active; 'I' for Inactive)
REMARK    1  A    between atoms: C4_4  and  C5_5 
REMARK    2  A    between atoms: C4_4  and  C8_8 
REMARK    3  A    between atoms: C5_5  and  C6_6 
REMARK    4  A    between atoms: N3_18  and  C16_19 
REMARK    5  A    between atoms: C16_19  and  C17_20 
REMARK    6  A    between atoms: C17_20  and  C18_21 
REMARK    7  A    between atoms: C18_21  and  N4_22 
ROOT
HETATM    1  C1  UNL     1      25.778   3.046  50.573  1.00  0.00     0.017 C 
HETATM    2  C2  UNL     1      26.120   2.080  51.187  1.00  0.00    -0.088 C 
HETATM    3  C3  UNL     1      26.504   0.916  51.926  1.00  0.00     0.077 C 
HETATM    4  C4  UNL     1      26.017   0.056  52.781  1.00  0.00     0.001 C 
ENDROOT
BRANCH   4   5
HETATM    5  C5  UNL     1      27.199  -0.817  52.966  1.00  0.00     0.010 C 
BRANCH   5   6
HETATM    6  C6  UNL     1      28.427  -1.064  53.286  1.00  0.00    -0.030 C 
HETATM    7  C7  UNL     1      29.833  -0.926  53.706  1.00  0.00     0.036 C 
ENDBRANCH   5   6
ENDBRANCH   4   5
BRANCH   4   8
HETATM    8  C8  UNL     1      25.001  -0.416  53.701  1.00  0.00     0.081 A 
HETATM    9  N1  UNL     1      25.266  -0.947  54.897  1.00  0.00    -0.240 NA
HETATM   10  C9  UNL     1      24.448  -1.389  55.822  1.00  0.00     0.234 A 
HETATM   11  N2  UNL     1      23.162  -1.286  55.510  1.00  0.00    -0.241 NA
HETATM   12  C10 UNL     1      22.686  -0.785  54.373  1.00  0.00     0.073 A 
HETATM   13  C11 UNL     1      21.322  -0.718  54.223  1.00  0.00     0.071 A 
HETATM   14  C15 UNL     1      23.644  -0.355  53.485  1.00  0.00     0.025 A 
HETATM   15  C12 UNL     1      20.886  -0.150  53.045  1.00  0.00     0.098 A 
HETATM   16  C13 UNL     1      21.783   0.321  52.079  1.00  0.00     0.071 A 
HETATM   17  O2  UNL     1      19.497  -0.072  52.874  1.00  0.00    -0.340 OA
HETATM   18  C14 UNL     1      23.130   0.201  52.337  1.00  0.00     0.049 A 
HETATM   19  N3  UNL     1      21.219   0.897  50.886  1.00  0.00    -0.314 N 
HETATM   20  C24 UNL     1      19.806   0.960  50.742  1.00  0.00     0.248 C 
HETATM   21  O1  UNL     1      19.364   1.099  49.587  1.00  0.00    -0.271 OA
HETATM   22  C25 UNL     1      18.942   0.856  51.948  1.00  0.00     0.279 C 
BRANCH  19  23
HETATM   23  C16 UNL     1      22.202   1.377  49.951  1.00  0.00     0.134 C 
BRANCH  23  24
HETATM   24  C17 UNL     1      21.837   2.738  49.454  1.00  0.00     0.050 C 
BRANCH  24  25
HETATM   25  C18 UNL     1      22.041   3.773  50.507  1.00  0.00     0.274 C 
BRANCH  25  26
HETATM   26  N4  UNL     1      22.160   5.119  50.035  1.00  0.00     0.088 N 
HETATM   27  C19 UNL     1      22.418   6.004  51.155  1.00  0.00     0.272 C 
HETATM   28  C20 UNL     1      23.877   6.030  51.514  1.00  0.00     0.030 C 
HETATM   29  C21 UNL     1      24.646   6.710  50.424  1.00  0.00     0.003 C 
HETATM   30  C22 UNL     1      23.928   6.545  49.112  1.00  0.00     0.030 C 
HETATM   31  C23 UNL     1      23.195   5.209  49.036  1.00  0.00     0.272 C 
ENDBRANCH  25  26
ENDBRANCH  24  25
ENDBRANCH  23  24
ENDBRANCH  19  23
ENDBRANCH   4   8
TORSDOF 7
ENDMDL
MODEL 4
REMARK VINA RESULT:      -8.1      1.244      2.405
REMARK  7 active torsions:
REMARK  status: ('A' for Active; 'I' for Inactive)
REMARK    1  A    between atoms: C4_4  and  C5_5 
REMARK    2  A    between atoms: C4_4  and  C8_8 
REMARK    3  A    between atoms: C5_5  and  C6_6 
REMARK    4  A    between atoms: N3_18  and  C16_19 
REMARK    5  A    between atoms: C16_19  and  C17_20 
REMARK    6  A    between atoms: C17_20  and  C18_21 
REMARK    7  A    between atoms: C18_21  and  N4_22 
ROOT
HETATM    1  C1  UNL     1      22.132   2.029  48.071  1.00  0.00     0.017 C 
HETATM    2  C2  UNL     1      23.097   2.575  48.515  1.00  0.00    -0.088 C 
HETATM    3  C3  UNL     1      24.262   3.207  49.056  1.00  0.00     0.077 C 
HETATM    4  C4  UNL     1      25.179   3.022  49.968  1.00  0.00     0.001 C 
ENDROOT
BRANCH   4   5
HETATM    5  C5  UNL     1      25.986   4.248  49.770  1.00  0.00     0.010 C 
BRANCH   5   6
HETATM    6  C6  UNL     1      26.350   5.314  49.134  1.00  0.00    -0.030 C 
HETATM    7  C7  UNL     1      27.146   6.353  48.458  1.00  0.00     0.036 C 
ENDBRANCH   5   6
ENDBRANCH   4   5
BRANCH   4   8
HETATM    8  C8  UNL     1      25.745   2.329  51.110  1.00  0.00     0.081 A 
HETATM    9  N1  UNL     1      27.026   2.415  51.474  1.00  0.00    -0.240 NA
HETATM   10  C9  UNL     1      27.653   1.863  52.486  1.00  0.00     0.234 A 
HETATM   11  N2  UNL     1      26.884   1.107  53.258  1.00  0.00    -0.241 NA
HETATM   12  C10 UNL     1      25.584   0.892  53.072  1.00  0.00     0.073 A 
HETATM   13  C11 UNL     1      24.926   0.108  53.988  1.00  0.00     0.071 A 
HETATM   14  C15 UNL     1      25.044   1.527  51.978  1.00  0.00     0.025 A 
HETATM   15  C12 UNL     1      23.573  -0.045  53.770  1.00  0.00     0.098 A 
HETATM   16  C13 UNL     1      22.930   0.564  52.686  1.00  0.00     0.071 A 
HETATM   17  O2  UNL     1      22.884  -0.841  54.695  1.00  0.00    -0.340 OA
HETATM   18  C14 UNL     1      23.691   1.328  51.831  1.00  0.00     0.049 A 
HETATM   19  N3  UNL     1      21.513   0.340  52.553  1.00  0.00    -0.314 N 
HETATM   20  C24 UNL     1      20.844  -0.475  53.508  1.00  0.00     0.248 C 
HETATM   21  O1  UNL     1      19.745  -0.951  53.168  1.00  0.00    -0.271 OA
HETATM   22  C25 UNL     1      21.473  -0.716  54.833  1.00  0.00     0.279 C 
BRANCH  19  23
HETATM   23  C16 UNL     1      20.920   1.013  51.430  1.00  0.00     0.134 C 
BRANCH  23  24
HETATM   24  C17 UNL     1      20.275   2.291  51.860  1.00  0.00     0.050 C 
BRANCH  24  25
HETATM   25  C18 UNL     1      20.401   3.342  50.810  1.00  0.00     0.274 C 
BRANCH  25  26
HETATM   26  N4  UNL     1      20.508   4.686  51.292  1.00  0.00     0.088 N 
HETATM   27  C19 UNL     1      21.477   4.739  52.370  1.00  0.00     0.272 C 
HETATM   28  C20 UNL     1      22.881   4.844  51.848  1.00  0.00     0.030 C 
HETATM   29  C21 UNL     1      23.079   6.186  51.215  1.00  0.00     0.003 C 
HETATM   30  C22 UNL     1      21.763   6.707  50.700  1.00  0.00     0.030 C 
HETATM   31  C23 UNL     1      20.862   5.576  50.215  1.00  0.00     0.272 C 
ENDBRANCH  25  26
ENDBRANCH  24  25
ENDBRANCH  23  24
ENDBRANCH  19  23
ENDBRANCH   4   8
TORSDOF 7
ENDMDL
MODEL 5
REMARK VINA RESULT:      -7.8      2.097      3.927
REMARK  7 active torsions:
REMARK  status: ('A' for Active; 'I' for Inactive)
REMARK    1  A    between atoms: C4_4  and  C5_5 
REMARK    2  A    between atoms: C4_4  and  C8_8 
REMARK    3  A    between atoms: C5_5  and  C6_6 
REMARK    4  A    between atoms: N3_18  and  C16_19 
REMARK    5  A    between atoms: C16_19  and  C17_20 
REMARK    6  A    between atoms: C17_20  and  C18_21 
REMARK    7  A    between atoms: C18_21  and  N4_22 
ROOT
HETATM    1  C1  UNL     1      24.934   3.472  51.120  1.00  0.00     0.017 C 
HETATM    2  C2  UNL     1      25.383   2.458  51.564  1.00  0.00    -0.088 C 
HETATM    3  C3  UNL     1      25.896   1.234  52.101  1.00  0.00     0.077 C 
HETATM    4  C4  UNL     1      25.543   0.247  52.880  1.00  0.00     0.001 C 
ENDROOT
BRANCH   4   5
HETATM    5  C5  UNL     1      26.776  -0.571  52.830  1.00  0.00     0.010 C 
BRANCH   5   6
HETATM    6  C6  UNL     1      28.000  -0.856  53.138  1.00  0.00    -0.030 C 
HETATM    7  C7  UNL     1      29.295  -1.540  53.294  1.00  0.00     0.036 C 
ENDBRANCH   5   6
ENDBRANCH   4   5
BRANCH   4   8
HETATM    8  C8  UNL     1      24.653  -0.397  53.827  1.00  0.00     0.081 A 
HETATM    9  N1  UNL     1      25.052  -0.927  54.985  1.00  0.00    -0.240 NA
HETATM   10  C9  UNL     1      24.355  -1.513  55.928  1.00  0.00     0.234 A 
HETATM   11  N2  UNL     1      23.053  -1.582  55.682  1.00  0.00    -0.241 NA
HETATM   12  C10 UNL     1      22.452  -1.114  54.592  1.00  0.00     0.073 A 
HETATM   13  C11 UNL     1      21.086  -1.235  54.509  1.00  0.00     0.071 A 
HETATM   14  C15 UNL     1      23.292  -0.521  53.678  1.00  0.00     0.025 A 
HETATM   15  C12 UNL     1      20.512  -0.694  53.379  1.00  0.00     0.098 A 
HETATM   16  C13 UNL     1      21.282  -0.067  52.392  1.00  0.00     0.071 A 
HETATM   17  O2  UNL     1      19.119  -0.807  53.278  1.00  0.00    -0.340 OA
HETATM   18  C14 UNL     1      22.644  -0.004  52.580  1.00  0.00     0.049 A 
HETATM   19  N3  UNL     1      20.581   0.466  51.252  1.00  0.00    -0.314 N 
HETATM   20  C24 UNL     1      19.167   0.332  51.179  1.00  0.00     0.248 C 
HETATM   21  O1  UNL     1      18.649   0.449  50.053  1.00  0.00    -0.271 OA
HETATM   22  C25 UNL     1      18.392   0.065  52.419  1.00  0.00     0.279 C 
BRANCH  19  23
HETATM   23  C16 UNL     1      21.436   1.112  50.293  1.00  0.00     0.134 C 
BRANCH  23  24
HETATM   24  C17 UNL     1      21.344   2.598  50.421  1.00  0.00     0.050 C 
BRANCH  24  25
HETATM   25  C18 UNL     1      21.009   3.236  49.116  1.00  0.00     0.274 C 
BRANCH  25  26
HETATM   26  N4  UNL     1      22.123   3.724  48.362  1.00  0.00     0.088 N 
HETATM   27  C19 UNL     1      22.135   3.098  47.054  1.00  0.00     0.272 C 
HETATM   28  C20 UNL     1      21.215   3.799  46.097  1.00  0.00     0.030 C 
HETATM   29  C21 UNL     1      21.769   5.153  45.774  1.00  0.00     0.003 C 
HETATM   30  C22 UNL     1      22.608   5.648  46.922  1.00  0.00     0.030 C 
HETATM   31  C23 UNL     1      22.069   5.161  48.264  1.00  0.00     0.272 C 
ENDBRANCH  25  26
ENDBRANCH  24  25
ENDBRANCH  23  24
ENDBRANCH  19  23
ENDBRANCH   4   8
TORSDOF 7
ENDMDL
MODEL 6
REMARK VINA RESULT:      -7.7      2.651      8.016
REMARK  7 active torsions:
REMARK  status: ('A' for Active; 'I' for Inactive)
REMARK    1  A    between atoms: C4_4  and  C5_5 
REMARK    2  A    between atoms: C4_4  and  C8_8 
REMARK    3  A    between atoms: C5_5  and  C6_6 
REMARK    4  A    between atoms: N3_18  and  C16_19 
REMARK    5  A    between atoms: C16_19  and  C17_20 
REMARK    6  A    between atoms: C17_20  and  C18_21 
REMARK    7  A    between atoms: C18_21  and  N4_22 
ROOT
HETATM    1  C1  UNL     1      23.295  -0.890  54.456  1.00  0.00     0.017 C 
HETATM    2  C2  UNL     1      22.135  -0.992  54.190  1.00  0.00    -0.088 C 
HETATM    3  C3  UNL     1      20.751  -1.107  53.847  1.00  0.00     0.077 C 
HETATM    4  C4  UNL     1      19.901  -0.718  52.934  1.00  0.00     0.001 C 
ENDROOT
BRANCH   4   5
HETATM    5  C5  UNL     1      18.668  -1.364  53.442  1.00  0.00     0.010 C 
BRANCH   5   6
HETATM    6  C6  UNL     1      17.809  -2.326  53.532  1.00  0.00    -0.030 C 
HETATM    7  C7  UNL     1      17.180  -3.657  53.600  1.00  0.00     0.036 C 
ENDBRANCH   5   6
ENDBRANCH   4   5
BRANCH   4   8
HETATM    8  C8  UNL     1      19.512   0.078  51.786  1.00  0.00     0.081 A 
HETATM    9  N1  UNL     1      18.268   0.138  51.306  1.00  0.00    -0.240 NA
HETATM   10  C9  UNL     1      17.786   0.826  50.299  1.00  0.00     0.234 A 
HETATM   11  N2  UNL     1      18.683   1.574  49.669  1.00  0.00    -0.241 NA
HETATM   12  C10 UNL     1      19.972   1.660  49.988  1.00  0.00     0.073 A 
HETATM   13  C11 UNL     1      20.760   2.512  49.253  1.00  0.00     0.071 A 
HETATM   14  C15 UNL     1      20.353   0.891  51.063  1.00  0.00     0.025 A 
HETATM   15  C12 UNL     1      22.075   2.593  49.656  1.00  0.00     0.098 A 
HETATM   16  C13 UNL     1      22.560   1.852  50.741  1.00  0.00     0.071 A 
HETATM   17  O2  UNL     1      22.895   3.458  48.919  1.00  0.00    -0.340 OA
HETATM   18  C14 UNL     1      21.678   1.029  51.404  1.00  0.00     0.049 A 
HETATM   19  N3  UNL     1      23.951   2.014  51.077  1.00  0.00    -0.314 N 
HETATM   20  C24 UNL     1      24.756   2.898  50.308  1.00  0.00     0.248 C 
HETATM   21  O1  UNL     1      25.988   2.733  50.369  1.00  0.00    -0.271 OA
HETATM   22  C25 UNL     1      24.105   3.951  49.484  1.00  0.00     0.279 C 
BRANCH  19  23
HETATM   23  C16 UNL     1      24.369   1.238  52.213  1.00  0.00     0.134 C 
BRANCH  23  24
HETATM   24  C17 UNL     1      24.900   2.125  53.292  1.00  0.00     0.050 C 
BRANCH  24  25
HETATM   25  C18 UNL     1      26.091   1.520  53.955  1.00  0.00     0.274 C 
BRANCH  25  26
HETATM   26  N4  UNL     1      27.004   0.843  53.085  1.00  0.00     0.088 N 
HETATM   27  C19 UNL     1      28.288   1.517  53.111  1.00  0.00     0.272 C 
HETATM   28  C20 UNL     1      29.120   1.079  54.282  1.00  0.00     0.030 C 
HETATM   29  C21 UNL     1      29.545  -0.344  54.087  1.00  0.00     0.003 C 
HETATM   30  C22 UNL     1      28.538  -1.065  53.232  1.00  0.00     0.030 C 
HETATM   31  C23 UNL     1      27.124  -0.542  53.466  1.00  0.00     0.272 C 
ENDBRANCH  25  26
ENDBRANCH  24  25
ENDBRANCH  23  24
ENDBRANCH  19  23
ENDBRANCH   4   8
TORSDOF 7
ENDMDL
MODEL 7
REMARK VINA RESULT:      -7.6      2.909      7.937
REMARK  7 active torsions:
REMARK  status: ('A' for Active; 'I' for Inactive)
REMARK    1  A    between atoms: C4_4  and  C5_5 
REMARK    2  A    between atoms: C4_4  and  C8_8 
REMARK    3  A    between atoms: C5_5  and  C6_6 
REMARK    4  A    between atoms: N3_18  and  C16_19 
REMARK    5  A    between atoms: C16_19  and  C17_20 
REMARK    6  A    between atoms: C17_20  and  C18_21 
REMARK    7  A    between atoms: C18_21  and  N4_22 
ROOT
HETATM    1  C1  UNL     1      22.245  -0.813  54.769  1.00  0.00     0.017 C 
HETATM    2  C2  UNL     1      21.240  -0.672  54.139  1.00  0.00    -0.088 C 
HETATM    3  C3  UNL     1      20.047  -0.484  53.370  1.00  0.00     0.077 C 
HETATM    4  C4  UNL     1      19.484   0.388  52.577  1.00  0.00     0.001 C 
ENDROOT
BRANCH   4   5
HETATM    5  C5  UNL     1      18.228  -0.330  52.259  1.00  0.00     0.010 C 
BRANCH   5   6
HETATM    6  C6  UNL     1      17.324  -1.237  52.445  1.00  0.00    -0.030 C 
HETATM    7  C7  UNL     1      16.073  -2.013  52.407  1.00  0.00     0.036 C 
ENDBRANCH   5   6
ENDBRANCH   4   5
BRANCH   4   8
HETATM    8  C8  UNL     1      19.388   1.693  51.951  1.00  0.00     0.081 A 
HETATM    9  N1  UNL     1      18.241   2.352  51.771  1.00  0.00    -0.240 NA
HETATM   10  C9  UNL     1      18.022   3.533  51.244  1.00  0.00     0.234 A 
HETATM   11  N2  UNL     1      19.117   4.159  50.831  1.00  0.00    -0.241 NA
HETATM   12  C10 UNL     1      20.355   3.679  50.920  1.00  0.00     0.073 A 
HETATM   13  C11 UNL     1      21.384   4.474  50.476  1.00  0.00     0.071 A 
HETATM   14  C15 UNL     1      20.452   2.432  51.492  1.00  0.00     0.025 A 
HETATM   15  C12 UNL     1      22.647   3.945  50.633  1.00  0.00     0.098 A 
HETATM   16  C13 UNL     1      22.851   2.685  51.207  1.00  0.00     0.071 A 
HETATM   17  O2  UNL     1      23.710   4.742  50.186  1.00  0.00    -0.340 OA
HETATM   18  C14 UNL     1      21.744   1.976  51.616  1.00  0.00     0.049 A 
HETATM   19  N3  UNL     1      24.212   2.229  51.324  1.00  0.00    -0.314 N 
HETATM   20  C24 UNL     1      25.268   3.061  50.859  1.00  0.00     0.248 C 
HETATM   21  O1  UNL     1      26.358   2.507  50.624  1.00  0.00    -0.271 OA
HETATM   22  C25 UNL     1      25.027   4.517  50.677  1.00  0.00     0.279 C 
BRANCH  19  23
HETATM   23  C16 UNL     1      24.342   0.937  51.941  1.00  0.00     0.134 C 
BRANCH  23  24
HETATM   24  C17 UNL     1      25.020   1.051  53.268  1.00  0.00     0.050 C 
BRANCH  24  25
HETATM   25  C18 UNL     1      25.819  -0.169  53.576  1.00  0.00     0.274 C 
BRANCH  25  26
HETATM   26  N4  UNL     1      27.022  -0.328  52.816  1.00  0.00     0.088 N 
HETATM   27  C19 UNL     1      27.966   0.711  53.180  1.00  0.00     0.272 C 
HETATM   28  C20 UNL     1      28.733   0.353  54.420  1.00  0.00     0.030 C 
HETATM   29  C21 UNL     1      29.659  -0.787  54.122  1.00  0.00     0.003 C 
HETATM   30  C22 UNL     1      29.099  -1.618  52.999  1.00  0.00     0.030 C 
HETATM   31  C23 UNL     1      27.574  -1.644  53.024  1.00  0.00     0.272 C 
ENDBRANCH  25  26
ENDBRANCH  24  25
ENDBRANCH  23  24
ENDBRANCH  19  23
ENDBRANCH   4   8
TORSDOF 7
ENDMDL
MODEL 8
REMARK VINA RESULT:      -7.6      3.123      8.362
REMARK  7 active torsions:
REMARK  status: ('A' for Active; 'I' for Inactive)
REMARK    1  A    between atoms: C4_4  and  C5_5 
REMARK    2  A    between atoms: C4_4  and  C8_8 
REMARK    3  A    between atoms: C5_5  and  C6_6 
REMARK    4  A    between atoms: N3_18  and  C16_19 
REMARK    5  A    between atoms: C16_19  and  C17_20 
REMARK    6  A    between atoms: C17_20  and  C18_21 
REMARK    7  A    between atoms: C18_21  and  N4_22 
ROOT
HETATM    1  C1  UNL     1      21.996  -0.916  54.684  1.00  0.00     0.017 C 
HETATM    2  C2  UNL     1      20.907  -1.266  54.340  1.00  0.00    -0.088 C 
HETATM    3  C3  UNL     1      19.603  -1.667  53.907  1.00  0.00     0.077 C 
HETATM    4  C4  UNL     1      18.606  -1.242  53.178  1.00  0.00     0.001 C 
ENDROOT
BRANCH   4   5
HETATM    5  C5  UNL     1      17.677  -2.386  53.326  1.00  0.00     0.010 C 
BRANCH   5   6
HETATM    6  C6  UNL     1      17.362  -3.598  53.651  1.00  0.00    -0.030 C 
HETATM    7  C7  UNL     1      16.630  -4.858  53.866  1.00  0.00     0.036 C 
ENDBRANCH   5   6
ENDBRANCH   4   5
BRANCH   4   8
HETATM    8  C8  UNL     1      17.902  -0.229  52.416  1.00  0.00     0.081 A 
HETATM    9  N1  UNL     1      16.574  -0.106  52.387  1.00  0.00    -0.240 NA
HETATM   10  C9  UNL     1      15.822   0.770  51.762  1.00  0.00     0.234 A 
HETATM   11  N2  UNL     1      16.499   1.665  51.055  1.00  0.00    -0.241 NA
HETATM   12  C10 UNL     1      17.825   1.720  50.954  1.00  0.00     0.073 A 
HETATM   13  C11 UNL     1      18.369   2.737  50.207  1.00  0.00     0.071 A 
HETATM   14  C15 UNL     1      18.499   0.749  51.655  1.00  0.00     0.025 A 
HETATM   15  C12 UNL     1      19.747   2.770  50.172  1.00  0.00     0.098 A 
HETATM   16  C13 UNL     1      20.523   1.827  50.856  1.00  0.00     0.071 A 
HETATM   17  O2  UNL     1      20.321   3.801  49.416  1.00  0.00    -0.340 OA
HETATM   18  C14 UNL     1      19.868   0.852  51.573  1.00  0.00     0.049 A 
HETATM   19  N3  UNL     1      21.954   1.956  50.754  1.00  0.00    -0.314 N 
HETATM   20  C24 UNL     1      22.505   3.012  49.977  1.00  0.00     0.248 C 
HETATM   21  O1  UNL     1      23.684   2.877  49.601  1.00  0.00    -0.271 OA
HETATM   22  C25 UNL     1      21.667   4.198  49.654  1.00  0.00     0.279 C 
BRANCH  19  23
HETATM   23  C16 UNL     1      22.682   0.965  51.499  1.00  0.00     0.134 C 
BRANCH  23  24
HETATM   24  C17 UNL     1      23.331   1.577  52.698  1.00  0.00     0.050 C 
BRANCH  24  25
HETATM   25  C18 UNL     1      24.816   1.469  52.626  1.00  0.00     0.274 C 
BRANCH  25  26
HETATM   26  N4  UNL     1      25.433   0.727  53.683  1.00  0.00     0.088 N 
HETATM   27  C19 UNL     1      25.475  -0.679  53.328  1.00  0.00     0.272 C 
HETATM   28  C20 UNL     1      26.656  -0.994  52.455  1.00  0.00     0.030 C 
HETATM   29  C21 UNL     1      27.916  -0.859  53.252  1.00  0.00     0.003 C 
HETATM   30  C22 UNL     1      27.713   0.136  54.363  1.00  0.00     0.030 C 
HETATM   31  C23 UNL     1      26.750   1.246  53.955  1.00  0.00     0.272 C 
ENDBRANCH  25  26
ENDBRANCH  24  25
ENDBRANCH  23  24
ENDBRANCH  19  23
ENDBRANCH   4   8
TORSDOF 7
ENDMDL
MODEL 9
REMARK VINA RESULT:      -7.5      2.390      6.157
REMARK  7 active torsions:
REMARK  status: ('A' for Active; 'I' for Inactive)
REMARK    1  A    between atoms: C4_4  and  C5_5 
REMARK    2  A    between atoms: C4_4  and  C8_8 
REMARK    3  A    between atoms: C5_5  and  C6_6 
REMARK    4  A    between atoms: N3_18  and  C16_19 
REMARK    5  A    between atoms: C16_19  and  C17_20 
REMARK    6  A    between atoms: C17_20  and  C18_21 
REMARK    7  A    between atoms: C18_21  and  N4_22 
ROOT
HETATM    1  C1  UNL     1      26.772   2.894  49.434  1.00  0.00     0.017 C 
HETATM    2  C2  UNL     1      26.375   4.014  49.562  1.00  0.00    -0.088 C 
HETATM    3  C3  UNL     1      25.879   5.346  49.729  1.00  0.00     0.077 C 
HETATM    4  C4  UNL     1      24.778   5.984  50.027  1.00  0.00     0.001 C 
ENDROOT
BRANCH   4   5
HETATM    5  C5  UNL     1      25.265   7.380  49.955  1.00  0.00     0.010 C 
BRANCH   5   6
HETATM    6  C6  UNL     1      26.120   8.329  50.162  1.00  0.00    -0.030 C 
HETATM    7  C7  UNL     1      27.333   9.164  50.156  1.00  0.00     0.036 C 
ENDBRANCH   5   6
ENDBRANCH   4   5
BRANCH   4   8
HETATM    8  C8  UNL     1      23.351   6.051  50.274  1.00  0.00     0.081 A 
HETATM    9  N1  UNL     1      22.578   7.075  49.905  1.00  0.00    -0.240 NA
HETATM   10  C9  UNL     1      21.285   7.249  50.049  1.00  0.00     0.234 A 
HETATM   11  N2  UNL     1      20.663   6.245  50.653  1.00  0.00    -0.241 NA
HETATM   12  C10 UNL     1      21.246   5.134  51.094  1.00  0.00     0.073 A 
HETATM   13  C11 UNL     1      20.448   4.175  51.667  1.00  0.00     0.071 A 
HETATM   14  C15 UNL     1      22.604   5.072  50.884  1.00  0.00     0.025 A 
HETATM   15  C12 UNL     1      21.099   3.027  52.067  1.00  0.00     0.098 A 
HETATM   16  C13 UNL     1      22.479   2.866  51.893  1.00  0.00     0.071 A 
HETATM   17  O2  UNL     1      20.300   2.036  52.653  1.00  0.00    -0.340 OA
HETATM   18  C14 UNL     1      23.179   3.896  51.307  1.00  0.00     0.049 A 
HETATM   19  N3  UNL     1      23.057   1.627  52.345  1.00  0.00    -0.314 N 
HETATM   20  C24 UNL     1      22.219   0.642  52.938  1.00  0.00     0.248 C 
HETATM   21  O1  UNL     1      22.777  -0.219  53.643  1.00  0.00    -0.271 OA
HETATM   22  C25 UNL     1      20.753   0.687  52.696  1.00  0.00     0.279 C 
BRANCH  19  23
HETATM   23  C16 UNL     1      24.473   1.527  52.115  1.00  0.00     0.134 C 
BRANCH  23  24
HETATM   24  C17 UNL     1      25.237   1.927  53.335  1.00  0.00     0.050 C 
BRANCH  24  25
HETATM   25  C18 UNL     1      26.700   2.002  53.060  1.00  0.00     0.274 C 
BRANCH  25  26
HETATM   26  N4  UNL     1      27.540   1.310  53.989  1.00  0.00     0.088 N 
HETATM   27  C19 UNL     1      27.023  -0.027  54.207  1.00  0.00     0.272 C 
HETATM   28  C20 UNL     1      27.474  -0.977  53.135  1.00  0.00     0.030 C 
HETATM   29  C21 UNL     1      28.947  -1.212  53.264  1.00  0.00     0.003 C 
HETATM   30  C22 UNL     1      29.601  -0.014  53.899  1.00  0.00     0.030 C 
HETATM   31  C23 UNL     1      28.899   1.283  53.510  1.00  0.00     0.272 C 
ENDBRANCH  25  26
ENDBRANCH  24  25
ENDBRANCH  23  24
ENDBRANCH  19  23
ENDBRANCH   4   8
TORSDOF 7
ENDMDL
