MODEL 1
REMARK VINA RESULT:      -8.3      0.000      0.000
REMARK  9 active torsions:
REMARK  status: ('A' for Active; 'I' for Inactive)
REMARK    1  A    between atoms: C4_6  and  N3_7 
REMARK    2  A    between atoms: C7_11  and  O1_12 
REMARK    3  A    between atoms: O1_12  and  C8_13 
REMARK    4  A    between atoms: C8_13  and  C9_14 
REMARK    5  A    between atoms: C17_23  and  C18_24 
REMARK    6  A    between atoms: C18_24  and  O2_25 
REMARK    7  A    between atoms: O2_25  and  C19_26 
REMARK    8  A    between atoms: C19_26  and  C20_27 
REMARK    9  A    between atoms: C20_27  and  N4_28 
ROOT
HETATM    1  C1  UNL     1      28.283   6.150  48.186  1.00  0.00     0.071 C 
HETATM    2  C2  UNL     1      27.044   6.571  48.893  1.00  0.00     0.044 A 
HETATM    3  N1  UNL     1      26.706   7.865  49.083  1.00  0.00    -0.246 NA
HETATM    4  C3  UNL     1      25.561   8.155  49.736  1.00  0.00     0.235 A 
HETATM    5  N2  UNL     1      24.727   7.206  50.213  1.00  0.00    -0.224 NA
HETATM    6  C4  UNL     1      25.034   5.896  50.040  1.00  0.00     0.141 A 
HETATM    7  C17 UNL     1      26.197   5.598  49.377  1.00  0.00     0.036 A 
ENDROOT
BRANCH   6   8
HETATM    8  N3  UNL     1      24.062   5.021  50.575  1.00  0.00    -0.336 N 
HETATM    9  C5  UNL     1      23.343   4.382  49.499  1.00  0.00     0.119 A 
HETATM   10  C6  UNL     1      22.364   3.499  49.659  1.00  0.00     0.082 A 
HETATM   11 CL1  UNL     1      21.471   2.704  48.381  1.00  0.00    -0.080 Cl
HETATM   12  C7  UNL     1      21.947   3.118  51.017  1.00  0.00     0.090 A 
HETATM   13  C15 UNL     1      22.620   3.719  51.984  1.00  0.00     0.032 A 
HETATM   14  C16 UNL     1      23.723   4.711  51.949  1.00  0.00     0.160 A 
BRANCH  12  15
HETATM   15  O1  UNL     1      20.945   2.215  51.339  1.00  0.00    -0.345 OA
BRANCH  15  16
HETATM   16  C8  UNL     1      20.370   2.177  52.634  1.00  0.00     0.214 C 
BRANCH  16  17
HETATM   17  C9  UNL     1      20.535   0.814  53.204  1.00  0.00    -0.031 A 
HETATM   18  C10 UNL     1      21.780   0.536  53.760  1.00  0.00     0.009 A 
HETATM   19  C11 UNL     1      22.044  -0.715  54.324  1.00  0.00     0.004 A 
HETATM   20  C12 UNL     1      21.081  -1.707  54.345  1.00  0.00     0.042 A 
HETATM   21  C13 UNL     1      19.859  -1.372  53.776  1.00  0.00     0.117 A 
HETATM   22  F1  UNL     1      18.918  -2.360  53.805  1.00  0.00    -0.206 F 
HETATM   23  C14 UNL     1      19.557  -0.167  53.215  1.00  0.00     0.051 A 
ENDBRANCH  16  17
ENDBRANCH  15  16
ENDBRANCH  12  15
ENDBRANCH   6   8
BRANCH   7  24
HETATM   24  C18 UNL     1      26.568   4.168  49.181  1.00  0.00     0.212 C 
BRANCH  24  25
HETATM   25  O2  UNL     1      27.172   3.619  50.275  1.00  0.00    -0.385 OA
BRANCH  25  26
HETATM   26  C19 UNL     1      26.593   2.519  50.858  1.00  0.00     0.187 C 
BRANCH  26  27
HETATM   27  C20 UNL     1      27.031   2.329  52.253  1.00  0.00     0.143 C 
BRANCH  27  28
HETATM   28  N4  UNL     1      27.264   0.961  52.631  1.00  0.00    -0.406 N 
HETATM   29  C21 UNL     1      26.357  -0.009  52.180  1.00  0.00     0.143 C 
HETATM   30  C22 UNL     1      25.757  -0.924  53.204  1.00  0.00     0.187 C 
HETATM   31  O3  UNL     1      26.507  -1.035  54.361  1.00  0.00    -0.388 OA
HETATM   32  C23 UNL     1      26.923   0.193  54.855  1.00  0.00     0.187 C 
HETATM   33  C24 UNL     1      27.920   0.750  53.866  1.00  0.00     0.143 C 
ENDBRANCH  27  28
ENDBRANCH  26  27
ENDBRANCH  25  26
ENDBRANCH  24  25
ENDBRANCH   7  24
TORSDOF 9
ENDMDL
MODEL 2
REMARK VINA RESULT:      -8.2      3.046      6.827
REMARK  9 active torsions:
REMARK  status: ('A' for Active; 'I' for Inactive)
REMARK    1  A    between atoms: C4_6  and  N3_7 
REMARK    2  A    between atoms: C7_11  and  O1_12 
REMARK    3  A    between atoms: O1_12  and  C8_13 
REMARK    4  A    between atoms: C8_13  and  C9_14 
REMARK    5  A    between atoms: C17_23  and  C18_24 
REMARK    6  A    between atoms: C18_24  and  O2_25 
REMARK    7  A    between atoms: O2_25  and  C19_26 
REMARK    8  A    between atoms: C19_26  and  C20_27 
REMARK    9  A    between atoms: C20_27  and  N4_28 
ROOT
HETATM    1  C1  UNL     1      21.289  -1.525  54.578  1.00  0.00     0.071 C 
HETATM    2  C2  UNL     1      20.497  -0.695  53.632  1.00  0.00     0.044 A 
HETATM    3  N1  UNL     1      19.200  -0.941  53.342  1.00  0.00    -0.246 NA
HETATM    4  C3  UNL     1      18.559  -0.134  52.471  1.00  0.00     0.235 A 
HETATM    5  N2  UNL     1      19.155   0.917  51.868  1.00  0.00    -0.224 NA
HETATM    6  C4  UNL     1      20.456   1.194  52.136  1.00  0.00     0.141 A 
HETATM    7  C17 UNL     1      21.110   0.376  53.021  1.00  0.00     0.036 A 
ENDROOT
BRANCH   6   8
HETATM    8  N3  UNL     1      20.936   2.331  51.448  1.00  0.00    -0.336 N 
HETATM    9  C5  UNL     1      21.314   1.959  50.106  1.00  0.00     0.119 A 
HETATM   10  C6  UNL     1      21.802   2.793  49.196  1.00  0.00     0.082 A 
HETATM   11 CL1  UNL     1      22.270   2.380  47.560  1.00  0.00    -0.080 Cl
HETATM   12  C7  UNL     1      21.991   4.211  49.539  1.00  0.00     0.090 A 
HETATM   13  C15 UNL     1      21.639   4.525  50.775  1.00  0.00     0.032 A 
HETATM   14  C16 UNL     1      21.086   3.705  51.881  1.00  0.00     0.160 A 
BRANCH  12  15
HETATM   15  O1  UNL     1      22.489   5.195  48.698  1.00  0.00    -0.345 OA
BRANCH  15  16
HETATM   16  C8  UNL     1      23.430   6.151  49.152  1.00  0.00     0.214 C 
BRANCH  16  17
HETATM   17  C9  UNL     1      24.795   5.567  49.083  1.00  0.00    -0.031 A 
HETATM   18  C10 UNL     1      25.791   6.406  48.592  1.00  0.00     0.009 A 
HETATM   19  C11 UNL     1      27.110   5.958  48.485  1.00  0.00     0.004 A 
HETATM   20  C12 UNL     1      27.462   4.675  48.862  1.00  0.00     0.042 A 
HETATM   21  C13 UNL     1      26.427   3.884  49.345  1.00  0.00     0.117 A 
HETATM   22  F1  UNL     1      26.789   2.621  49.714  1.00  0.00    -0.206 F 
HETATM   23  C14 UNL     1      25.128   4.278  49.467  1.00  0.00     0.051 A 
ENDBRANCH  16  17
ENDBRANCH  15  16
ENDBRANCH  12  15
ENDBRANCH   6   8
BRANCH   7  24
HETATM   24  C18 UNL     1      22.544   0.647  53.327  1.00  0.00     0.212 C 
BRANCH  24  25
HETATM   25  O2  UNL     1      23.380   0.320  52.299  1.00  0.00    -0.385 OA
BRANCH  25  26
HETATM   26  C19 UNL     1      24.365   1.211  51.950  1.00  0.00     0.187 C 
BRANCH  26  27
HETATM   27  C20 UNL     1      25.249   1.540  53.084  1.00  0.00     0.143 C 
BRANCH  27  28
HETATM   28  N4  UNL     1      26.593   1.041  52.966  1.00  0.00    -0.406 N 
HETATM   29  C21 UNL     1      26.793  -0.141  52.237  1.00  0.00     0.143 C 
HETATM   30  C22 UNL     1      27.558  -1.243  52.904  1.00  0.00     0.187 C 
HETATM   31  O3  UNL     1      28.377  -0.812  53.932  1.00  0.00    -0.388 OA
HETATM   32  C23 UNL     1      27.737   0.059  54.803  1.00  0.00     0.187 C 
HETATM   33  C24 UNL     1      27.471   1.332  54.035  1.00  0.00     0.143 C 
ENDBRANCH  27  28
ENDBRANCH  26  27
ENDBRANCH  25  26
ENDBRANCH  24  25
ENDBRANCH   7  24
TORSDOF 9
ENDMDL
MODEL 3
REMARK VINA RESULT:      -8.0      3.444      7.634
REMARK  9 active torsions:
REMARK  status: ('A' for Active; 'I' for Inactive)
REMARK    1  A    between atoms: C4_6  and  N3_7 
REMARK    2  A    between atoms: C7_11  and  O1_12 
REMARK    3  A    between atoms: O1_12  and  C8_13 
REMARK    4  A    between atoms: C8_13  and  C9_14 
REMARK    5  A    between atoms: C17_23  and  C18_24 
REMARK    6  A    between atoms: C18_24  and  O2_25 
REMARK    7  A    between atoms: O2_25  and  C19_26 
REMARK    8  A    between atoms: C19_26  and  C20_27 
REMARK    9  A    between atoms: C20_27  and  N4_28 
ROOT
HETATM    1  C1  UNL     1      21.056  -2.028  54.244  1.00  0.00     0.071 C 
HETATM    2  C2  UNL     1      20.766  -0.757  53.529  1.00  0.00     0.044 A 
HETATM    3  N1  UNL     1      19.522  -0.242  53.415  1.00  0.00    -0.246 NA
HETATM    4  C3  UNL     1      19.353   0.919  52.746  1.00  0.00     0.235 A 
HETATM    5  N2  UNL     1      20.374   1.597  52.181  1.00  0.00    -0.224 NA
HETATM    6  C4  UNL     1      21.636   1.109  52.276  1.00  0.00     0.141 A 
HETATM    7  C17 UNL     1      21.812  -0.070  52.954  1.00  0.00     0.036 A 
ENDROOT
BRANCH   6   8
HETATM    8  N3  UNL     1      22.600   1.934  51.653  1.00  0.00    -0.336 N 
HETATM    9  C5  UNL     1      22.353   1.977  50.232  1.00  0.00     0.119 A 
HETATM   10  C6  UNL     1      23.075   2.665  49.356  1.00  0.00     0.082 A 
HETATM   11 CL1  UNL     1      22.807   2.742  47.628  1.00  0.00    -0.080 Cl
HETATM   12  C7  UNL     1      24.226   3.453  49.825  1.00  0.00     0.090 A 
HETATM   13  C15 UNL     1      24.430   3.396  51.131  1.00  0.00     0.032 A 
HETATM   14  C16 UNL     1      23.710   2.678  52.212  1.00  0.00     0.160 A 
BRANCH  12  15
HETATM   15  O1  UNL     1      25.069   4.217  49.033  1.00  0.00    -0.345 OA
BRANCH  15  16
HETATM   16  C8  UNL     1      25.308   5.586  49.310  1.00  0.00     0.214 C 
BRANCH  16  17
HETATM   17  C9  UNL     1      26.687   5.939  48.881  1.00  0.00    -0.031 A 
HETATM   18  C10 UNL     1      26.982   7.298  48.847  1.00  0.00     0.009 A 
HETATM   19  C11 UNL     1      28.249   7.742  48.457  1.00  0.00     0.004 A 
HETATM   20  C12 UNL     1      29.239   6.848  48.097  1.00  0.00     0.042 A 
HETATM   21  C13 UNL     1      28.887   5.505  48.151  1.00  0.00     0.117 A 
HETATM   22  F1  UNL     1      29.875   4.634  47.793  1.00  0.00    -0.206 F 
HETATM   23  C14 UNL     1      27.666   5.027  48.523  1.00  0.00     0.051 A 
ENDBRANCH  16  17
ENDBRANCH  15  16
ENDBRANCH  12  15
ENDBRANCH   6   8
BRANCH   7  24
HETATM   24  C18 UNL     1      23.186  -0.637  53.065  1.00  0.00     0.212 C 
BRANCH  24  25
HETATM   25  O2  UNL     1      23.883  -0.144  54.130  1.00  0.00    -0.385 OA
BRANCH  25  26
HETATM   26  C19 UNL     1      25.234  -0.382  54.193  1.00  0.00     0.187 C 
BRANCH  26  27
HETATM   27  C20 UNL     1      25.829  -0.582  52.858  1.00  0.00     0.143 C 
BRANCH  27  28
HETATM   28  N4  UNL     1      27.154  -0.043  52.701  1.00  0.00    -0.406 N 
HETATM   29  C21 UNL     1      28.191  -0.623  53.446  1.00  0.00     0.143 C 
HETATM   30  C22 UNL     1      29.048   0.292  54.266  1.00  0.00     0.187 C 
HETATM   31  O3  UNL     1      29.039   1.606  53.831  1.00  0.00    -0.388 OA
HETATM   32  C23 UNL     1      27.760   2.081  53.578  1.00  0.00     0.187 C 
HETATM   33  C24 UNL     1      27.242   1.330  52.374  1.00  0.00     0.143 C 
ENDBRANCH  27  28
ENDBRANCH  26  27
ENDBRANCH  25  26
ENDBRANCH  24  25
ENDBRANCH   7  24
TORSDOF 9
ENDMDL
MODEL 4
REMARK VINA RESULT:      -8.0      3.034      6.680
REMARK  9 active torsions:
REMARK  status: ('A' for Active; 'I' for Inactive)
REMARK    1  A    between atoms: C4_6  and  N3_7 
REMARK    2  A    between atoms: C7_11  and  O1_12 
REMARK    3  A    between atoms: O1_12  and  C8_13 
REMARK    4  A    between atoms: C8_13  and  C9_14 
REMARK    5  A    between atoms: C17_23  and  C18_24 
REMARK    6  A    between atoms: C18_24  and  O2_25 
REMARK    7  A    between atoms: O2_25  and  C19_26 
REMARK    8  A    between atoms: C19_26  and  C20_27 
REMARK    9  A    between atoms: C20_27  and  N4_28 
ROOT
HETATM    1  C1  UNL     1      18.910   5.430  48.747  1.00  0.00     0.071 C 
HETATM    2  C2  UNL     1      19.147   4.644  49.987  1.00  0.00     0.044 A 
HETATM    3  N1  UNL     1      18.153   4.071  50.700  1.00  0.00    -0.246 NA
HETATM    4  C3  UNL     1      18.462   3.375  51.814  1.00  0.00     0.235 A 
HETATM    5  N2  UNL     1      19.728   3.221  52.257  1.00  0.00    -0.224 NA
HETATM    6  C4  UNL     1      20.752   3.782  51.565  1.00  0.00     0.141 A 
HETATM    7  C17 UNL     1      20.442   4.490  50.432  1.00  0.00     0.036 A 
ENDROOT
BRANCH   6   8
HETATM    8  N3  UNL     1      22.018   3.521  52.137  1.00  0.00    -0.336 N 
HETATM    9  C5  UNL     1      22.223   2.096  52.226  1.00  0.00     0.119 A 
HETATM   10  C6  UNL     1      23.312   1.514  52.715  1.00  0.00     0.082 A 
HETATM   11 CL1  UNL     1      23.597  -0.208  52.840  1.00  0.00    -0.080 Cl
HETATM   12  C7  UNL     1      24.417   2.348  53.216  1.00  0.00     0.090 A 
HETATM   13  C15 UNL     1      24.202   3.650  53.123  1.00  0.00     0.032 A 
HETATM   14  C16 UNL     1      23.048   4.425  52.605  1.00  0.00     0.160 A 
BRANCH  12  15
HETATM   15  O1  UNL     1      25.609   1.886  53.751  1.00  0.00    -0.345 OA
BRANCH  15  16
HETATM   16  C8  UNL     1      26.843   2.065  53.078  1.00  0.00     0.214 C 
BRANCH  16  17
HETATM   17  C9  UNL     1      27.627   0.804  53.149  1.00  0.00    -0.031 A 
HETATM   18  C10 UNL     1      28.945   0.933  53.575  1.00  0.00     0.009 A 
HETATM   19  C11 UNL     1      29.773  -0.188  53.678  1.00  0.00     0.004 A 
HETATM   20  C12 UNL     1      29.307  -1.451  53.361  1.00  0.00     0.042 A 
HETATM   21  C13 UNL     1      27.985  -1.518  52.942  1.00  0.00     0.117 A 
HETATM   22  F1  UNL     1      27.539  -2.771  52.634  1.00  0.00    -0.206 F 
HETATM   23  C14 UNL     1      27.142  -0.453  52.826  1.00  0.00     0.051 A 
ENDBRANCH  16  17
ENDBRANCH  15  16
ENDBRANCH  12  15
ENDBRANCH   6   8
BRANCH   7  24
HETATM   24  C18 UNL     1      21.544   5.128  49.659  1.00  0.00     0.212 C 
BRANCH  24  25
HETATM   25  O2  UNL     1      22.346   4.223  49.026  1.00  0.00    -0.385 OA
BRANCH  25  26
HETATM   26  C19 UNL     1      23.571   4.643  48.571  1.00  0.00     0.187 C 
BRANCH  26  27
HETATM   27  C20 UNL     1      24.686   4.033  49.321  1.00  0.00     0.143 C 
BRANCH  27  28
HETATM   28  N4  UNL     1      25.680   4.963  49.786  1.00  0.00    -0.406 N 
HETATM   29  C21 UNL     1      25.238   6.142  50.404  1.00  0.00     0.143 C 
HETATM   30  C22 UNL     1      25.777   7.440  49.883  1.00  0.00     0.187 C 
HETATM   31  O3  UNL     1      26.978   7.315  49.208  1.00  0.00    -0.388 OA
HETATM   32  C23 UNL     1      26.975   6.277  48.287  1.00  0.00     0.187 C 
HETATM   33  C24 UNL     1      26.902   4.990  49.075  1.00  0.00     0.143 C 
ENDBRANCH  27  28
ENDBRANCH  26  27
ENDBRANCH  25  26
ENDBRANCH  24  25
ENDBRANCH   7  24
TORSDOF 9
ENDMDL
MODEL 5
REMARK VINA RESULT:      -7.9      3.629      7.867
REMARK  9 active torsions:
REMARK  status: ('A' for Active; 'I' for Inactive)
REMARK    1  A    between atoms: C4_6  and  N3_7 
REMARK    2  A    between atoms: C7_11  and  O1_12 
REMARK    3  A    between atoms: O1_12  and  C8_13 
REMARK    4  A    between atoms: C8_13  and  C9_14 
REMARK    5  A    between atoms: C17_23  and  C18_24 
REMARK    6  A    between atoms: C18_24  and  O2_25 
REMARK    7  A    between atoms: O2_25  and  C19_26 
REMARK    8  A    between atoms: C19_26  and  C20_27 
REMARK    9  A    between atoms: C20_27  and  N4_28 
ROOT
HETATM    1  C1  UNL     1      18.130  -2.256  53.623  1.00  0.00     0.071 C 
HETATM    2  C2  UNL     1      18.049  -0.998  52.834  1.00  0.00     0.044 A 
HETATM    3  N1  UNL     1      16.887  -0.498  52.361  1.00  0.00    -0.246 NA
HETATM    4  C3  UNL     1      16.909   0.652  51.653  1.00  0.00     0.235 A 
HETATM    5  N2  UNL     1      18.045   1.334  51.393  1.00  0.00    -0.224 NA
HETATM    6  C4  UNL     1      19.230   0.861  51.854  1.00  0.00     0.141 A 
HETATM    7  C17 UNL     1      19.212  -0.307  52.573  1.00  0.00     0.036 A 
ENDROOT
BRANCH   6   8
HETATM    8  N3  UNL     1      20.326   1.687  51.520  1.00  0.00    -0.336 N 
HETATM    9  C5  UNL     1      20.741   1.415  50.165  1.00  0.00     0.119 A 
HETATM   10  C6  UNL     1      21.744   2.022  49.541  1.00  0.00     0.082 A 
HETATM   11 CL1  UNL     1      22.275   1.720  47.901  1.00  0.00    -0.080 Cl
HETATM   12  C7  UNL     1      22.519   3.055  50.248  1.00  0.00     0.090 A 
HETATM   13  C15 UNL     1      22.118   3.283  51.488  1.00  0.00     0.032 A 
HETATM   14  C16 UNL     1      21.028   2.687  52.299  1.00  0.00     0.160 A 
BRANCH  12  15
HETATM   15  O1  UNL     1      23.587   3.771  49.730  1.00  0.00    -0.345 OA
BRANCH  15  16
HETATM   16  C8  UNL     1      24.553   4.373  50.572  1.00  0.00     0.214 C 
BRANCH  16  17
HETATM   17  C9  UNL     1      25.588   5.036  49.736  1.00  0.00    -0.031 A 
HETATM   18  C10 UNL     1      25.322   6.352  49.371  1.00  0.00     0.009 A 
HETATM   19  C11 UNL     1      26.227   7.069  48.585  1.00  0.00     0.004 A 
HETATM   20  C12 UNL     1      27.407   6.495  48.149  1.00  0.00     0.042 A 
HETATM   21  C13 UNL     1      27.619   5.180  48.544  1.00  0.00     0.117 A 
HETATM   22  F1  UNL     1      28.787   4.627  48.108  1.00  0.00    -0.206 F 
HETATM   23  C14 UNL     1      26.765   4.442  49.309  1.00  0.00     0.051 A 
ENDBRANCH  16  17
ENDBRANCH  15  16
ENDBRANCH  12  15
ENDBRANCH   6   8
BRANCH   7  24
HETATM   24  C18 UNL     1      20.500  -0.858  53.082  1.00  0.00     0.212 C 
BRANCH  24  25
HETATM   25  O2  UNL     1      20.915  -0.264  54.237  1.00  0.00    -0.385 OA
BRANCH  25  26
HETATM   26  C19 UNL     1      22.063  -0.725  54.833  1.00  0.00     0.187 C 
BRANCH  26  27
HETATM   27  C20 UNL     1      23.107  -1.064  53.847  1.00  0.00     0.143 C 
BRANCH  27  28
HETATM   28  N4  UNL     1      24.236  -0.172  53.833  1.00  0.00    -0.406 N 
HETATM   29  C21 UNL     1      24.285   0.810  52.832  1.00  0.00     0.143 C 
HETATM   30  C22 UNL     1      25.535   0.896  52.010  1.00  0.00     0.187 C 
HETATM   31  O3  UNL     1      26.648   0.354  52.627  1.00  0.00    -0.388 OA
HETATM   32  C23 UNL     1      26.404  -0.896  53.179  1.00  0.00     0.187 C 
HETATM   33  C24 UNL     1      25.454  -0.687  54.335  1.00  0.00     0.143 C 
ENDBRANCH  27  28
ENDBRANCH  26  27
ENDBRANCH  25  26
ENDBRANCH  24  25
ENDBRANCH   7  24
TORSDOF 9
ENDMDL
MODEL 6
REMARK VINA RESULT:      -7.8      3.943      8.372
REMARK  9 active torsions:
REMARK  status: ('A' for Active; 'I' for Inactive)
REMARK    1  A    between atoms: C4_6  and  N3_7 
REMARK    2  A    between atoms: C7_11  and  O1_12 
REMARK    3  A    between atoms: O1_12  and  C8_13 
REMARK    4  A    between atoms: C8_13  and  C9_14 
REMARK    5  A    between atoms: C17_23  and  C18_24 
REMARK    6  A    between atoms: C18_24  and  O2_25 
REMARK    7  A    between atoms: O2_25  and  C19_26 
REMARK    8  A    between atoms: C19_26  and  C20_27 
REMARK    9  A    between atoms: C20_27  and  N4_28 
ROOT
HETATM    1  C1  UNL     1      16.133   1.255  51.221  1.00  0.00     0.071 C 
HETATM    2  C2  UNL     1      17.030   0.332  51.967  1.00  0.00     0.044 A 
HETATM    3  N1  UNL     1      16.578  -0.731  52.668  1.00  0.00    -0.246 NA
HETATM    4  C3  UNL     1      17.466  -1.515  53.315  1.00  0.00     0.235 A 
HETATM    5  N2  UNL     1      18.796  -1.289  53.297  1.00  0.00    -0.224 NA
HETATM    6  C4  UNL     1      19.286  -0.231  52.602  1.00  0.00     0.141 A 
HETATM    7  C17 UNL     1      18.387   0.568  51.944  1.00  0.00     0.036 A 
ENDROOT
BRANCH   6   8
HETATM    8  N3  UNL     1      20.694  -0.132  52.659  1.00  0.00    -0.336 N 
HETATM    9  C5  UNL     1      21.172  -0.730  53.882  1.00  0.00     0.119 A 
HETATM   10  C6  UNL     1      22.447  -0.806  54.244  1.00  0.00     0.082 A 
HETATM   11 CL1  UNL     1      23.063  -1.522  55.717  1.00  0.00    -0.080 Cl
HETATM   12  C7  UNL     1      23.485  -0.249  53.362  1.00  0.00     0.090 A 
HETATM   13  C15 UNL     1      23.021   0.294  52.249  1.00  0.00     0.032 A 
HETATM   14  C16 UNL     1      21.640   0.444  51.725  1.00  0.00     0.160 A 
BRANCH  12  15
HETATM   15  O1  UNL     1      24.850  -0.253  53.605  1.00  0.00    -0.345 OA
BRANCH  15  16
HETATM   16  C8  UNL     1      25.746   0.505  52.812  1.00  0.00     0.214 C 
BRANCH  16  17
HETATM   17  C9  UNL     1      27.137   0.049  53.071  1.00  0.00    -0.031 A 
HETATM   18  C10 UNL     1      28.052   1.046  53.394  1.00  0.00     0.009 A 
HETATM   19  C11 UNL     1      29.387   0.729  53.656  1.00  0.00     0.004 A 
HETATM   20  C12 UNL     1      29.835  -0.578  53.604  1.00  0.00     0.042 A 
HETATM   21  C13 UNL     1      28.877  -1.530  53.278  1.00  0.00     0.117 A 
HETATM   22  F1  UNL     1      29.332  -2.816  53.230  1.00  0.00    -0.206 F 
HETATM   23  C14 UNL     1      27.565  -1.267  53.013  1.00  0.00     0.051 A 
ENDBRANCH  16  17
ENDBRANCH  15  16
ENDBRANCH  12  15
ENDBRANCH   6   8
BRANCH   7  24
HETATM   24  C18 UNL     1      18.894   1.745  51.182  1.00  0.00     0.212 C 
BRANCH  24  25
HETATM   25  O2  UNL     1      18.984   2.874  51.943  1.00  0.00    -0.385 OA
BRANCH  25  26
HETATM   26  C19 UNL     1      19.659   3.954  51.430  1.00  0.00     0.187 C 
BRANCH  26  27
HETATM   27  C20 UNL     1      21.076   3.976  51.842  1.00  0.00     0.143 C 
BRANCH  27  28
HETATM   28  N4  UNL     1      21.995   4.397  50.819  1.00  0.00    -0.406 N 
HETATM   29  C21 UNL     1      23.209   3.704  50.701  1.00  0.00     0.143 C 
HETATM   30  C22 UNL     1      24.470   4.514  50.701  1.00  0.00     0.187 C 
HETATM   31  O3  UNL     1      24.286   5.835  50.332  1.00  0.00    -0.388 OA
HETATM   32  C23 UNL     1      23.214   6.432  50.980  1.00  0.00     0.187 C 
HETATM   33  C24 UNL     1      21.960   5.765  50.462  1.00  0.00     0.143 C 
ENDBRANCH  27  28
ENDBRANCH  26  27
ENDBRANCH  25  26
ENDBRANCH  24  25
ENDBRANCH   7  24
TORSDOF 9
ENDMDL
MODEL 7
REMARK VINA RESULT:      -7.7      3.959      8.011
REMARK  9 active torsions:
REMARK  status: ('A' for Active; 'I' for Inactive)
REMARK    1  A    between atoms: C4_6  and  N3_7 
REMARK    2  A    between atoms: C7_11  and  O1_12 
REMARK    3  A    between atoms: O1_12  and  C8_13 
REMARK    4  A    between atoms: C8_13  and  C9_14 
REMARK    5  A    between atoms: C17_23  and  C18_24 
REMARK    6  A    between atoms: C18_24  and  O2_25 
REMARK    7  A    between atoms: O2_25  and  C19_26 
REMARK    8  A    between atoms: C19_26  and  C20_27 
REMARK    9  A    between atoms: C20_27  and  N4_28 
ROOT
HETATM    1  C1  UNL     1      22.298  -0.042  52.587  1.00  0.00     0.071 C 
HETATM    2  C2  UNL     1      22.234   0.895  51.434  1.00  0.00     0.044 A 
HETATM    3  N1  UNL     1      21.243   0.870  50.516  1.00  0.00    -0.246 NA
HETATM    4  C3  UNL     1      21.267   1.761  49.501  1.00  0.00     0.235 A 
HETATM    5  N2  UNL     1      22.241   2.684  49.357  1.00  0.00    -0.224 NA
HETATM    6  C4  UNL     1      23.252   2.739  50.261  1.00  0.00     0.141 A 
HETATM    7  C17 UNL     1      23.231   1.836  51.293  1.00  0.00     0.036 A 
ENDROOT
BRANCH   6   8
HETATM    8  N3  UNL     1      24.185   3.765  49.991  1.00  0.00    -0.336 N 
HETATM    9  C5  UNL     1      23.672   5.024  50.475  1.00  0.00     0.119 A 
HETATM   10  C6  UNL     1      24.303   6.188  50.381  1.00  0.00     0.082 A 
HETATM   11 CL1  UNL     1      23.715   7.733  50.955  1.00  0.00    -0.080 Cl
HETATM   12  C7  UNL     1      25.627   6.245  49.740  1.00  0.00     0.090 A 
HETATM   13  C15 UNL     1      26.073   5.078  49.305  1.00  0.00     0.032 A 
HETATM   14  C16 UNL     1      25.480   3.719  49.344  1.00  0.00     0.160 A 
BRANCH  12  15
HETATM   15  O1  UNL     1      26.402   7.382  49.570  1.00  0.00    -0.345 OA
BRANCH  15  16
HETATM   16  C8  UNL     1      27.044   7.664  48.339  1.00  0.00     0.214 C 
BRANCH  16  17
HETATM   17  C9  UNL     1      28.488   7.915  48.585  1.00  0.00    -0.031 A 
HETATM   18  C10 UNL     1      29.358   6.908  48.176  1.00  0.00     0.009 A 
HETATM   19  C11 UNL     1      30.736   7.040  48.360  1.00  0.00     0.004 A 
HETATM   20  C12 UNL     1      31.274   8.170  48.949  1.00  0.00     0.042 A 
HETATM   21  C13 UNL     1      30.358   9.141  49.336  1.00  0.00     0.117 A 
HETATM   22  F1  UNL     1      30.903  10.250  49.915  1.00  0.00    -0.206 F 
HETATM   23  C14 UNL     1      29.007   9.054  49.178  1.00  0.00     0.051 A 
ENDBRANCH  16  17
ENDBRANCH  15  16
ENDBRANCH  12  15
ENDBRANCH   6   8
BRANCH   7  24
HETATM   24  C18 UNL     1      24.334   1.863  52.295  1.00  0.00     0.212 C 
BRANCH  24  25
HETATM   25  O2  UNL     1      25.522   1.416  51.793  1.00  0.00    -0.385 OA
BRANCH  25  26
HETATM   26  C19 UNL     1      26.685   1.888  52.350  1.00  0.00     0.187 C 
BRANCH  26  27
HETATM   27  C20 UNL     1      26.701   1.740  53.818  1.00  0.00     0.143 C 
BRANCH  27  28
HETATM   28  N4  UNL     1      27.309   0.526  54.295  1.00  0.00    -0.406 N 
HETATM   29  C21 UNL     1      28.707   0.489  54.404  1.00  0.00     0.143 C 
HETATM   30  C22 UNL     1      29.422  -0.649  53.741  1.00  0.00     0.187 C 
HETATM   31  O3  UNL     1      28.627  -1.760  53.527  1.00  0.00    -0.388 OA
HETATM   32  C23 UNL     1      27.397  -1.444  52.967  1.00  0.00     0.187 C 
HETATM   33  C24 UNL     1      26.621  -0.677  54.013  1.00  0.00     0.143 C 
ENDBRANCH  27  28
ENDBRANCH  26  27
ENDBRANCH  25  26
ENDBRANCH  24  25
ENDBRANCH   7  24
TORSDOF 9
ENDMDL
MODEL 8
REMARK VINA RESULT:      -7.7      3.525      8.743
REMARK  9 active torsions:
REMARK  status: ('A' for Active; 'I' for Inactive)
REMARK    1  A    between atoms: C4_6  and  N3_7 
REMARK    2  A    between atoms: C7_11  and  O1_12 
REMARK    3  A    between atoms: O1_12  and  C8_13 
REMARK    4  A    between atoms: C8_13  and  C9_14 
REMARK    5  A    between atoms: C17_23  and  C18_24 
REMARK    6  A    between atoms: C18_24  and  O2_25 
REMARK    7  A    between atoms: O2_25  and  C19_26 
REMARK    8  A    between atoms: C19_26  and  C20_27 
REMARK    9  A    between atoms: C20_27  and  N4_28 
ROOT
HETATM    1  C1  UNL     1      20.646  -1.767  54.221  1.00  0.00     0.071 C 
HETATM    2  C2  UNL     1      22.062  -1.426  54.523  1.00  0.00     0.044 A 
HETATM    3  N1  UNL     1      22.688  -1.811  55.657  1.00  0.00    -0.246 NA
HETATM    4  C3  UNL     1      23.976  -1.456  55.847  1.00  0.00     0.235 A 
HETATM    5  N2  UNL     1      24.678  -0.728  54.951  1.00  0.00    -0.224 NA
HETATM    6  C4  UNL     1      24.081  -0.325  53.801  1.00  0.00     0.141 A 
HETATM    7  C17 UNL     1      22.772  -0.684  53.605  1.00  0.00     0.036 A 
ENDROOT
BRANCH   6   8
HETATM    8  N3  UNL     1      24.942   0.410  52.956  1.00  0.00    -0.336 N 
HETATM    9  C5  UNL     1      24.468   1.768  52.848  1.00  0.00     0.119 A 
HETATM   10  C6  UNL     1      25.051   2.722  52.131  1.00  0.00     0.082 A 
HETATM   11 CL1  UNL     1      24.507   4.378  51.976  1.00  0.00    -0.080 Cl
HETATM   12  C7  UNL     1      26.272   2.413  51.371  1.00  0.00     0.090 A 
HETATM   13  C15 UNL     1      26.684   1.161  51.486  1.00  0.00     0.032 A 
HETATM   14  C16 UNL     1      26.137   0.008  52.244  1.00  0.00     0.160 A 
BRANCH  12  15
HETATM   15  O1  UNL     1      26.988   3.299  50.581  1.00  0.00    -0.345 OA
BRANCH  15  16
HETATM   16  C8  UNL     1      26.603   3.581  49.247  1.00  0.00     0.214 C 
BRANCH  16  17
HETATM   17  C9  UNL     1      27.027   4.961  48.895  1.00  0.00    -0.031 A 
HETATM   18  C10 UNL     1      28.345   5.102  48.472  1.00  0.00     0.009 A 
HETATM   19  C11 UNL     1      28.849   6.355  48.117  1.00  0.00     0.004 A 
HETATM   20  C12 UNL     1      28.056   7.487  48.175  1.00  0.00     0.042 A 
HETATM   21  C13 UNL     1      26.750   7.286  48.603  1.00  0.00     0.117 A 
HETATM   22  F1  UNL     1      25.980   8.411  48.655  1.00  0.00    -0.206 F 
HETATM   23  C14 UNL     1      26.217   6.083  48.960  1.00  0.00     0.051 A 
ENDBRANCH  16  17
ENDBRANCH  15  16
ENDBRANCH  12  15
ENDBRANCH   6   8
BRANCH   7  24
HETATM   24  C18 UNL     1      22.086  -0.246  52.356  1.00  0.00     0.212 C 
BRANCH  24  25
HETATM   25  O2  UNL     1      21.273   0.834  52.545  1.00  0.00    -0.385 OA
BRANCH  25  26
HETATM   26  C19 UNL     1      21.228   1.796  51.567  1.00  0.00     0.187 C 
BRANCH  26  27
HETATM   27  C20 UNL     1      21.963   1.393  50.353  1.00  0.00     0.143 C 
BRANCH  27  28
HETATM   28  N4  UNL     1      22.119   2.432  49.370  1.00  0.00    -0.406 N 
HETATM   29  C21 UNL     1      21.839   3.751  49.758  1.00  0.00     0.143 C 
HETATM   30  C22 UNL     1      20.884   4.533  48.908  1.00  0.00     0.187 C 
HETATM   31  O3  UNL     1      20.773   4.061  47.612  1.00  0.00    -0.388 OA
HETATM   32  C23 UNL     1      20.607   2.684  47.553  1.00  0.00     0.187 C 
HETATM   33  C24 UNL     1      21.903   2.064  48.022  1.00  0.00     0.143 C 
ENDBRANCH  27  28
ENDBRANCH  26  27
ENDBRANCH  25  26
ENDBRANCH  24  25
ENDBRANCH   7  24
TORSDOF 9
ENDMDL
MODEL 9
REMARK VINA RESULT:      -7.7      3.999      6.491
REMARK  9 active torsions:
REMARK  status: ('A' for Active; 'I' for Inactive)
REMARK    1  A    between atoms: C4_6  and  N3_7 
REMARK    2  A    between atoms: C7_11  and  O1_12 
REMARK    3  A    between atoms: O1_12  and  C8_13 
REMARK    4  A    between atoms: C8_13  and  C9_14 
REMARK    5  A    between atoms: C17_23  and  C18_24 
REMARK    6  A    between atoms: C18_24  and  O2_25 
REMARK    7  A    between atoms: O2_25  and  C19_26 
REMARK    8  A    between atoms: C19_26  and  C20_27 
REMARK    9  A    between atoms: C20_27  and  N4_28 
ROOT
HETATM    1  C1  UNL     1      26.138   9.076  47.249  1.00  0.00     0.071 C 
HETATM    2  C2  UNL     1      25.257   7.929  47.596  1.00  0.00     0.044 A 
HETATM    3  N1  UNL     1      23.966   7.846  47.208  1.00  0.00    -0.246 NA
HETATM    4  C3  UNL     1      23.241   6.766  47.570  1.00  0.00     0.235 A 
HETATM    5  N2  UNL     1      23.747   5.755  48.307  1.00  0.00    -0.224 NA
HETATM    6  C4  UNL     1      25.041   5.804  48.713  1.00  0.00     0.141 A 
HETATM    7  C17 UNL     1      25.780   6.900  48.348  1.00  0.00     0.036 A 
ENDROOT
BRANCH   6   8
HETATM    8  N3  UNL     1      25.433   4.671  49.459  1.00  0.00    -0.336 N 
HETATM    9  C5  UNL     1      24.522   4.478  50.561  1.00  0.00     0.119 A 
HETATM   10  C6  UNL     1      24.606   3.500  51.455  1.00  0.00     0.082 A 
HETATM   11 CL1  UNL     1      23.521   3.234  52.802  1.00  0.00    -0.080 Cl
HETATM   12  C7  UNL     1      25.697   2.517  51.353  1.00  0.00     0.090 A 
HETATM   13  C15 UNL     1      26.518   2.717  50.335  1.00  0.00     0.032 A 
HETATM   14  C16 UNL     1      26.540   3.755  49.275  1.00  0.00     0.160 A 
BRANCH  12  15
HETATM   15  O1  UNL     1      25.913   1.447  52.207  1.00  0.00    -0.345 OA
BRANCH  15  16
HETATM   16  C8  UNL     1      26.942   1.472  53.181  1.00  0.00     0.214 C 
BRANCH  16  17
HETATM   17  C9  UNL     1      27.646   0.163  53.184  1.00  0.00    -0.031 A 
HETATM   18  C10 UNL     1      26.928  -0.914  52.674  1.00  0.00     0.009 A 
HETATM   19  C11 UNL     1      27.494  -2.191  52.630  1.00  0.00     0.004 A 
HETATM   20  C12 UNL     1      28.778  -2.419  53.090  1.00  0.00     0.042 A 
HETATM   21  C13 UNL     1      29.446  -1.307  53.587  1.00  0.00     0.117 A 
HETATM   22  F1  UNL     1      30.712  -1.548  54.036  1.00  0.00    -0.206 F 
HETATM   23  C14 UNL     1      28.934  -0.046  53.650  1.00  0.00     0.051 A 
ENDBRANCH  16  17
ENDBRANCH  15  16
ENDBRANCH  12  15
ENDBRANCH   6   8
BRANCH   7  24
HETATM   24  C18 UNL     1      27.201   6.989  48.790  1.00  0.00     0.212 C 
BRANCH  24  25
HETATM   25  O2  UNL     1      28.082   6.546  47.847  1.00  0.00    -0.385 OA
BRANCH  25  26
HETATM   26  C19 UNL     1      29.213   5.891  48.267  1.00  0.00     0.187 C 
BRANCH  26  27
HETATM   27  C20 UNL     1      30.408   6.753  48.222  1.00  0.00     0.143 C 
BRANCH  27  28
HETATM   28  N4  UNL     1      31.558   6.158  47.595  1.00  0.00    -0.406 N 
HETATM   29  C21 UNL     1      31.550   4.771  47.389  1.00  0.00     0.143 C 
HETATM   30  C22 UNL     1      32.725   3.990  47.893  1.00  0.00     0.187 C 
HETATM   31  O3  UNL     1      33.871   4.748  48.056  1.00  0.00    -0.388 OA
HETATM   32  C23 UNL     1      33.638   5.941  48.725  1.00  0.00     0.187 C 
HETATM   33  C24 UNL     1      32.799   6.802  47.809  1.00  0.00     0.143 C 
ENDBRANCH  27  28
ENDBRANCH  26  27
ENDBRANCH  25  26
ENDBRANCH  24  25
ENDBRANCH   7  24
TORSDOF 9
ENDMDL
