MODEL 1
REMARK VINA RESULT:      -8.5      0.000      0.000
REMARK  5 active torsions:
REMARK  status: ('A' for Active; 'I' for Inactive)
REMARK       I    between atoms: C1_2  and  N1_3 
REMARK       I    between atoms: C1_2  and  N3_12 
REMARK    1  A    between atoms: N1_3  and  C2_4 
REMARK    2  A    between atoms: C2_4  and  C3_5 
REMARK    3  A    between atoms: C3_5  and  N2_6 
REMARK    4  A    between atoms: N3_12  and  C8_13 
REMARK    5  A    between atoms: N4_20  and  C15_21 
ROOT
HETATM    1  C8  UNL     1      22.844   1.941  52.221  1.00  0.00     0.037 A 
HETATM    2  C9  UNL     1      23.239   2.421  50.993  1.00  0.00     0.032 A 
HETATM    3  C10 UNL     1      24.534   2.757  50.660  1.00  0.00     0.033 A 
HETATM    4  C11 UNL     1      25.500   2.603  51.620  1.00  0.00     0.052 A 
HETATM    5  C12 UNL     1      25.153   2.130  52.851  1.00  0.00    -0.009 A 
HETATM    6  C13 UNL     1      23.856   1.816  53.118  1.00  0.00     0.040 A 
HETATM    7  C14 UNL     1      26.229   1.985  53.839  1.00  0.00     0.185 C 
HETATM    8  N4  UNL     1      27.518   1.762  53.184  1.00  0.00    -0.293 N 
HETATM    9  N5  UNL     1      27.860   2.852  52.376  1.00  0.00    -0.146 NA
HETATM   10  N6  UNL     1      26.868   2.924  51.371  1.00  0.00    -0.303 N 
HETATM   11  H24 UNL     1      27.820   3.705  52.971  1.00  0.00     0.173 HD
HETATM   12  H25 UNL     1      27.065   3.217  50.375  1.00  0.00     0.182 HD
ENDROOT
BRANCH   1  13
HETATM   13  N3  UNL     1      21.527   1.587  52.596  1.00  0.00    -0.309 N 
HETATM   14  C1  UNL     1      20.538   0.892  51.885  1.00  0.00     0.320 C 
HETATM   15  O1  UNL     1      20.799   0.491  50.721  1.00  0.00    -0.247 OA
HETATM   16  N1  UNL     1      19.213   0.570  52.340  1.00  0.00    -0.341 N 
HETATM   17  H1  UNL     1      19.076   0.929  53.310  1.00  0.00     0.164 HD
HETATM   18  H14 UNL     1      21.208   1.872  53.549  1.00  0.00     0.170 HD
BRANCH  16  19
HETATM   19  C2  UNL     1      18.555  -0.149  51.275  1.00  0.00     0.143 C 
BRANCH  19  20
HETATM   20  C3  UNL     1      17.262   0.401  50.807  1.00  0.00     0.136 C 
BRANCH  20  21
HETATM   21  N2  UNL     1      17.032   1.715  51.271  1.00  0.00    -0.407 N 
HETATM   22  C4  UNL     1      15.891   1.984  52.058  1.00  0.00     0.143 C 
HETATM   23  C5  UNL     1      15.505   3.447  51.865  1.00  0.00     0.187 C 
HETATM   24  O2  UNL     1      16.608   4.218  52.189  1.00  0.00    -0.388 OA
HETATM   25  C6  UNL     1      17.714   3.980  51.400  1.00  0.00     0.187 C 
HETATM   26  C7  UNL     1      17.536   2.785  50.476  1.00  0.00     0.143 C 
ENDBRANCH  20  21
ENDBRANCH  19  20
ENDBRANCH  16  19
ENDBRANCH   1  13
BRANCH   8  27
HETATM   27  C15 UNL     1      28.314   0.617  53.337  1.00  0.00     0.046 A 
HETATM   28  C16 UNL     1      27.892  -0.586  52.985  1.00  0.00     0.034 A 
HETATM   29 BR1  UNL     1      26.168  -0.959  52.222  1.00  0.00    -0.049 Br
HETATM   30  C17 UNL     1      28.965  -1.527  53.283  1.00  0.00     0.017 A 
HETATM   31  C18 UNL     1      30.002  -0.864  53.807  1.00  0.00    -0.019 A 
HETATM   32  C19 UNL     1      29.680   0.579  53.892  1.00  0.00     0.087 A 
ENDBRANCH   8  27
TORSDOF 5
ENDMDL
MODEL 2
REMARK VINA RESULT:      -8.4      6.099     10.348
REMARK  5 active torsions:
REMARK  status: ('A' for Active; 'I' for Inactive)
REMARK       I    between atoms: C1_2  and  N1_3 
REMARK       I    between atoms: C1_2  and  N3_12 
REMARK    1  A    between atoms: N1_3  and  C2_4 
REMARK    2  A    between atoms: C2_4  and  C3_5 
REMARK    3  A    between atoms: C3_5  and  N2_6 
REMARK    4  A    between atoms: N3_12  and  C8_13 
REMARK    5  A    between atoms: N4_20  and  C15_21 
ROOT
HETATM    1  C8  UNL     1      25.499   7.664  50.384  1.00  0.00     0.037 A 
HETATM    2  C9  UNL     1      24.276   8.293  50.419  1.00  0.00     0.032 A 
HETATM    3  C10 UNL     1      23.068   7.675  50.181  1.00  0.00     0.033 A 
HETATM    4  C11 UNL     1      23.083   6.335  49.888  1.00  0.00     0.052 A 
HETATM    5  C12 UNL     1      24.273   5.673  49.843  1.00  0.00    -0.009 A 
HETATM    6  C13 UNL     1      25.433   6.340  50.088  1.00  0.00     0.040 A 
HETATM    7  C14 UNL     1      24.228   4.240  49.525  1.00  0.00     0.185 C 
HETATM    8  N4  UNL     1      22.951   3.651  49.927  1.00  0.00    -0.293 N 
HETATM    9  N5  UNL     1      21.890   4.248  49.239  1.00  0.00    -0.146 NA
HETATM   10  N6  UNL     1      21.883   5.608  49.626  1.00  0.00    -0.303 N 
HETATM   11  H24 UNL     1      22.098   4.174  48.222  1.00  0.00     0.173 HD
HETATM   12  H25 UNL     1      21.001   6.177  49.748  1.00  0.00     0.182 HD
ENDROOT
BRANCH   1  13
HETATM   13  N3  UNL     1      26.757   8.267  50.623  1.00  0.00    -0.309 N 
HETATM   14  C1  UNL     1      27.664   8.856  49.730  1.00  0.00     0.320 C 
HETATM   15  O1  UNL     1      27.373   8.886  48.505  1.00  0.00    -0.247 OA
HETATM   16  N1  UNL     1      28.932   9.451  50.053  1.00  0.00    -0.341 N 
HETATM   17  H1  UNL     1      29.097   9.392  51.082  1.00  0.00     0.164 HD
HETATM   18  H14 UNL     1      27.094   8.296  51.611  1.00  0.00     0.170 HD
BRANCH  16  19
HETATM   19  C2  UNL     1      29.512   9.925  48.820  1.00  0.00     0.143 C 
BRANCH  19  20
HETATM   20  C3  UNL     1      30.833   9.363  48.453  1.00  0.00     0.136 C 
BRANCH  20  21
HETATM   21  N2  UNL     1      30.905   7.968  48.658  1.00  0.00    -0.407 N 
HETATM   22  C4  UNL     1      31.943   7.436  49.453  1.00  0.00     0.143 C 
HETATM   23  C5  UNL     1      32.216   6.006  48.998  1.00  0.00     0.187 C 
HETATM   24  O2  UNL     1      31.026   5.304  49.082  1.00  0.00    -0.388 OA
HETATM   25  C6  UNL     1      30.019   5.803  48.281  1.00  0.00     0.187 C 
HETATM   26  C7  UNL     1      30.383   7.130  47.632  1.00  0.00     0.143 C 
ENDBRANCH  20  21
ENDBRANCH  19  20
ENDBRANCH  16  19
ENDBRANCH   1  13
BRANCH   8  27
HETATM   27  C15 UNL     1      22.797   2.627  50.873  1.00  0.00     0.046 A 
HETATM   28  C16 UNL     1      22.200   1.483  50.582  1.00  0.00     0.034 A 
HETATM   29 BR1  UNL     1      21.464   1.042  48.861  1.00  0.00    -0.049 Br
HETATM   30  C17 UNL     1      22.218   0.664  51.788  1.00  0.00     0.017 A 
HETATM   31  C18 UNL     1      22.825   1.338  52.771  1.00  0.00    -0.019 A 
HETATM   32  C19 UNL     1      23.254   2.665  52.275  1.00  0.00     0.087 A 
ENDBRANCH   8  27
TORSDOF 5
ENDMDL
MODEL 3
REMARK VINA RESULT:      -8.2      5.256      8.530
REMARK  5 active torsions:
REMARK  status: ('A' for Active; 'I' for Inactive)
REMARK       I    between atoms: C1_2  and  N1_3 
REMARK       I    between atoms: C1_2  and  N3_12 
REMARK    1  A    between atoms: N1_3  and  C2_4 
REMARK    2  A    between atoms: C2_4  and  C3_5 
REMARK    3  A    between atoms: C3_5  and  N2_6 
REMARK    4  A    between atoms: N3_12  and  C8_13 
REMARK    5  A    between atoms: N4_20  and  C15_21 
ROOT
HETATM    1  C8  UNL     1      24.368   4.665  50.681  1.00  0.00     0.037 A 
HETATM    2  C9  UNL     1      23.914   5.783  51.342  1.00  0.00     0.032 A 
HETATM    3  C10 UNL     1      24.445   7.047  51.204  1.00  0.00     0.033 A 
HETATM    4  C11 UNL     1      25.503   7.205  50.346  1.00  0.00     0.052 A 
HETATM    5  C12 UNL     1      25.985   6.123  49.671  1.00  0.00    -0.009 A 
HETATM    6  C13 UNL     1      25.417   4.900  49.850  1.00  0.00     0.040 A 
HETATM    7  C14 UNL     1      27.118   6.352  48.766  1.00  0.00     0.185 C 
HETATM    8  N4  UNL     1      27.126   7.727  48.269  1.00  0.00    -0.293 N 
HETATM    9  N5  UNL     1      27.265   8.636  49.323  1.00  0.00    -0.146 NA
HETATM   10  N6  UNL     1      26.120   8.475  50.137  1.00  0.00    -0.303 N 
HETATM   11  H24 UNL     1      28.117   8.365  49.856  1.00  0.00     0.173 HD
HETATM   12  H25 UNL     1      25.645   9.271  50.643  1.00  0.00     0.182 HD
ENDROOT
BRANCH   1  13
HETATM   13  N3  UNL     1      23.847   3.354  50.799  1.00  0.00    -0.309 N 
HETATM   14  C1  UNL     1      23.866   2.466  51.884  1.00  0.00     0.320 C 
HETATM   15  O1  UNL     1      24.418   2.831  52.954  1.00  0.00    -0.247 OA
HETATM   16  N1  UNL     1      23.311   1.141  51.924  1.00  0.00    -0.341 N 
HETATM   17  H1  UNL     1      22.868   0.915  51.006  1.00  0.00     0.164 HD
HETATM   18  H14 UNL     1      23.365   2.954  49.963  1.00  0.00     0.170 HD
BRANCH  16  19
HETATM   19  C2  UNL     1      23.566   0.607  53.241  1.00  0.00     0.143 C 
BRANCH  19  20
HETATM   20  C3  UNL     1      24.174  -0.743  53.300  1.00  0.00     0.136 C 
BRANCH  20  21
HETATM   21  N2  UNL     1      25.549  -0.705  53.619  1.00  0.00    -0.407 N 
HETATM   22  C4  UNL     1      25.962  -0.138  54.843  1.00  0.00     0.143 C 
HETATM   23  C5  UNL     1      27.383   0.389  54.677  1.00  0.00     0.187 C 
HETATM   24  O2  UNL     1      28.174  -0.665  54.249  1.00  0.00    -0.388 OA
HETATM   25  C6  UNL     1      27.792  -1.200  53.037  1.00  0.00     0.187 C 
HETATM   26  C7  UNL     1      26.469  -0.641  52.534  1.00  0.00     0.143 C 
ENDBRANCH  20  21
ENDBRANCH  19  20
ENDBRANCH  16  19
ENDBRANCH   1  13
BRANCH   8  27
HETATM   27  C15 UNL     1      27.011   8.099  46.921  1.00  0.00     0.046 A 
HETATM   28  C16 UNL     1      28.066   8.230  46.134  1.00  0.00     0.034 A 
HETATM   29 BR1  UNL     1      29.885   7.942  46.687  1.00  0.00    -0.049 Br
HETATM   30  C17 UNL     1      27.579   8.623  44.817  1.00  0.00     0.017 A 
HETATM   31  C18 UNL     1      26.246   8.716  44.848  1.00  0.00    -0.019 A 
HETATM   32  C19 UNL     1      25.754   8.389  46.206  1.00  0.00     0.087 A 
ENDBRANCH   8  27
TORSDOF 5
ENDMDL
MODEL 4
REMARK VINA RESULT:      -8.1      2.629      3.483
REMARK  5 active torsions:
REMARK  status: ('A' for Active; 'I' for Inactive)
REMARK       I    between atoms: C1_2  and  N1_3 
REMARK       I    between atoms: C1_2  and  N3_12 
REMARK    1  A    between atoms: N1_3  and  C2_4 
REMARK    2  A    between atoms: C2_4  and  C3_5 
REMARK    3  A    between atoms: C3_5  and  N2_6 
REMARK    4  A    between atoms: N3_12  and  C8_13 
REMARK    5  A    between atoms: N4_20  and  C15_21 
ROOT
HETATM    1  C8  UNL     1      22.659   0.920  52.829  1.00  0.00     0.037 A 
HETATM    2  C9  UNL     1      22.847   1.333  51.530  1.00  0.00     0.032 A 
HETATM    3  C10 UNL     1      24.036   1.807  51.020  1.00  0.00     0.033 A 
HETATM    4  C11 UNL     1      25.112   1.874  51.867  1.00  0.00     0.052 A 
HETATM    5  C12 UNL     1      24.970   1.475  53.163  1.00  0.00    -0.009 A 
HETATM    6  C13 UNL     1      23.769   1.015  53.606  1.00  0.00     0.040 A 
HETATM    7  C14 UNL     1      26.156   1.568  54.023  1.00  0.00     0.185 C 
HETATM    8  N4  UNL     1      27.386   1.461  53.239  1.00  0.00    -0.293 N 
HETATM    9  N5  UNL     1      27.478   2.506  52.314  1.00  0.00    -0.146 NA
HETATM   10  N6  UNL     1      26.385   2.351  51.432  1.00  0.00    -0.303 N 
HETATM   11  H24 UNL     1      27.380   3.397  52.842  1.00  0.00     0.173 HD
HETATM   12  H25 UNL     1      26.429   2.574  50.400  1.00  0.00     0.182 HD
ENDROOT
BRANCH   1  13
HETATM   13  N3  UNL     1      21.454   0.429  53.385  1.00  0.00    -0.309 N 
HETATM   14  C1  UNL     1      20.273   0.004  52.758  1.00  0.00     0.320 C 
HETATM   15  O1  UNL     1      20.210   0.041  51.502  1.00  0.00    -0.247 OA
HETATM   16  N1  UNL     1      19.083  -0.485  53.399  1.00  0.00    -0.341 N 
HETATM   17  H1  UNL     1      19.217  -0.491  54.434  1.00  0.00     0.164 HD
HETATM   18  H14 UNL     1      21.402   0.356  54.426  1.00  0.00     0.170 HD
BRANCH  16  19
HETATM   19  C2  UNL     1      18.134  -0.801  52.359  1.00  0.00     0.143 C 
BRANCH  19  20
HETATM   20  C3  UNL     1      16.739  -1.050  52.792  1.00  0.00     0.136 C 
BRANCH  20  21
HETATM   21  N2  UNL     1      16.412  -2.424  52.806  1.00  0.00    -0.407 N 
HETATM   22  C4  UNL     1      15.110  -2.831  52.444  1.00  0.00     0.143 C 
HETATM   23  C5  UNL     1      14.804  -4.150  53.145  1.00  0.00     0.187 C 
HETATM   24  O2  UNL     1      15.794  -5.052  52.794  1.00  0.00    -0.388 OA
HETATM   25  C6  UNL     1      17.064  -4.672  53.175  1.00  0.00     0.187 C 
HETATM   26  C7  UNL     1      17.117  -3.254  53.724  1.00  0.00     0.143 C 
ENDBRANCH  20  21
ENDBRANCH  19  20
ENDBRANCH  16  19
ENDBRANCH   1  13
BRANCH   8  27
HETATM   27  C15 UNL     1      28.350   0.452  53.384  1.00  0.00     0.046 A 
HETATM   28  C16 UNL     1      28.104  -0.809  53.067  1.00  0.00     0.034 A 
HETATM   29 BR1  UNL     1      26.431  -1.454  52.374  1.00  0.00    -0.049 Br
HETATM   30  C17 UNL     1      29.316  -1.571  53.344  1.00  0.00     0.017 A 
HETATM   31  C18 UNL     1      30.257  -0.748  53.819  1.00  0.00    -0.019 A 
HETATM   32  C19 UNL     1      29.724   0.632  53.890  1.00  0.00     0.087 A 
ENDBRANCH   8  27
TORSDOF 5
ENDMDL
MODEL 5
REMARK VINA RESULT:      -8.1      5.520      8.366
REMARK  5 active torsions:
REMARK  status: ('A' for Active; 'I' for Inactive)
REMARK       I    between atoms: C1_2  and  N1_3 
REMARK       I    between atoms: C1_2  and  N3_12 
REMARK    1  A    between atoms: N1_3  and  C2_4 
REMARK    2  A    between atoms: C2_4  and  C3_5 
REMARK    3  A    between atoms: C3_5  and  N2_6 
REMARK    4  A    between atoms: N3_12  and  C8_13 
REMARK    5  A    between atoms: N4_20  and  C15_21 
ROOT
HETATM    1  C8  UNL     1      24.356   5.749  50.068  1.00  0.00     0.037 A 
HETATM    2  C9  UNL     1      24.032   5.842  48.734  1.00  0.00     0.032 A 
HETATM    3  C10 UNL     1      24.554   6.772  47.862  1.00  0.00     0.033 A 
HETATM    4  C11 UNL     1      25.463   7.671  48.356  1.00  0.00     0.052 A 
HETATM    5  C12 UNL     1      25.813   7.615  49.672  1.00  0.00    -0.009 A 
HETATM    6  C13 UNL     1      25.262   6.672  50.483  1.00  0.00     0.040 A 
HETATM    7  C14 UNL     1      26.792   8.602  50.145  1.00  0.00     0.185 C 
HETATM    8  N4  UNL     1      27.668   9.038  49.058  1.00  0.00    -0.293 N 
HETATM    9  N5  UNL     1      26.931   9.658  48.044  1.00  0.00    -0.146 NA
HETATM   10  N6  UNL     1      26.058   8.672  47.530  1.00  0.00    -0.303 N 
HETATM   11  H24 UNL     1      26.377  10.422  48.485  1.00  0.00     0.173 HD
HETATM   12  H25 UNL     1      25.787   8.604  46.512  1.00  0.00     0.182 HD
ENDROOT
BRANCH   1  13
HETATM   13  N3  UNL     1      23.840   4.808  50.991  1.00  0.00    -0.309 N 
HETATM   14  C1  UNL     1      24.237   3.490  51.259  1.00  0.00     0.320 C 
HETATM   15  O1  UNL     1      25.200   3.005  50.609  1.00  0.00    -0.247 OA
HETATM   16  N1  UNL     1      23.657   2.592  52.220  1.00  0.00    -0.341 N 
HETATM   17  H1  UNL     1      22.873   3.068  52.719  1.00  0.00     0.164 HD
HETATM   18  H14 UNL     1      23.036   5.112  51.585  1.00  0.00     0.170 HD
BRANCH  16  19
HETATM   19  C2  UNL     1      24.389   1.350  52.145  1.00  0.00     0.143 C 
BRANCH  19  20
HETATM   20  C3  UNL     1      24.468   0.555  53.392  1.00  0.00     0.136 C 
BRANCH  20  21
HETATM   21  N2  UNL     1      25.764   0.047  53.630  1.00  0.00    -0.407 N 
HETATM   22  C4  UNL     1      26.358   0.228  54.898  1.00  0.00     0.143 C 
HETATM   23  C5  UNL     1      27.874   0.231  54.726  1.00  0.00     0.187 C 
HETATM   24  O2  UNL     1      28.228  -0.953  54.101  1.00  0.00    -0.388 OA
HETATM   25  C6  UNL     1      27.674  -1.117  52.848  1.00  0.00     0.187 C 
HETATM   26  C7  UNL     1      26.643  -0.050  52.513  1.00  0.00     0.143 C 
ENDBRANCH  20  21
ENDBRANCH  19  20
ENDBRANCH  16  19
ENDBRANCH   1  13
BRANCH   8  27
HETATM   27  C15 UNL     1      29.059   8.865  49.025  1.00  0.00     0.046 A 
HETATM   28  C16 UNL     1      29.619   7.728  48.643  1.00  0.00     0.034 A 
HETATM   29 BR1  UNL     1      28.648   6.166  48.084  1.00  0.00    -0.049 Br
HETATM   30  C17 UNL     1      31.063   7.904  48.733  1.00  0.00     0.017 A 
HETATM   31  C18 UNL     1      31.332   9.140  49.166  1.00  0.00    -0.019 A 
HETATM   32  C19 UNL     1      30.068   9.875  49.396  1.00  0.00     0.087 A 
ENDBRANCH   8  27
TORSDOF 5
ENDMDL
MODEL 6
REMARK VINA RESULT:      -8.1      5.533      9.442
REMARK  5 active torsions:
REMARK  status: ('A' for Active; 'I' for Inactive)
REMARK       I    between atoms: C1_2  and  N1_3 
REMARK       I    between atoms: C1_2  and  N3_12 
REMARK    1  A    between atoms: N1_3  and  C2_4 
REMARK    2  A    between atoms: C2_4  and  C3_5 
REMARK    3  A    between atoms: C3_5  and  N2_6 
REMARK    4  A    between atoms: N3_12  and  C8_13 
REMARK    5  A    between atoms: N4_20  and  C15_21 
ROOT
HETATM    1  C8  UNL     1      23.660   5.631  51.321  1.00  0.00     0.037 A 
HETATM    2  C9  UNL     1      22.315   5.805  51.086  1.00  0.00     0.032 A 
HETATM    3  C10 UNL     1      21.405   4.781  50.936  1.00  0.00     0.033 A 
HETATM    4  C11 UNL     1      21.871   3.494  51.029  1.00  0.00     0.052 A 
HETATM    5  C12 UNL     1      23.196   3.277  51.261  1.00  0.00    -0.009 A 
HETATM    6  C13 UNL     1      24.045   4.331  51.400  1.00  0.00     0.040 A 
HETATM    7  C14 UNL     1      23.637   1.879  51.351  1.00  0.00     0.185 C 
HETATM    8  N4  UNL     1      22.549   1.011  51.801  1.00  0.00    -0.293 N 
HETATM    9  N5  UNL     1      21.484   1.038  50.895  1.00  0.00    -0.146 NA
HETATM   10  N6  UNL     1      21.005   2.368  50.887  1.00  0.00    -0.303 N 
HETATM   11  H24 UNL     1      21.868   0.798  49.957  1.00  0.00     0.173 HD
HETATM   12  H25 UNL     1      19.986   2.622  50.779  1.00  0.00     0.182 HD
ENDROOT
BRANCH   1  13
HETATM   13  N3  UNL     1      24.621   6.657  51.479  1.00  0.00    -0.309 N 
HETATM   14  C1  UNL     1      25.511   7.216  50.551  1.00  0.00     0.320 C 
HETATM   15  O1  UNL     1      25.505   6.780  49.370  1.00  0.00    -0.247 OA
HETATM   16  N1  UNL     1      26.465   8.264  50.792  1.00  0.00    -0.341 N 
HETATM   17  H1  UNL     1      26.405   8.575  51.786  1.00  0.00     0.164 HD
HETATM   18  H14 UNL     1      24.707   7.091  52.426  1.00  0.00     0.170 HD
BRANCH  16  19
HETATM   19  C2  UNL     1      27.157   8.510  49.549  1.00  0.00     0.143 C 
BRANCH  19  20
HETATM   20  C3  UNL     1      28.152   9.608  49.554  1.00  0.00     0.136 C 
BRANCH  20  21
HETATM   21  N2  UNL     1      29.464   9.151  49.300  1.00  0.00    -0.407 N 
HETATM   22  C4  UNL     1      30.518  10.085  49.207  1.00  0.00     0.143 C 
HETATM   23  C5  UNL     1      31.606   9.500  48.313  1.00  0.00     0.187 C 
HETATM   24  O2  UNL     1      31.979   8.279  48.850  1.00  0.00    -0.388 OA
HETATM   25  C6  UNL     1      30.958   7.354  48.911  1.00  0.00     0.187 C 
HETATM   26  C7  UNL     1      29.602   7.945  48.555  1.00  0.00     0.143 C 
ENDBRANCH  20  21
ENDBRANCH  19  20
ENDBRANCH  16  19
ENDBRANCH   1  13
BRANCH   8  27
HETATM   27  C15 UNL     1      22.559   0.250  52.979  1.00  0.00     0.046 A 
HETATM   28  C16 UNL     1      23.677  -0.233  53.497  1.00  0.00     0.034 A 
HETATM   29 BR1  UNL     1      25.428   0.020  52.744  1.00  0.00    -0.049 Br
HETATM   30  C17 UNL     1      23.315  -0.965  54.705  1.00  0.00     0.017 A 
HETATM   31  C18 UNL     1      21.991  -0.903  54.880  1.00  0.00    -0.019 A 
HETATM   32  C19 UNL     1      21.379  -0.115  53.786  1.00  0.00     0.087 A 
ENDBRANCH   8  27
TORSDOF 5
ENDMDL
MODEL 7
REMARK VINA RESULT:      -8.0      1.643      2.125
REMARK  5 active torsions:
REMARK  status: ('A' for Active; 'I' for Inactive)
REMARK       I    between atoms: C1_2  and  N1_3 
REMARK       I    between atoms: C1_2  and  N3_12 
REMARK    1  A    between atoms: N1_3  and  C2_4 
REMARK    2  A    between atoms: C2_4  and  C3_5 
REMARK    3  A    between atoms: C3_5  and  N2_6 
REMARK    4  A    between atoms: N3_12  and  C8_13 
REMARK    5  A    between atoms: N4_20  and  C15_21 
ROOT
HETATM    1  C8  UNL     1      22.293   0.927  51.641  1.00  0.00     0.037 A 
HETATM    2  C9  UNL     1      22.750   1.775  50.659  1.00  0.00     0.032 A 
HETATM    3  C10 UNL     1      23.992   2.373  50.651  1.00  0.00     0.033 A 
HETATM    4  C11 UNL     1      24.835   2.104  51.698  1.00  0.00     0.052 A 
HETATM    5  C12 UNL     1      24.423   1.268  52.693  1.00  0.00    -0.009 A 
HETATM    6  C13 UNL     1      23.184   0.709  52.643  1.00  0.00     0.040 A 
HETATM    7  C14 UNL     1      25.369   1.016  53.788  1.00  0.00     0.185 C 
HETATM    8  N4  UNL     1      26.751   1.169  53.335  1.00  0.00    -0.293 N 
HETATM    9  N5  UNL     1      26.988   2.475  52.894  1.00  0.00    -0.146 NA
HETATM   10  N6  UNL     1      26.141   2.675  51.779  1.00  0.00    -0.303 N 
HETATM   11  H24 UNL     1      26.712   3.118  53.664  1.00  0.00     0.173 HD
HETATM   12  H25 UNL     1      26.409   3.254  50.937  1.00  0.00     0.182 HD
ENDROOT
BRANCH   1  13
HETATM   13  N3  UNL     1      21.026   0.297  51.680  1.00  0.00    -0.309 N 
HETATM   14  C1  UNL     1      19.742   0.835  51.515  1.00  0.00     0.320 C 
HETATM   15  O1  UNL     1      19.627   2.068  51.294  1.00  0.00    -0.247 OA
HETATM   16  N1  UNL     1      18.494   0.123  51.570  1.00  0.00    -0.341 N 
HETATM   17  H1  UNL     1      18.673  -0.890  51.751  1.00  0.00     0.164 HD
HETATM   18  H14 UNL     1      21.009  -0.732  51.858  1.00  0.00     0.170 HD
BRANCH  16  19
HETATM   19  C2  UNL     1      17.441   1.083  51.343  1.00  0.00     0.143 C 
BRANCH  19  20
HETATM   20  C3  UNL     1      16.079   0.680  51.765  1.00  0.00     0.136 C 
BRANCH  20  21
HETATM   21  N2  UNL     1      15.267   1.785  52.105  1.00  0.00    -0.407 N 
HETATM   22  C4  UNL     1      15.811   3.086  52.054  1.00  0.00     0.143 C 
HETATM   23  C5  UNL     1      15.053   3.965  53.044  1.00  0.00     0.187 C 
HETATM   24  O2  UNL     1      13.709   3.902  52.718  1.00  0.00    -0.388 OA
HETATM   25  C6  UNL     1      13.167   2.636  52.798  1.00  0.00     0.187 C 
HETATM   26  C7  UNL     1      14.215   1.560  53.038  1.00  0.00     0.143 C 
ENDBRANCH  20  21
ENDBRANCH  19  20
ENDBRANCH  16  19
ENDBRANCH   1  13
BRANCH   8  27
HETATM   27  C15 UNL     1      27.719   0.153  53.338  1.00  0.00     0.046 A 
HETATM   28  C16 UNL     1      28.945   0.349  53.795  1.00  0.00     0.034 A 
HETATM   29 BR1  UNL     1      29.591   2.011  54.512  1.00  0.00    -0.049 Br
HETATM   30  C17 UNL     1      29.670  -0.907  53.645  1.00  0.00     0.017 A 
HETATM   31  C18 UNL     1      28.860  -1.823  53.102  1.00  0.00    -0.019 A 
HETATM   32  C19 UNL     1      27.528  -1.226  52.853  1.00  0.00     0.087 A 
ENDBRANCH   8  27
TORSDOF 5
ENDMDL
MODEL 8
REMARK VINA RESULT:      -8.0      4.589      8.297
REMARK  5 active torsions:
REMARK  status: ('A' for Active; 'I' for Inactive)
REMARK       I    between atoms: C1_2  and  N1_3 
REMARK       I    between atoms: C1_2  and  N3_12 
REMARK    1  A    between atoms: N1_3  and  C2_4 
REMARK    2  A    between atoms: C2_4  and  C3_5 
REMARK    3  A    between atoms: C3_5  and  N2_6 
REMARK    4  A    between atoms: N3_12  and  C8_13 
REMARK    5  A    between atoms: N4_20  and  C15_21 
ROOT
HETATM    1  C8  UNL     1      23.266   2.501  50.431  1.00  0.00     0.037 A 
HETATM    2  C9  UNL     1      22.656   2.568  49.199  1.00  0.00     0.032 A 
HETATM    3  C10 UNL     1      22.753   3.633  48.331  1.00  0.00     0.033 A 
HETATM    4  C11 UNL     1      23.512   4.707  48.720  1.00  0.00     0.052 A 
HETATM    5  C12 UNL     1      24.134   4.683  49.933  1.00  0.00    -0.009 A 
HETATM    6  C13 UNL     1      23.999   3.600  50.746  1.00  0.00     0.040 A 
HETATM    7  C14 UNL     1      24.934   5.860  50.296  1.00  0.00     0.185 C 
HETATM    8  N4  UNL     1      25.437   6.543  49.104  1.00  0.00    -0.293 N 
HETATM    9  N5  UNL     1      24.380   7.005  48.313  1.00  0.00    -0.146 NA
HETATM   10  N6  UNL     1      23.672   5.857  47.889  1.00  0.00    -0.303 N 
HETATM   11  H24 UNL     1      23.770   7.590  48.920  1.00  0.00     0.173 HD
HETATM   12  H25 UNL     1      23.217   5.767  46.941  1.00  0.00     0.182 HD
ENDROOT
BRANCH   1  13
HETATM   13  N3  UNL     1      23.188   1.425  51.346  1.00  0.00    -0.309 N 
HETATM   14  C1  UNL     1      24.119   0.970  52.292  1.00  0.00     0.320 C 
HETATM   15  O1  UNL     1      25.220   1.571  52.393  1.00  0.00    -0.247 OA
HETATM   16  N1  UNL     1      23.963  -0.140  53.191  1.00  0.00    -0.341 N 
HETATM   17  H1  UNL     1      23.027  -0.580  53.051  1.00  0.00     0.164 HD
HETATM   18  H14 UNL     1      22.310   0.859  51.345  1.00  0.00     0.170 HD
BRANCH  16  19
HETATM   19  C2  UNL     1      25.172  -0.232  53.974  1.00  0.00     0.143 C 
BRANCH  19  20
HETATM   20  C3  UNL     1      26.191  -1.199  53.504  1.00  0.00     0.136 C 
BRANCH  20  21
HETATM   21  N2  UNL     1      27.501  -0.675  53.555  1.00  0.00    -0.407 N 
HETATM   22  C4  UNL     1      28.574  -1.438  53.046  1.00  0.00     0.143 C 
HETATM   23  C5  UNL     1      29.848  -1.027  53.777  1.00  0.00     0.187 C 
HETATM   24  O2  UNL     1      30.003   0.340  53.617  1.00  0.00    -0.388 OA
HETATM   25  C6  UNL     1      28.971   1.089  54.141  1.00  0.00     0.187 C 
HETATM   26  C7  UNL     1      27.799   0.238  54.607  1.00  0.00     0.143 C 
ENDBRANCH  20  21
ENDBRANCH  19  20
ENDBRANCH  16  19
ENDBRANCH   1  13
BRANCH   8  27
HETATM   27  C15 UNL     1      26.792   6.718  48.787  1.00  0.00     0.046 A 
HETATM   28  C16 UNL     1      27.387   7.897  48.864  1.00  0.00     0.034 A 
HETATM   29 BR1  UNL     1      26.521   9.524  49.411  1.00  0.00    -0.049 Br
HETATM   30  C17 UNL     1      28.776   7.709  48.464  1.00  0.00     0.017 A 
HETATM   31  C18 UNL     1      28.978   6.423  48.158  1.00  0.00    -0.019 A 
HETATM   32  C19 UNL     1      27.720   5.664  48.336  1.00  0.00     0.087 A 
ENDBRANCH   8  27
TORSDOF 5
ENDMDL
MODEL 9
REMARK VINA RESULT:      -8.0      5.956     10.623
REMARK  5 active torsions:
REMARK  status: ('A' for Active; 'I' for Inactive)
REMARK       I    between atoms: C1_2  and  N1_3 
REMARK       I    between atoms: C1_2  and  N3_12 
REMARK    1  A    between atoms: N1_3  and  C2_4 
REMARK    2  A    between atoms: C2_4  and  C3_5 
REMARK    3  A    between atoms: C3_5  and  N2_6 
REMARK    4  A    between atoms: N3_12  and  C8_13 
REMARK    5  A    between atoms: N4_20  and  C15_21 
ROOT
HETATM    1  C8  UNL     1      26.126   6.581  49.328  1.00  0.00     0.037 A 
HETATM    2  C9  UNL     1      25.597   7.423  50.279  1.00  0.00     0.032 A 
HETATM    3  C10 UNL     1      24.548   7.106  51.113  1.00  0.00     0.033 A 
HETATM    4  C11 UNL     1      23.987   5.862  50.989  1.00  0.00     0.052 A 
HETATM    5  C12 UNL     1      24.479   4.995  50.058  1.00  0.00    -0.009 A 
HETATM    6  C13 UNL     1      25.519   5.367  49.264  1.00  0.00     0.040 A 
HETATM    7  C14 UNL     1      23.840   3.676  49.971  1.00  0.00     0.185 C 
HETATM    8  N4  UNL     1      23.249   3.291  51.252  1.00  0.00    -0.293 N 
HETATM    9  N5  UNL     1      22.252   4.195  51.631  1.00  0.00    -0.146 NA
HETATM   10  N6  UNL     1      22.895   5.441  51.807  1.00  0.00    -0.303 N 
HETATM   11  H24 UNL     1      21.573   4.258  50.845  1.00  0.00     0.173 HD
HETATM   12  H25 UNL     1      22.619   6.143  52.546  1.00  0.00     0.182 HD
ENDROOT
BRANCH   1  13
HETATM   13  N3  UNL     1      27.201   6.873  48.456  1.00  0.00    -0.309 N 
HETATM   14  C1  UNL     1      28.413   6.197  48.253  1.00  0.00     0.320 C 
HETATM   15  O1  UNL     1      28.643   5.156  48.922  1.00  0.00    -0.247 OA
HETATM   16  N1  UNL     1      29.463   6.561  47.342  1.00  0.00    -0.341 N 
HETATM   17  H1  UNL     1      29.196   7.426  46.823  1.00  0.00     0.164 HD
HETATM   18  H14 UNL     1      27.111   7.720  47.852  1.00  0.00     0.170 HD
BRANCH  16  19
HETATM   19  C2  UNL     1      30.510   5.576  47.476  1.00  0.00     0.143 C 
BRANCH  19  20
HETATM   20  C3  UNL     1      31.835   5.941  46.922  1.00  0.00     0.136 C 
BRANCH  20  21
HETATM   21  N2  UNL     1      32.829   4.983  47.217  1.00  0.00    -0.407 N 
HETATM   22  C4  UNL     1      32.650   3.646  46.800  1.00  0.00     0.143 C 
HETATM   23  C5  UNL     1      33.425   2.737  47.748  1.00  0.00     0.187 C 
HETATM   24  O2  UNL     1      34.745   3.156  47.748  1.00  0.00    -0.388 OA
HETATM   25  C6  UNL     1      34.925   4.451  48.185  1.00  0.00     0.187 C 
HETATM   26  C7  UNL     1      33.614   5.196  48.386  1.00  0.00     0.143 C 
ENDBRANCH  20  21
ENDBRANCH  19  20
ENDBRANCH  16  19
ENDBRANCH   1  13
BRANCH   8  27
HETATM   27  C15 UNL     1      23.622   2.169  52.007  1.00  0.00     0.046 A 
HETATM   28  C16 UNL     1      22.937   1.037  51.974  1.00  0.00     0.034 A 
HETATM   29 BR1  UNL     1      21.360   0.746  50.913  1.00  0.00    -0.049 Br
HETATM   30  C17 UNL     1      23.602   0.100  52.871  1.00  0.00     0.017 A 
HETATM   31  C18 UNL     1      24.667   0.694  53.419  1.00  0.00    -0.019 A 
HETATM   32  C19 UNL     1      24.780   2.082  52.915  1.00  0.00     0.087 A 
ENDBRANCH   8  27
TORSDOF 5
ENDMDL
