MODEL 1
REMARK VINA RESULT:      -7.9      0.000      0.000
REMARK  9 active torsions:
REMARK  status: ('A' for Active; 'I' for Inactive)
REMARK    1  A    between atoms: O1_2  and  C2_3 
REMARK    2  A    between atoms: C6_9  and  N3_10 
REMARK    3  A    between atoms: N3_10  and  C7_11 
REMARK    4  A    between atoms: C9_13  and  C10_14 
REMARK    5  A    between atoms: C10_14  and  C11_15 
REMARK    6  A    between atoms: C18_23  and  O2_24 
REMARK    7  A    between atoms: O2_24  and  C19_25 
REMARK    8  A    between atoms: C19_25  and  C20_26 
REMARK    9  A    between atoms: C20_26  and  N4_27 
ROOT
HETATM    1  C2  UNL     1      23.739   1.214  53.130  1.00  0.00     0.103 A 
HETATM    2  C3  UNL     1      22.466   1.476  52.641  1.00  0.00     0.072 A 
HETATM    3  C4  UNL     1      22.135   2.771  52.247  1.00  0.00     0.075 A 
HETATM    4  N1  UNL     1      20.930   3.105  51.765  1.00  0.00    -0.241 NA
HETATM    5  C5  UNL     1      20.649   4.372  51.392  1.00  0.00     0.235 A 
HETATM    6  N2  UNL     1      21.595   5.352  51.499  1.00  0.00    -0.224 NA
HETATM    7  C6  UNL     1      22.823   5.085  51.975  1.00  0.00     0.138 A 
HETATM    8  C16 UNL     1      23.066   3.780  52.343  1.00  0.00     0.041 A 
HETATM    9  C17 UNL     1      24.305   3.455  52.834  1.00  0.00     0.057 A 
HETATM   10  C18 UNL     1      24.715   2.207  53.245  1.00  0.00     0.103 A 
ENDROOT
BRANCH   7  11
HETATM   11  N3  UNL     1      23.790   6.155  52.067  1.00  0.00    -0.369 N 
HETATM   12  H6  UNL     1      24.440   6.289  52.856  1.00  0.00     0.161 HD
BRANCH  11  13
HETATM   13  C7  UNL     1      23.768   7.051  50.922  1.00  0.00     0.088 A 
HETATM   14  C8  UNL     1      25.186   7.524  50.598  1.00  0.00     0.032 A 
HETATM   15  C9  UNL     1      24.355   6.752  49.620  1.00  0.00     0.014 A 
BRANCH  15  16
HETATM   16  C10 UNL     1      24.853   5.420  49.189  1.00  0.00     0.046 C 
BRANCH  16  17
HETATM   17  C11 UNL     1      23.800   4.479  48.722  1.00  0.00    -0.055 A 
HETATM   18  C12 UNL     1      23.709   3.184  48.982  1.00  0.00     0.007 A 
HETATM   19  C13 UNL     1      22.654   2.337  48.489  1.00  0.00    -0.003 A 
HETATM   20  C14 UNL     1      21.709   2.861  47.731  1.00  0.00    -0.022 A 
HETATM   21  C15 UNL     1      21.332   4.173  47.156  1.00  0.00     0.063 A 
HETATM   22  P1  UNL     1      22.598   5.413  47.696  1.00  0.00    -0.096 P 
HETATM   23  H18 UNL     1      23.337   5.906  46.552  1.00  0.00     0.062 HD
ENDBRANCH  16  17
ENDBRANCH  15  16
ENDBRANCH  11  13
ENDBRANCH   7  11
BRANCH  10  24
HETATM   24  O2  UNL     1      25.844   1.679  53.747  1.00  0.00    -0.347 OA
BRANCH  24  25
HETATM   25  C19 UNL     1      27.163   1.768  53.342  1.00  0.00     0.206 C 
BRANCH  25  26
HETATM   26  C20 UNL     1      28.061   0.948  54.194  1.00  0.00     0.299 C 
BRANCH  26  27
HETATM   27  N4  UNL     1      28.153  -0.435  53.817  1.00  0.00     0.094 N 
HETATM   28  C21 UNL     1      29.463  -0.865  53.425  1.00  0.00     0.298 C 
HETATM   29  C22 UNL     1      29.570  -2.348  53.306  1.00  0.00     0.198 C 
HETATM   30  O3  UNL     1      28.313  -2.936  53.363  1.00  0.00    -0.388 OA
HETATM   31  C23 UNL     1      27.390  -2.346  52.501  1.00  0.00     0.198 C 
HETATM   32  C24 UNL     1      27.217  -0.867  52.828  1.00  0.00     0.298 C 
ENDBRANCH  26  27
ENDBRANCH  25  26
ENDBRANCH  24  25
ENDBRANCH  10  24
BRANCH   1  33
HETATM   33  O1  UNL     1      23.901  -0.103  53.470  1.00  0.00    -0.353 OA
HETATM   34  C1  UNL     1      22.969  -0.821  54.249  1.00  0.00     0.210 C 
ENDBRANCH   1  33
TORSDOF 9
ENDMDL
MODEL 2
REMARK VINA RESULT:      -7.9      1.517      2.108
REMARK  9 active torsions:
REMARK  status: ('A' for Active; 'I' for Inactive)
REMARK    1  A    between atoms: O1_2  and  C2_3 
REMARK    2  A    between atoms: C6_9  and  N3_10 
REMARK    3  A    between atoms: N3_10  and  C7_11 
REMARK    4  A    between atoms: C9_13  and  C10_14 
REMARK    5  A    between atoms: C10_14  and  C11_15 
REMARK    6  A    between atoms: C18_23  and  O2_24 
REMARK    7  A    between atoms: O2_24  and  C19_25 
REMARK    8  A    between atoms: C19_25  and  C20_26 
REMARK    9  A    between atoms: C20_26  and  N4_27 
ROOT
HETATM    1  C2  UNL     1      22.243   0.121  53.254  1.00  0.00     0.103 A 
HETATM    2  C3  UNL     1      21.036   0.678  52.852  1.00  0.00     0.072 A 
HETATM    3  C4  UNL     1      21.004   2.001  52.415  1.00  0.00     0.075 A 
HETATM    4  N1  UNL     1      19.881   2.612  52.011  1.00  0.00    -0.241 NA
HETATM    5  C5  UNL     1      19.891   3.895  51.592  1.00  0.00     0.235 A 
HETATM    6  N2  UNL     1      21.057   4.608  51.571  1.00  0.00    -0.224 NA
HETATM    7  C6  UNL     1      22.217   4.056  51.963  1.00  0.00     0.138 A 
HETATM    8  C16 UNL     1      22.160   2.745  52.382  1.00  0.00     0.041 A 
HETATM    9  C17 UNL     1      23.319   2.135  52.792  1.00  0.00     0.057 A 
HETATM   10  C18 UNL     1      23.441   0.839  53.238  1.00  0.00     0.103 A 
ENDROOT
BRANCH   7  11
HETATM   11  N3  UNL     1      23.423   4.851  51.920  1.00  0.00    -0.369 N 
HETATM   12  H6  UNL     1      24.292   4.623  52.427  1.00  0.00     0.161 HD
BRANCH  11  13
HETATM   13  C7  UNL     1      23.307   6.031  51.080  1.00  0.00     0.088 A 
HETATM   14  C8  UNL     1      24.696   6.571  50.736  1.00  0.00     0.032 A 
HETATM   15  C9  UNL     1      23.735   6.105  49.687  1.00  0.00     0.014 A 
BRANCH  15  16
HETATM   16  C10 UNL     1      24.135   4.945  48.849  1.00  0.00     0.046 C 
BRANCH  16  17
HETATM   17  C11 UNL     1      23.065   3.935  48.626  1.00  0.00    -0.055 A 
HETATM   18  C12 UNL     1      23.108   2.644  48.921  1.00  0.00     0.007 A 
HETATM   19  C13 UNL     1      22.025   1.728  48.673  1.00  0.00    -0.003 A 
HETATM   20  C14 UNL     1      20.914   2.178  48.121  1.00  0.00    -0.022 A 
HETATM   21  C15 UNL     1      20.348   3.450  47.618  1.00  0.00     0.063 A 
HETATM   22  P1  UNL     1      21.623   4.773  47.861  1.00  0.00    -0.096 P 
HETATM   23  H18 UNL     1      22.076   5.273  46.580  1.00  0.00     0.062 HD
ENDBRANCH  16  17
ENDBRANCH  15  16
ENDBRANCH  11  13
ENDBRANCH   7  11
BRANCH  10  24
HETATM   24  O2  UNL     1      24.444   0.060  53.678  1.00  0.00    -0.347 OA
BRANCH  24  25
HETATM   25  C19 UNL     1      25.319  -0.780  53.014  1.00  0.00     0.206 C 
BRANCH  25  26
HETATM   26  C20 UNL     1      26.361  -0.023  52.275  1.00  0.00     0.299 C 
BRANCH  26  27
HETATM   27  N4  UNL     1      27.393   0.543  53.099  1.00  0.00     0.094 N 
HETATM   28  C21 UNL     1      27.820   1.854  52.710  1.00  0.00     0.298 C 
HETATM   29  C22 UNL     1      28.685   2.506  53.736  1.00  0.00     0.198 C 
HETATM   30  O3  UNL     1      29.067   1.590  54.708  1.00  0.00    -0.388 OA
HETATM   31  C23 UNL     1      29.579   0.407  54.177  1.00  0.00     0.198 C 
HETATM   32  C24 UNL     1      28.548  -0.275  53.286  1.00  0.00     0.298 C 
ENDBRANCH  26  27
ENDBRANCH  25  26
ENDBRANCH  24  25
ENDBRANCH  10  24
BRANCH   1  33
HETATM   33  O1  UNL     1      22.102  -1.182  53.653  1.00  0.00    -0.353 OA
HETATM   34  C1  UNL     1      20.963  -1.666  54.329  1.00  0.00     0.210 C 
ENDBRANCH   1  33
TORSDOF 9
ENDMDL
MODEL 3
REMARK VINA RESULT:      -7.8      2.809      7.192
REMARK  9 active torsions:
REMARK  status: ('A' for Active; 'I' for Inactive)
REMARK    1  A    between atoms: O1_2  and  C2_3 
REMARK    2  A    between atoms: C6_9  and  N3_10 
REMARK    3  A    between atoms: N3_10  and  C7_11 
REMARK    4  A    between atoms: C9_13  and  C10_14 
REMARK    5  A    between atoms: C10_14  and  C11_15 
REMARK    6  A    between atoms: C18_23  and  O2_24 
REMARK    7  A    between atoms: O2_24  and  C19_25 
REMARK    8  A    between atoms: C19_25  and  C20_26 
REMARK    9  A    between atoms: C20_26  and  N4_27 
ROOT
HETATM    1  C2  UNL     1      25.403   3.055  51.006  1.00  0.00     0.103 A 
HETATM    2  C3  UNL     1      26.440   2.148  51.181  1.00  0.00     0.072 A 
HETATM    3  C4  UNL     1      26.272   1.072  52.050  1.00  0.00     0.075 A 
HETATM    4  N1  UNL     1      27.223   0.155  52.273  1.00  0.00    -0.241 NA
HETATM    5  C5  UNL     1      27.020  -0.875  53.122  1.00  0.00     0.235 A 
HETATM    6  N2  UNL     1      25.830  -1.007  53.780  1.00  0.00    -0.224 NA
HETATM    7  C6  UNL     1      24.835  -0.122  53.603  1.00  0.00     0.138 A 
HETATM    8  C16 UNL     1      25.085   0.912  52.728  1.00  0.00     0.041 A 
HETATM    9  C17 UNL     1      24.100   1.842  52.510  1.00  0.00     0.057 A 
HETATM   10  C18 UNL     1      24.182   2.931  51.673  1.00  0.00     0.103 A 
ENDROOT
BRANCH   7  11
HETATM   11  N3  UNL     1      23.594  -0.306  54.320  1.00  0.00    -0.369 N 
HETATM   12  H6  UNL     1      23.347   0.180  55.195  1.00  0.00     0.161 HD
BRANCH  11  13
HETATM   13  C7  UNL     1      22.698  -1.260  53.687  1.00  0.00     0.088 A 
HETATM   14  C8  UNL     1      21.510  -1.554  54.604  1.00  0.00     0.032 A 
HETATM   15  C9  UNL     1      21.342  -0.958  53.240  1.00  0.00     0.014 A 
BRANCH  15  16
HETATM   16  C10 UNL     1      20.752   0.403  53.148  1.00  0.00     0.046 C 
BRANCH  16  17
HETATM   17  C11 UNL     1      20.764   0.999  51.785  1.00  0.00    -0.055 A 
HETATM   18  C12 UNL     1      21.270   0.468  50.682  1.00  0.00     0.007 A 
HETATM   19  C13 UNL     1      21.241   1.111  49.394  1.00  0.00    -0.003 A 
HETATM   20  C14 UNL     1      20.681   2.301  49.281  1.00  0.00    -0.022 A 
HETATM   21  C15 UNL     1      19.998   3.304  50.130  1.00  0.00     0.063 A 
HETATM   22  P1  UNL     1      19.937   2.636  51.858  1.00  0.00    -0.096 P 
HETATM   23  H18 UNL     1      20.739   3.457  52.741  1.00  0.00     0.062 HD
ENDBRANCH  16  17
ENDBRANCH  15  16
ENDBRANCH  11  13
ENDBRANCH   7  11
BRANCH  10  24
HETATM   24  O2  UNL     1      23.368   3.941  51.322  1.00  0.00    -0.347 OA
BRANCH  24  25
HETATM   25  C19 UNL     1      23.008   5.107  51.974  1.00  0.00     0.206 C 
BRANCH  25  26
HETATM   26  C20 UNL     1      22.620   6.177  51.021  1.00  0.00     0.299 C 
BRANCH  26  27
HETATM   27  N4  UNL     1      23.705   6.724  50.254  1.00  0.00     0.094 N 
HETATM   28  C21 UNL     1      24.039   8.082  50.570  1.00  0.00     0.298 C 
HETATM   29  C22 UNL     1      25.326   8.516  49.954  1.00  0.00     0.198 C 
HETATM   30  O3  UNL     1      25.764   7.581  49.026  1.00  0.00    -0.388 OA
HETATM   31  C23 UNL     1      24.778   7.206  48.115  1.00  0.00     0.198 C 
HETATM   32  C24 UNL     1      23.578   6.604  48.837  1.00  0.00     0.298 C 
ENDBRANCH  26  27
ENDBRANCH  25  26
ENDBRANCH  24  25
ENDBRANCH  10  24
BRANCH   1  33
HETATM   33  O1  UNL     1      25.729   4.048  50.121  1.00  0.00    -0.353 OA
HETATM   34  C1  UNL     1      26.875   4.008  49.300  1.00  0.00     0.210 C 
ENDBRANCH   1  33
TORSDOF 9
ENDMDL
MODEL 4
REMARK VINA RESULT:      -7.8      5.503      7.131
REMARK  9 active torsions:
REMARK  status: ('A' for Active; 'I' for Inactive)
REMARK    1  A    between atoms: O1_2  and  C2_3 
REMARK    2  A    between atoms: C6_9  and  N3_10 
REMARK    3  A    between atoms: N3_10  and  C7_11 
REMARK    4  A    between atoms: C9_13  and  C10_14 
REMARK    5  A    between atoms: C10_14  and  C11_15 
REMARK    6  A    between atoms: C18_23  and  O2_24 
REMARK    7  A    between atoms: O2_24  and  C19_25 
REMARK    8  A    between atoms: C19_25  and  C20_26 
REMARK    9  A    between atoms: C20_26  and  N4_27 
ROOT
HETATM    1  C2  UNL     1      24.176   4.562  49.452  1.00  0.00     0.103 A 
HETATM    2  C3  UNL     1      24.135   5.745  48.725  1.00  0.00     0.072 A 
HETATM    3  C4  UNL     1      25.328   6.365  48.356  1.00  0.00     0.075 A 
HETATM    4  N1  UNL     1      25.374   7.506  47.656  1.00  0.00    -0.241 NA
HETATM    5  C5  UNL     1      26.550   8.075  47.316  1.00  0.00     0.235 A 
HETATM    6  N2  UNL     1      27.732   7.495  47.683  1.00  0.00    -0.224 NA
HETATM    7  C6  UNL     1      27.757   6.351  48.387  1.00  0.00     0.138 A 
HETATM    8  C16 UNL     1      26.534   5.806  48.711  1.00  0.00     0.041 A 
HETATM    9  C17 UNL     1      26.505   4.637  49.428  1.00  0.00     0.057 A 
HETATM   10  C18 UNL     1      25.377   3.960  49.833  1.00  0.00     0.103 A 
ENDROOT
BRANCH   7  11
HETATM   11  N3  UNL     1      29.032   5.776  48.749  1.00  0.00    -0.369 N 
HETATM   12  H6  UNL     1      29.148   4.913  49.302  1.00  0.00     0.161 HD
BRANCH  11  13
HETATM   13  C7  UNL     1      30.168   6.535  48.253  1.00  0.00     0.088 A 
HETATM   14  C8  UNL     1      31.379   6.321  49.162  1.00  0.00     0.032 A 
HETATM   15  C9  UNL     1      31.389   5.947  47.713  1.00  0.00     0.014 A 
BRANCH  15  16
HETATM   16  C10 UNL     1      31.572   4.512  47.370  1.00  0.00     0.046 C 
BRANCH  16  17
HETATM   17  C11 UNL     1      32.866   4.186  46.712  1.00  0.00    -0.055 A 
HETATM   18  C12 UNL     1      33.796   3.349  47.145  1.00  0.00     0.007 A 
HETATM   19  C13 UNL     1      35.028   3.086  46.447  1.00  0.00    -0.003 A 
HETATM   20  C14 UNL     1      35.265   3.704  45.304  1.00  0.00    -0.022 A 
HETATM   21  C15 UNL     1      34.615   4.683  44.404  1.00  0.00     0.063 A 
HETATM   22  P1  UNL     1      32.984   5.145  45.152  1.00  0.00    -0.096 P 
HETATM   23  H18 UNL     1      32.985   6.542  45.532  1.00  0.00     0.062 HD
ENDBRANCH  16  17
ENDBRANCH  15  16
ENDBRANCH  11  13
ENDBRANCH   7  11
BRANCH  10  24
HETATM   24  O2  UNL     1      25.123   2.836  50.525  1.00  0.00    -0.347 OA
BRANCH  24  25
HETATM   25  C19 UNL     1      25.560   2.394  51.760  1.00  0.00     0.206 C 
BRANCH  25  26
HETATM   26  C20 UNL     1      26.567   1.310  51.635  1.00  0.00     0.299 C 
BRANCH  26  27
HETATM   27  N4  UNL     1      27.031   0.771  52.883  1.00  0.00     0.094 N 
HETATM   28  C21 UNL     1      26.107   0.896  53.972  1.00  0.00     0.298 C 
HETATM   29  C22 UNL     1      26.509   0.093  55.163  1.00  0.00     0.198 C 
HETATM   30  O3  UNL     1      27.804  -0.385  55.017  1.00  0.00    -0.388 OA
HETATM   31  C23 UNL     1      28.715   0.602  54.642  1.00  0.00     0.198 C 
HETATM   32  C24 UNL     1      28.310   1.235  53.317  1.00  0.00     0.298 C 
ENDBRANCH  26  27
ENDBRANCH  25  26
ENDBRANCH  24  25
ENDBRANCH  10  24
BRANCH   1  33
HETATM   33  O1  UNL     1      22.923   4.085  49.731  1.00  0.00    -0.353 OA
HETATM   34  C1  UNL     1      21.999   3.706  48.735  1.00  0.00     0.210 C 
ENDBRANCH   1  33
TORSDOF 9
ENDMDL
MODEL 5
REMARK VINA RESULT:      -7.7      2.637      6.147
REMARK  9 active torsions:
REMARK  status: ('A' for Active; 'I' for Inactive)
REMARK    1  A    between atoms: O1_2  and  C2_3 
REMARK    2  A    between atoms: C6_9  and  N3_10 
REMARK    3  A    between atoms: N3_10  and  C7_11 
REMARK    4  A    between atoms: C9_13  and  C10_14 
REMARK    5  A    between atoms: C10_14  and  C11_15 
REMARK    6  A    between atoms: C18_23  and  O2_24 
REMARK    7  A    between atoms: O2_24  and  C19_25 
REMARK    8  A    between atoms: C19_25  and  C20_26 
REMARK    9  A    between atoms: C20_26  and  N4_27 
ROOT
HETATM    1  C2  UNL     1      26.970   0.590  53.198  1.00  0.00     0.103 A 
HETATM    2  C3  UNL     1      26.619  -0.106  54.348  1.00  0.00     0.072 A 
HETATM    3  C4  UNL     1      25.298  -0.516  54.525  1.00  0.00     0.075 A 
HETATM    4  N1  UNL     1      24.880  -1.191  55.604  1.00  0.00    -0.241 NA
HETATM    5  C5  UNL     1      23.591  -1.573  55.737  1.00  0.00     0.235 A 
HETATM    6  N2  UNL     1      22.676  -1.275  54.767  1.00  0.00    -0.224 NA
HETATM    7  C6  UNL     1      23.030  -0.600  53.661  1.00  0.00     0.138 A 
HETATM    8  C16 UNL     1      24.354  -0.232  53.566  1.00  0.00     0.041 A 
HETATM    9  C17 UNL     1      24.766   0.459  52.454  1.00  0.00     0.057 A 
HETATM   10  C18 UNL     1      26.044   0.901  52.200  1.00  0.00     0.103 A 
ENDROOT
BRANCH   7  11
HETATM   11  N3  UNL     1      22.026  -0.312  52.662  1.00  0.00    -0.369 N 
HETATM   12  H6  UNL     1      22.050  -0.659  51.692  1.00  0.00     0.161 HD
BRANCH  11  13
HETATM   13  C7  UNL     1      20.949   0.531  53.154  1.00  0.00     0.088 A 
HETATM   14  C8  UNL     1      21.021   1.912  52.499  1.00  0.00     0.032 A 
HETATM   15  C9  UNL     1      19.833   1.012  52.346  1.00  0.00     0.014 A 
BRANCH  15  16
HETATM   16  C10 UNL     1      19.497   0.537  50.978  1.00  0.00     0.046 C 
BRANCH  16  17
HETATM   17  C11 UNL     1      20.200   1.251  49.878  1.00  0.00    -0.055 A 
HETATM   18  C12 UNL     1      21.375   0.948  49.348  1.00  0.00     0.007 A 
HETATM   19  C13 UNL     1      21.990   1.692  48.280  1.00  0.00    -0.003 A 
HETATM   20  C14 UNL     1      21.364   2.742  47.782  1.00  0.00    -0.022 A 
HETATM   21  C15 UNL     1      20.101   3.491  47.978  1.00  0.00     0.063 A 
HETATM   22  P1  UNL     1      19.156   2.661  49.339  1.00  0.00    -0.096 P 
HETATM   23  H18 UNL     1      19.045   3.544  50.482  1.00  0.00     0.062 HD
ENDBRANCH  16  17
ENDBRANCH  15  16
ENDBRANCH  11  13
ENDBRANCH   7  11
BRANCH  10  24
HETATM   24  O2  UNL     1      26.652   1.577  51.210  1.00  0.00    -0.347 OA
BRANCH  24  25
HETATM   25  C19 UNL     1      26.698   2.925  50.907  1.00  0.00     0.206 C 
BRANCH  25  26
HETATM   26  C20 UNL     1      25.782   3.274  49.792  1.00  0.00     0.299 C 
BRANCH  26  27
HETATM   27  N4  UNL     1      24.808   4.282  50.104  1.00  0.00     0.094 N 
HETATM   28  C21 UNL     1      23.799   3.874  51.038  1.00  0.00     0.298 C 
HETATM   29  C22 UNL     1      22.980   5.017  51.536  1.00  0.00     0.198 C 
HETATM   30  O3  UNL     1      23.231   6.161  50.790  1.00  0.00    -0.388 OA
HETATM   31  C23 UNL     1      23.161   5.947  49.415  1.00  0.00     0.198 C 
HETATM   32  C24 UNL     1      24.169   4.889  48.981  1.00  0.00     0.298 C 
ENDBRANCH  26  27
ENDBRANCH  25  26
ENDBRANCH  24  25
ENDBRANCH  10  24
BRANCH   1  33
HETATM   33  O1  UNL     1      28.300   0.917  53.179  1.00  0.00    -0.353 OA
HETATM   34  C1  UNL     1      29.287   0.188  53.876  1.00  0.00     0.210 C 
ENDBRANCH   1  33
TORSDOF 9
ENDMDL
MODEL 6
REMARK VINA RESULT:      -7.6      3.132      6.873
REMARK  9 active torsions:
REMARK  status: ('A' for Active; 'I' for Inactive)
REMARK    1  A    between atoms: O1_2  and  C2_3 
REMARK    2  A    between atoms: C6_9  and  N3_10 
REMARK    3  A    between atoms: N3_10  and  C7_11 
REMARK    4  A    between atoms: C9_13  and  C10_14 
REMARK    5  A    between atoms: C10_14  and  C11_15 
REMARK    6  A    between atoms: C18_23  and  O2_24 
REMARK    7  A    between atoms: O2_24  and  C19_25 
REMARK    8  A    between atoms: C19_25  and  C20_26 
REMARK    9  A    between atoms: C20_26  and  N4_27 
ROOT
HETATM    1  C2  UNL     1      20.707  -0.222  53.014  1.00  0.00     0.103 A 
HETATM    2  C3  UNL     1      21.061  -0.795  54.229  1.00  0.00     0.072 A 
HETATM    3  C4  UNL     1      22.408  -0.923  54.561  1.00  0.00     0.075 A 
HETATM    4  N1  UNL     1      22.830  -1.464  55.712  1.00  0.00    -0.241 NA
HETATM    5  C5  UNL     1      24.146  -1.569  55.998  1.00  0.00     0.235 A 
HETATM    6  N2  UNL     1      25.085  -1.123  55.112  1.00  0.00    -0.224 NA
HETATM    7  C6  UNL     1      24.730  -0.571  53.940  1.00  0.00     0.138 A 
HETATM    8  C16 UNL     1      23.378  -0.484  53.690  1.00  0.00     0.041 A 
HETATM    9  C17 UNL     1      22.963   0.074  52.507  1.00  0.00     0.057 A 
HETATM   10  C18 UNL     1      21.659   0.238  52.100  1.00  0.00     0.103 A 
ENDROOT
BRANCH   7  11
HETATM   11  N3  UNL     1      25.761  -0.112  53.038  1.00  0.00    -0.369 N 
HETATM   12  H6  UNL     1      26.009  -0.574  52.150  1.00  0.00     0.161 HD
BRANCH  11  13
HETATM   13  C7  UNL     1      26.436   1.090  53.498  1.00  0.00     0.088 A 
HETATM   14  C8  UNL     1      27.747   1.282  52.733  1.00  0.00     0.032 A 
HETATM   15  C9  UNL     1      26.640   2.290  52.694  1.00  0.00     0.014 A 
BRANCH  15  16
HETATM   16  C10 UNL     1      25.999   2.562  51.381  1.00  0.00     0.046 C 
BRANCH  16  17
HETATM   17  C11 UNL     1      24.773   3.402  51.445  1.00  0.00    -0.055 A 
HETATM   18  C12 UNL     1      23.976   3.579  52.487  1.00  0.00     0.007 A 
HETATM   19  C13 UNL     1      22.802   4.413  52.469  1.00  0.00    -0.003 A 
HETATM   20  C14 UNL     1      22.482   5.050  51.358  1.00  0.00    -0.022 A 
HETATM   21  C15 UNL     1      22.983   5.210  49.974  1.00  0.00     0.063 A 
HETATM   22  P1  UNL     1      24.522   4.192  49.807  1.00  0.00    -0.096 P 
HETATM   23  H18 UNL     1      24.309   3.113  48.864  1.00  0.00     0.062 HD
ENDBRANCH  16  17
ENDBRANCH  15  16
ENDBRANCH  11  13
ENDBRANCH   7  11
BRANCH  10  24
HETATM   24  O2  UNL     1      21.042   0.739  51.016  1.00  0.00    -0.347 OA
BRANCH  24  25
HETATM   25  C19 UNL     1      21.381   1.766  50.154  1.00  0.00     0.206 C 
BRANCH  25  26
HETATM   26  C20 UNL     1      21.406   1.316  48.739  1.00  0.00     0.299 C 
BRANCH  26  27
HETATM   27  N4  UNL     1      21.025   2.316  47.782  1.00  0.00     0.094 N 
HETATM   28  C21 UNL     1      22.117   2.910  47.067  1.00  0.00     0.298 C 
HETATM   29  C22 UNL     1      21.666   3.734  45.908  1.00  0.00     0.198 C 
HETATM   30  O3  UNL     1      20.291   3.926  45.949  1.00  0.00    -0.388 OA
HETATM   31  C23 UNL     1      19.835   4.364  47.191  1.00  0.00     0.198 C 
HETATM   32  C24 UNL     1      20.188   3.359  48.281  1.00  0.00     0.298 C 
ENDBRANCH  26  27
ENDBRANCH  25  26
ENDBRANCH  24  25
ENDBRANCH  10  24
BRANCH   1  33
HETATM   33  O1  UNL     1      19.350  -0.170  52.843  1.00  0.00    -0.353 OA
HETATM   34  C1  UNL     1      18.471  -1.167  53.316  1.00  0.00     0.210 C 
ENDBRANCH   1  33
TORSDOF 9
ENDMDL
MODEL 7
REMARK VINA RESULT:      -7.5      1.935      3.332
REMARK  9 active torsions:
REMARK  status: ('A' for Active; 'I' for Inactive)
REMARK    1  A    between atoms: O1_2  and  C2_3 
REMARK    2  A    between atoms: C6_9  and  N3_10 
REMARK    3  A    between atoms: N3_10  and  C7_11 
REMARK    4  A    between atoms: C9_13  and  C10_14 
REMARK    5  A    between atoms: C10_14  and  C11_15 
REMARK    6  A    between atoms: C18_23  and  O2_24 
REMARK    7  A    between atoms: O2_24  and  C19_25 
REMARK    8  A    between atoms: C19_25  and  C20_26 
REMARK    9  A    between atoms: C20_26  and  N4_27 
ROOT
HETATM    1  C2  UNL     1      22.757   0.039  53.510  1.00  0.00     0.103 A 
HETATM    2  C3  UNL     1      21.473  -0.433  53.271  1.00  0.00     0.072 A 
HETATM    3  C4  UNL     1      20.610   0.306  52.463  1.00  0.00     0.075 A 
HETATM    4  N1  UNL     1      19.358  -0.081  52.184  1.00  0.00    -0.241 NA
HETATM    5  C5  UNL     1      18.553   0.662  51.395  1.00  0.00     0.235 A 
HETATM    6  N2  UNL     1      19.000   1.837  50.859  1.00  0.00    -0.224 NA
HETATM    7  C6  UNL     1      20.245   2.282  51.100  1.00  0.00     0.138 A 
HETATM    8  C16 UNL     1      21.031   1.492  51.909  1.00  0.00     0.041 A 
HETATM    9  C17 UNL     1      22.311   1.903  52.184  1.00  0.00     0.057 A 
HETATM   10  C18 UNL     1      23.226   1.239  52.969  1.00  0.00     0.103 A 
ENDROOT
BRANCH   7  11
HETATM   11  N3  UNL     1      20.671   3.529  50.508  1.00  0.00    -0.369 N 
HETATM   12  H6  UNL     1      20.709   4.431  51.007  1.00  0.00     0.161 HD
BRANCH  11  13
HETATM   13  C7  UNL     1      21.054   3.403  49.111  1.00  0.00     0.088 A 
HETATM   14  C8  UNL     1      20.543   4.606  48.316  1.00  0.00     0.032 A 
HETATM   15  C9  UNL     1      22.000   4.278  48.426  1.00  0.00     0.014 A 
BRANCH  15  16
HETATM   16  C10 UNL     1      22.884   5.272  49.088  1.00  0.00     0.046 C 
BRANCH  16  17
HETATM   17  C11 UNL     1      24.327   4.909  49.111  1.00  0.00    -0.055 A 
HETATM   18  C12 UNL     1      24.852   3.729  49.402  1.00  0.00     0.007 A 
HETATM   19  C13 UNL     1      26.266   3.456  49.402  1.00  0.00    -0.003 A 
HETATM   20  C14 UNL     1      27.108   4.425  49.096  1.00  0.00    -0.022 A 
HETATM   21  C15 UNL     1      27.080   5.854  48.710  1.00  0.00     0.063 A 
HETATM   22  P1  UNL     1      25.308   6.391  48.654  1.00  0.00    -0.096 P 
HETATM   23  H18 UNL     1      25.051   7.380  49.680  1.00  0.00     0.062 HD
ENDBRANCH  16  17
ENDBRANCH  15  16
ENDBRANCH  11  13
ENDBRANCH   7  11
BRANCH  10  24
HETATM   24  O2  UNL     1      24.493   1.452  53.364  1.00  0.00    -0.347 OA
BRANCH  24  25
HETATM   25  C19 UNL     1      25.600   1.934  52.691  1.00  0.00     0.206 C 
BRANCH  25  26
HETATM   26  C20 UNL     1      26.379   0.842  52.053  1.00  0.00     0.299 C 
BRANCH  26  27
HETATM   27  N4  UNL     1      27.648   0.568  52.668  1.00  0.00     0.094 N 
HETATM   28  C21 UNL     1      27.830  -0.790  53.091  1.00  0.00     0.298 C 
HETATM   29  C22 UNL     1      29.241  -1.090  53.469  1.00  0.00     0.198 C 
HETATM   30  O3  UNL     1      29.985   0.079  53.556  1.00  0.00    -0.388 OA
HETATM   31  C23 UNL     1      29.370   1.066  54.325  1.00  0.00     0.198 C 
HETATM   32  C24 UNL     1      28.009   1.432  53.746  1.00  0.00     0.298 C 
ENDBRANCH  26  27
ENDBRANCH  25  26
ENDBRANCH  24  25
ENDBRANCH  10  24
BRANCH   1  33
HETATM   33  O1  UNL     1      23.474  -0.802  54.319  1.00  0.00    -0.353 OA
HETATM   34  C1  UNL     1      22.913  -1.481  55.421  1.00  0.00     0.210 C 
ENDBRANCH   1  33
TORSDOF 9
ENDMDL
MODEL 8
REMARK VINA RESULT:      -7.4      5.339      7.811
REMARK  9 active torsions:
REMARK  status: ('A' for Active; 'I' for Inactive)
REMARK    1  A    between atoms: O1_2  and  C2_3 
REMARK    2  A    between atoms: C6_9  and  N3_10 
REMARK    3  A    between atoms: N3_10  and  C7_11 
REMARK    4  A    between atoms: C9_13  and  C10_14 
REMARK    5  A    between atoms: C10_14  and  C11_15 
REMARK    6  A    between atoms: C18_23  and  O2_24 
REMARK    7  A    between atoms: O2_24  and  C19_25 
REMARK    8  A    between atoms: C19_25  and  C20_26 
REMARK    9  A    between atoms: C20_26  and  N4_27 
ROOT
HETATM    1  C2  UNL     1      27.344   7.333  47.854  1.00  0.00     0.103 A 
HETATM    2  C3  UNL     1      25.989   7.602  47.711  1.00  0.00     0.072 A 
HETATM    3  C4  UNL     1      25.054   6.677  48.172  1.00  0.00     0.075 A 
HETATM    4  N1  UNL     1      23.730   6.863  48.073  1.00  0.00    -0.241 NA
HETATM    5  C5  UNL     1      22.856   5.943  48.534  1.00  0.00     0.235 A 
HETATM    6  N2  UNL     1      23.304   4.791  49.117  1.00  0.00    -0.224 NA
HETATM    7  C6  UNL     1      24.618   4.543  49.248  1.00  0.00     0.138 A 
HETATM    8  C16 UNL     1      25.474   5.509  48.764  1.00  0.00     0.041 A 
HETATM    9  C17 UNL     1      26.826   5.303  48.875  1.00  0.00     0.057 A 
HETATM   10  C18 UNL     1      27.815   6.159  48.447  1.00  0.00     0.103 A 
ENDROOT
BRANCH   7  11
HETATM   11  N3  UNL     1      25.042   3.312  49.874  1.00  0.00    -0.369 N 
HETATM   12  H6  UNL     1      25.693   2.634  49.449  1.00  0.00     0.161 HD
BRANCH  11  13
HETATM   13  C7  UNL     1      24.459   3.104  51.189  1.00  0.00     0.088 A 
HETATM   14  C8  UNL     1      23.527   1.892  51.164  1.00  0.00     0.032 A 
HETATM   15  C9  UNL     1      24.734   1.957  52.048  1.00  0.00     0.014 A 
BRANCH  15  16
HETATM   16  C10 UNL     1      25.809   0.955  51.825  1.00  0.00     0.046 C 
BRANCH  16  17
HETATM   17  C11 UNL     1      27.025   1.146  52.660  1.00  0.00    -0.055 A 
HETATM   18  C12 UNL     1      27.618   2.290  52.963  1.00  0.00     0.007 A 
HETATM   19  C13 UNL     1      28.798   2.392  53.781  1.00  0.00    -0.003 A 
HETATM   20  C14 UNL     1      29.339   1.292  54.271  1.00  0.00    -0.022 A 
HETATM   21  C15 UNL     1      29.111  -0.171  54.257  1.00  0.00     0.063 A 
HETATM   22  P1  UNL     1      27.601  -0.500  53.234  1.00  0.00    -0.096 P 
HETATM   23  H18 UNL     1      27.955  -1.244  52.044  1.00  0.00     0.062 HD
ENDBRANCH  16  17
ENDBRANCH  15  16
ENDBRANCH  11  13
ENDBRANCH   7  11
BRANCH  10  24
HETATM   24  O2  UNL     1      29.159   6.159  48.451  1.00  0.00    -0.347 OA
BRANCH  24  25
HETATM   25  C19 UNL     1      30.083   5.286  47.906  1.00  0.00     0.206 C 
BRANCH  25  26
HETATM   26  C20 UNL     1      31.473   5.643  48.284  1.00  0.00     0.299 C 
BRANCH  26  27
HETATM   27  N4  UNL     1      32.443   4.606  48.066  1.00  0.00     0.094 N 
HETATM   28  C21 UNL     1      33.791   5.068  47.909  1.00  0.00     0.298 C 
HETATM   29  C22 UNL     1      34.788   3.959  47.957  1.00  0.00     0.198 C 
HETATM   30  O3  UNL     1      34.152   2.726  47.895  1.00  0.00    -0.388 OA
HETATM   31  C23 UNL     1      33.227   2.636  46.857  1.00  0.00     0.198 C 
HETATM   32  C24 UNL     1      32.146   3.699  47.004  1.00  0.00     0.298 C 
ENDBRANCH  26  27
ENDBRANCH  25  26
ENDBRANCH  24  25
ENDBRANCH  10  24
BRANCH   1  33
HETATM   33  O1  UNL     1      28.126   8.339  47.352  1.00  0.00    -0.353 OA
HETATM   34  C1  UNL     1      28.358   8.525  45.973  1.00  0.00     0.210 C 
ENDBRANCH   1  33
TORSDOF 9
ENDMDL
MODEL 9
REMARK VINA RESULT:      -7.3      3.750      7.006
REMARK  9 active torsions:
REMARK  status: ('A' for Active; 'I' for Inactive)
REMARK    1  A    between atoms: O1_2  and  C2_3 
REMARK    2  A    between atoms: C6_9  and  N3_10 
REMARK    3  A    between atoms: N3_10  and  C7_11 
REMARK    4  A    between atoms: C9_13  and  C10_14 
REMARK    5  A    between atoms: C10_14  and  C11_15 
REMARK    6  A    between atoms: C18_23  and  O2_24 
REMARK    7  A    between atoms: O2_24  and  C19_25 
REMARK    8  A    between atoms: C19_25  and  C20_26 
REMARK    9  A    between atoms: C20_26  and  N4_27 
ROOT
HETATM    1  C2  UNL     1      27.144   0.718  53.316  1.00  0.00     0.103 A 
HETATM    2  C3  UNL     1      26.733  -0.036  54.408  1.00  0.00     0.072 A 
HETATM    3  C4  UNL     1      25.400  -0.429  54.507  1.00  0.00     0.075 A 
HETATM    4  N1  UNL     1      24.926  -1.157  55.527  1.00  0.00    -0.241 NA
HETATM    5  C5  UNL     1      23.627  -1.521  55.587  1.00  0.00     0.235 A 
HETATM    6  N2  UNL     1      22.758  -1.151  54.599  1.00  0.00    -0.224 NA
HETATM    7  C6  UNL     1      23.168  -0.420  53.549  1.00  0.00     0.138 A 
HETATM    8  C16 UNL     1      24.501  -0.072  53.529  1.00  0.00     0.041 A 
HETATM    9  C17 UNL     1      24.970   0.673  52.477  1.00  0.00     0.057 A 
HETATM   10  C18 UNL     1      26.265   1.104  52.300  1.00  0.00     0.103 A 
ENDROOT
BRANCH   7  11
HETATM   11  N3  UNL     1      22.211  -0.056  52.529  1.00  0.00    -0.369 N 
HETATM   12  H6  UNL     1      22.120  -0.529  51.617  1.00  0.00     0.161 HD
BRANCH  11  13
HETATM   13  C7  UNL     1      21.365   1.064  52.907  1.00  0.00     0.088 A 
HETATM   14  C8  UNL     1      21.432   2.157  51.839  1.00  0.00     0.032 A 
HETATM   15  C9  UNL     1      20.153   1.466  52.200  1.00  0.00     0.014 A 
BRANCH  15  16
HETATM   16  C10 UNL     1      19.473   0.673  51.142  1.00  0.00     0.046 C 
BRANCH  16  17
HETATM   17  C11 UNL     1      18.351  -0.177  51.622  1.00  0.00    -0.055 A 
HETATM   18  C12 UNL     1      18.303  -0.886  52.740  1.00  0.00     0.007 A 
HETATM   19  C13 UNL     1      17.174  -1.688  53.136  1.00  0.00    -0.003 A 
HETATM   20  C14 UNL     1      16.112  -1.734  52.354  1.00  0.00    -0.022 A 
HETATM   21  C15 UNL     1      15.643  -1.175  51.065  1.00  0.00     0.063 A 
HETATM   22  P1  UNL     1      16.989  -0.093  50.395  1.00  0.00    -0.096 P 
HETATM   23  H18 UNL     1      17.515  -0.650  49.166  1.00  0.00     0.062 HD
ENDBRANCH  16  17
ENDBRANCH  15  16
ENDBRANCH  11  13
ENDBRANCH   7  11
BRANCH  10  24
HETATM   24  O2  UNL     1      26.925   1.823  51.377  1.00  0.00    -0.347 OA
BRANCH  24  25
HETATM   25  C19 UNL     1      26.481   2.657  50.366  1.00  0.00     0.206 C 
BRANCH  25  26
HETATM   26  C20 UNL     1      25.396   3.559  50.828  1.00  0.00     0.299 C 
BRANCH  26  27
HETATM   27  N4  UNL     1      25.241   4.760  50.057  1.00  0.00     0.094 N 
HETATM   28  C21 UNL     1      24.110   4.767  49.176  1.00  0.00     0.298 C 
HETATM   29  C22 UNL     1      23.834   6.117  48.604  1.00  0.00     0.198 C 
HETATM   30  O3  UNL     1      24.885   6.986  48.870  1.00  0.00    -0.388 OA
HETATM   31  C23 UNL     1      26.132   6.456  48.543  1.00  0.00     0.198 C 
HETATM   32  C24 UNL     1      26.394   5.172  49.321  1.00  0.00     0.298 C 
ENDBRANCH  26  27
ENDBRANCH  25  26
ENDBRANCH  24  25
ENDBRANCH  10  24
BRANCH   1  33
HETATM   33  O1  UNL     1      28.479   1.020  53.369  1.00  0.00    -0.353 OA
HETATM   34  C1  UNL     1      29.460   0.111  53.816  1.00  0.00     0.210 C 
ENDBRANCH   1  33
TORSDOF 9
ENDMDL
