MODEL 1
REMARK VINA RESULT:      -7.9      0.000      0.000
REMARK  6 active torsions:
REMARK  status: ('A' for Active; 'I' for Inactive)
REMARK    1  A    between atoms: C2_2  and  C3_3 
REMARK    2  A    between atoms: C4_4  and  C5_5 
REMARK    3  A    between atoms: C10_10  and  C11_11 
REMARK    4  A    between atoms: N1_13  and  C12_14 
REMARK    5  A    between atoms: C12_14  and  C13_15 
REMARK    6  A    between atoms: C15_18  and  C16_19 
ROOT
HETATM    1  C5  UNL     1      27.223   1.712  52.946  1.00  0.00     0.025 C 
HETATM    2  C6  UNL     1      26.247   2.027  52.061  1.00  0.00     0.013 C 
HETATM    3  C7  UNL     1      25.724   2.715  50.827  1.00  0.00     0.057 C 
HETATM    4  C8  UNL     1      25.637   3.433  49.719  1.00  0.00    -0.003 C 
HETATM    5  C9  UNL     1      26.920   4.088  49.182  1.00  0.00     0.019 C 
HETATM    6  C10 UNL     1      24.436   3.905  49.118  1.00  0.00     0.103 C 
HETATM    7  N1  UNL     1      23.189   3.221  48.792  1.00  0.00    -0.394 N 
HETATM    8  C14 UNL     1      22.143   2.222  48.769  1.00  0.00     0.059 A 
HETATM    9  C15 UNL     1      21.564   1.198  49.627  1.00  0.00     0.025 A 
HETATM   10  C16 UNL     1      21.721   0.570  50.942  1.00  0.00     0.017 A 
HETATM   11  C17 UNL     1      22.431   0.511  52.141  1.00  0.00     0.040 A 
HETATM   12  C18 UNL     1      22.641   1.378  50.990  1.00  0.00     0.089 A 
HETATM   13  C19 UNL     1      22.951   2.267  49.958  1.00  0.00     0.015 A 
HETATM   14  C20 UNL     1      23.628   1.448  52.468  1.00  0.00     0.183 A 
HETATM   15  O1  UNL     1      23.087   2.368  53.213  1.00  0.00    -0.204 OA
HETATM   16  N2  UNL     1      24.996   1.252  52.002  1.00  0.00    -0.358 N 
HETATM   17  H24 UNL     1      25.001   0.299  51.501  1.00  0.00     0.162 HD
ENDROOT
BRANCH   1  18
HETATM   18  C4  UNL     1      26.660   0.871  53.967  1.00  0.00    -0.002 C 
HETATM   19  C3  UNL     1      27.805   0.237  54.340  1.00  0.00    -0.027 C 
BRANCH  19  20
HETATM   20  C2  UNL     1      29.107   0.463  53.756  1.00  0.00     0.022 C 
HETATM   21  C1  UNL     1      29.749  -0.918  53.495  1.00  0.00     0.009 C 
ENDBRANCH  19  20
ENDBRANCH   1  18
BRANCH   6  22
HETATM   22  C11 UNL     1      24.069   5.308  49.724  1.00  0.00     0.140 C 
HETATM   23 CL1  UNL     1      23.555   5.228  51.396  1.00  0.00    -0.128 Cl
ENDBRANCH   6  22
BRANCH   7  24
HETATM   24  C12 UNL     1      22.434   4.159  47.945  1.00  0.00     0.133 C 
BRANCH  24  25
HETATM   25  C13 UNL     1      21.937   3.438  46.667  1.00  0.00     0.134 C 
HETATM   26 CL2  UNL     1      21.963   4.564  45.252  1.00  0.00    -0.129 Cl
ENDBRANCH  24  25
ENDBRANCH   7  24
TORSDOF 6
ENDMDL
MODEL 2
REMARK VINA RESULT:      -7.5      2.844      5.438
REMARK  6 active torsions:
REMARK  status: ('A' for Active; 'I' for Inactive)
REMARK    1  A    between atoms: C2_2  and  C3_3 
REMARK    2  A    between atoms: C4_4  and  C5_5 
REMARK    3  A    between atoms: C10_10  and  C11_11 
REMARK    4  A    between atoms: N1_13  and  C12_14 
REMARK    5  A    between atoms: C12_14  and  C13_15 
REMARK    6  A    between atoms: C15_18  and  C16_19 
ROOT
HETATM    1  C5  UNL     1      25.146   3.455  49.372  1.00  0.00     0.025 C 
HETATM    2  C6  UNL     1      24.242   2.795  50.133  1.00  0.00     0.013 C 
HETATM    3  C7  UNL     1      22.848   2.322  50.457  1.00  0.00     0.057 C 
HETATM    4  C8  UNL     1      21.547   2.091  50.407  1.00  0.00    -0.003 C 
HETATM    5  C9  UNL     1      20.766   2.627  49.195  1.00  0.00     0.019 C 
HETATM    6  C10 UNL     1      20.731   1.647  51.486  1.00  0.00     0.103 C 
HETATM    7  N1  UNL     1      20.904   0.554  52.437  1.00  0.00    -0.394 N 
HETATM    8  C14 UNL     1      21.523  -0.500  53.210  1.00  0.00     0.059 A 
HETATM    9  C15 UNL     1      22.821  -0.861  53.762  1.00  0.00     0.025 A 
HETATM   10  C16 UNL     1      24.216  -0.413  53.817  1.00  0.00     0.017 A 
HETATM   11  C17 UNL     1      25.162   0.539  53.440  1.00  0.00     0.040 A 
HETATM   12  C18 UNL     1      23.740   0.483  53.129  1.00  0.00     0.089 A 
HETATM   13  C19 UNL     1      22.395   0.550  52.759  1.00  0.00     0.015 A 
HETATM   14  C20 UNL     1      24.815   1.794  52.589  1.00  0.00     0.183 A 
HETATM   15  O1  UNL     1      24.705   2.734  53.482  1.00  0.00    -0.204 OA
HETATM   16  N2  UNL     1      24.671   1.807  51.138  1.00  0.00    -0.358 N 
HETATM   17  H24 UNL     1      24.958   0.824  50.807  1.00  0.00     0.162 HD
ENDROOT
BRANCH   1  18
HETATM   18  C4  UNL     1      26.439   3.333  49.988  1.00  0.00    -0.002 C 
HETATM   19  C3  UNL     1      26.959   4.519  49.571  1.00  0.00    -0.027 C 
BRANCH  19  20
HETATM   20  C2  UNL     1      26.269   5.483  48.744  1.00  0.00     0.022 C 
HETATM   21  C1  UNL     1      27.310   6.521  48.268  1.00  0.00     0.009 C 
ENDBRANCH  19  20
ENDBRANCH   1  18
BRANCH   6  22
HETATM   22  C11 UNL     1      20.198   2.893  52.280  1.00  0.00     0.140 C 
HETATM   23 CL1  UNL     1      18.646   3.469  51.705  1.00  0.00    -0.128 Cl
ENDBRANCH   6  22
BRANCH   7  24
HETATM   24  C12 UNL     1      19.612   0.425  53.130  1.00  0.00     0.133 C 
BRANCH  24  25
HETATM   25  C13 UNL     1      18.669  -0.506  52.327  1.00  0.00     0.134 C 
HETATM   26 CL2  UNL     1      18.020  -1.819  53.387  1.00  0.00    -0.129 Cl
ENDBRANCH  24  25
ENDBRANCH   7  24
TORSDOF 6
ENDMDL
MODEL 3
REMARK VINA RESULT:      -7.1      3.664      5.344
REMARK  6 active torsions:
REMARK  status: ('A' for Active; 'I' for Inactive)
REMARK    1  A    between atoms: C2_2  and  C3_3 
REMARK    2  A    between atoms: C4_4  and  C5_5 
REMARK    3  A    between atoms: C10_10  and  C11_11 
REMARK    4  A    between atoms: N1_13  and  C12_14 
REMARK    5  A    between atoms: C12_14  and  C13_15 
REMARK    6  A    between atoms: C15_18  and  C16_19 
ROOT
HETATM    1  C5  UNL     1      26.409   2.937  50.456  1.00  0.00     0.025 C 
HETATM    2  C6  UNL     1      26.332   4.079  49.732  1.00  0.00     0.013 C 
HETATM    3  C7  UNL     1      26.931   5.197  48.918  1.00  0.00     0.057 C 
HETATM    4  C8  UNL     1      27.782   5.975  48.271  1.00  0.00    -0.003 C 
HETATM    5  C9  UNL     1      29.259   5.548  48.227  1.00  0.00     0.019 C 
HETATM    6  C10 UNL     1      27.541   7.312  47.848  1.00  0.00     0.103 C 
HETATM    7  N1  UNL     1      26.423   7.906  47.122  1.00  0.00    -0.394 N 
HETATM    8  C14 UNL     1      25.112   8.081  46.536  1.00  0.00     0.059 A 
HETATM    9  C15 UNL     1      23.731   7.675  46.756  1.00  0.00     0.025 A 
HETATM   10  C16 UNL     1      22.898   6.848  47.635  1.00  0.00     0.017 A 
HETATM   11  C17 UNL     1      22.835   5.986  48.729  1.00  0.00     0.040 A 
HETATM   12  C18 UNL     1      23.995   6.644  48.142  1.00  0.00     0.089 A 
HETATM   13  C19 UNL     1      25.184   7.212  47.679  1.00  0.00     0.015 A 
HETATM   14  C20 UNL     1      24.081   5.585  49.569  1.00  0.00     0.183 A 
HETATM   15  O1  UNL     1      24.007   6.374  50.601  1.00  0.00    -0.204 OA
HETATM   16  N2  UNL     1      25.044   4.554  49.198  1.00  0.00    -0.358 N 
HETATM   17  H24 UNL     1      24.646   4.087  48.314  1.00  0.00     0.162 HD
ENDROOT
BRANCH   1  18
HETATM   18  C4  UNL     1      25.089   2.591  50.908  1.00  0.00    -0.002 C 
HETATM   19  C3  UNL     1      25.434   1.558  51.722  1.00  0.00    -0.027 C 
BRANCH  19  20
HETATM   20  C2  UNL     1      26.782   1.082  51.934  1.00  0.00     0.022 C 
HETATM   21  C1  UNL     1      26.704  -0.437  52.209  1.00  0.00     0.009 C 
ENDBRANCH  19  20
ENDBRANCH   1  18
BRANCH   6  22
HETATM   22  C11 UNL     1      27.944   8.302  49.000  1.00  0.00     0.140 C 
HETATM   23 CL1  UNL     1      26.723   8.448  50.247  1.00  0.00    -0.128 Cl
ENDBRANCH   6  22
BRANCH   7  24
HETATM   24  C12 UNL     1      26.870   9.257  46.743  1.00  0.00     0.133 C 
BRANCH  24  25
HETATM   25  C13 UNL     1      27.145   9.316  45.219  1.00  0.00     0.134 C 
HETATM   26 CL2  UNL     1      28.725   8.528  44.829  1.00  0.00    -0.129 Cl
ENDBRANCH  24  25
ENDBRANCH   7  24
TORSDOF 6
ENDMDL
MODEL 4
REMARK VINA RESULT:      -7.1      2.561      4.189
REMARK  6 active torsions:
REMARK  status: ('A' for Active; 'I' for Inactive)
REMARK    1  A    between atoms: C2_2  and  C3_3 
REMARK    2  A    between atoms: C4_4  and  C5_5 
REMARK    3  A    between atoms: C10_10  and  C11_11 
REMARK    4  A    between atoms: N1_13  and  C12_14 
REMARK    5  A    between atoms: C12_14  and  C13_15 
REMARK    6  A    between atoms: C15_18  and  C16_19 
ROOT
HETATM    1  C5  UNL     1      26.273   1.103  52.642  1.00  0.00     0.025 C 
HETATM    2  C6  UNL     1      25.067   1.598  52.278  1.00  0.00     0.013 C 
HETATM    3  C7  UNL     1      23.573   1.501  52.099  1.00  0.00     0.057 C 
HETATM    4  C8  UNL     1      22.324   1.065  52.098  1.00  0.00    -0.003 C 
HETATM    5  C9  UNL     1      22.049  -0.333  52.678  1.00  0.00     0.019 C 
HETATM    6  C10 UNL     1      21.241   1.624  51.365  1.00  0.00     0.103 C 
HETATM    7  N1  UNL     1      20.776   3.001  51.232  1.00  0.00    -0.394 N 
HETATM    8  C14 UNL     1      20.752   4.447  51.282  1.00  0.00     0.059 A 
HETATM    9  C15 UNL     1      21.666   5.578  51.209  1.00  0.00     0.025 A 
HETATM   10  C16 UNL     1      23.090   5.905  51.095  1.00  0.00     0.017 A 
HETATM   11  C17 UNL     1      24.400   5.439  50.987  1.00  0.00     0.040 A 
HETATM   12  C18 UNL     1      23.160   4.681  51.084  1.00  0.00     0.089 A 
HETATM   13  C19 UNL     1      22.050   3.838  51.169  1.00  0.00     0.015 A 
HETATM   14  C20 UNL     1      24.764   3.929  50.923  1.00  0.00     0.183 A 
HETATM   15  O1  UNL     1      24.931   3.720  49.650  1.00  0.00    -0.204 OA
HETATM   16  N2  UNL     1      24.867   3.043  52.077  1.00  0.00    -0.358 N 
HETATM   17  H24 UNL     1      24.750   3.674  52.941  1.00  0.00     0.162 HD
ENDROOT
BRANCH   1  18
HETATM   18  C4  UNL     1      27.274   2.100  52.382  1.00  0.00    -0.002 C 
HETATM   19  C3  UNL     1      28.274   1.565  53.133  1.00  0.00    -0.027 C 
BRANCH  19  20
HETATM   20  C2  UNL     1      28.169   0.350  53.909  1.00  0.00     0.022 C 
HETATM   21  C1  UNL     1      29.476  -0.450  53.705  1.00  0.00     0.009 C 
ENDBRANCH  19  20
ENDBRANCH   1  18
BRANCH   6  22
HETATM   22  C11 UNL     1      21.179   0.959  49.942  1.00  0.00     0.140 C 
HETATM   23 CL1  UNL     1      22.255   1.707  48.780  1.00  0.00    -0.128 Cl
ENDBRANCH   6  22
BRANCH   7  24
HETATM   24  C12 UNL     1      19.464   2.914  50.571  1.00  0.00     0.133 C 
BRANCH  24  25
HETATM   25  C13 UNL     1      18.353   2.676  51.624  1.00  0.00     0.134 C 
HETATM   26 CL2  UNL     1      17.135   4.012  51.575  1.00  0.00    -0.129 Cl
ENDBRANCH  24  25
ENDBRANCH   7  24
TORSDOF 6
ENDMDL
MODEL 5
REMARK VINA RESULT:      -6.9      2.186      3.810
REMARK  6 active torsions:
REMARK  status: ('A' for Active; 'I' for Inactive)
REMARK    1  A    between atoms: C2_2  and  C3_3 
REMARK    2  A    between atoms: C4_4  and  C5_5 
REMARK    3  A    between atoms: C10_10  and  C11_11 
REMARK    4  A    between atoms: N1_13  and  C12_14 
REMARK    5  A    between atoms: C12_14  and  C13_15 
REMARK    6  A    between atoms: C15_18  and  C16_19 
ROOT
HETATM    1  C5  UNL     1      26.849   1.784  53.353  1.00  0.00     0.025 C 
HETATM    2  C6  UNL     1      25.909   2.256  52.502  1.00  0.00     0.013 C 
HETATM    3  C7  UNL     1      24.489   2.415  52.023  1.00  0.00     0.057 C 
HETATM    4  C8  UNL     1      23.172   2.342  51.920  1.00  0.00    -0.003 C 
HETATM    5  C9  UNL     1      22.405   1.588  53.019  1.00  0.00     0.019 C 
HETATM    6  C10 UNL     1      22.403   2.639  50.760  1.00  0.00     0.103 C 
HETATM    7  N1  UNL     1      22.425   3.785  49.857  1.00  0.00    -0.394 N 
HETATM    8  C14 UNL     1      22.866   4.987  49.184  1.00  0.00     0.059 A 
HETATM    9  C15 UNL     1      24.100   5.658  48.799  1.00  0.00     0.025 A 
HETATM   10  C16 UNL     1      25.558   5.541  48.903  1.00  0.00     0.017 A 
HETATM   11  C17 UNL     1      26.649   4.812  49.373  1.00  0.00     0.040 A 
HETATM   12  C18 UNL     1      25.227   4.529  49.512  1.00  0.00     0.089 A 
HETATM   13  C19 UNL     1      23.901   4.143  49.716  1.00  0.00     0.015 A 
HETATM   14  C20 UNL     1      26.508   3.473  50.152  1.00  0.00     0.183 A 
HETATM   15  O1  UNL     1      26.718   2.575  49.235  1.00  0.00    -0.204 OA
HETATM   16  N2  UNL     1      26.208   3.361  51.575  1.00  0.00    -0.358 N 
HETATM   17  H24 UNL     1      26.221   4.367  51.957  1.00  0.00     0.162 HD
ENDROOT
BRANCH   1  18
HETATM   18  C4  UNL     1      28.140   2.224  52.900  1.00  0.00    -0.002 C 
HETATM   19  C3  UNL     1      28.866   1.158  53.332  1.00  0.00    -0.027 C 
BRANCH  19  20
HETATM   20  C2  UNL     1      28.325   0.016  54.035  1.00  0.00     0.022 C 
HETATM   21  C1  UNL     1      29.091  -1.236  53.552  1.00  0.00     0.009 C 
ENDBRANCH  19  20
ENDBRANCH   1  18
BRANCH   6  22
HETATM   22  C11 UNL     1      22.264   1.342  49.884  1.00  0.00     0.140 C 
HETATM   23 CL1  UNL     1      20.837   0.399  50.263  1.00  0.00    -0.128 Cl
ENDBRANCH   6  22
BRANCH   7  24
HETATM   24  C12 UNL     1      21.224   3.649  49.017  1.00  0.00     0.133 C 
BRANCH  24  25
HETATM   25  C13 UNL     1      20.021   4.357  49.690  1.00  0.00     0.134 C 
HETATM   26 CL2  UNL     1      19.173   5.430  48.507  1.00  0.00    -0.129 Cl
ENDBRANCH  24  25
ENDBRANCH   7  24
TORSDOF 6
ENDMDL
MODEL 6
REMARK VINA RESULT:      -6.7      6.309      8.990
REMARK  6 active torsions:
REMARK  status: ('A' for Active; 'I' for Inactive)
REMARK    1  A    between atoms: C2_2  and  C3_3 
REMARK    2  A    between atoms: C4_4  and  C5_5 
REMARK    3  A    between atoms: C10_10  and  C11_11 
REMARK    4  A    between atoms: N1_13  and  C12_14 
REMARK    5  A    between atoms: C12_14  and  C13_15 
REMARK    6  A    between atoms: C15_18  and  C16_19 
ROOT
HETATM    1  C5  UNL     1      31.520   3.956  47.133  1.00  0.00     0.025 C 
HETATM    2  C6  UNL     1      30.845   5.066  47.512  1.00  0.00     0.013 C 
HETATM    3  C7  UNL     1      29.619   5.790  48.004  1.00  0.00     0.057 C 
HETATM    4  C8  UNL     1      28.399   6.064  48.438  1.00  0.00    -0.003 C 
HETATM    5  C9  UNL     1      27.427   4.889  48.643  1.00  0.00     0.019 C 
HETATM    6  C10 UNL     1      27.788   7.349  48.468  1.00  0.00     0.103 C 
HETATM    7  N1  UNL     1      28.270   8.632  48.967  1.00  0.00    -0.394 N 
HETATM    8  C14 UNL     1      29.163   9.667  49.442  1.00  0.00     0.059 A 
HETATM    9  C15 UNL     1      30.548  10.093  49.300  1.00  0.00     0.025 A 
HETATM   10  C16 UNL     1      31.811   9.715  48.659  1.00  0.00     0.017 A 
HETATM   11  C17 UNL     1      32.493   8.814  47.843  1.00  0.00     0.040 A 
HETATM   12  C18 UNL     1      31.098   8.801  48.261  1.00  0.00     0.089 A 
HETATM   13  C19 UNL     1      29.746   8.670  48.586  1.00  0.00     0.015 A 
HETATM   14  C20 UNL     1      31.815   7.579  47.185  1.00  0.00     0.183 A 
HETATM   15  O1  UNL     1      31.572   7.987  45.973  1.00  0.00    -0.204 OA
HETATM   16  N2  UNL     1      31.558   6.309  47.854  1.00  0.00    -0.358 N 
HETATM   17  H24 UNL     1      32.025   6.388  48.820  1.00  0.00     0.162 HD
ENDROOT
BRANCH   1  18
HETATM   18  C4  UNL     1      32.853   4.337  46.754  1.00  0.00    -0.002 C 
HETATM   19  C3  UNL     1      33.414   3.098  46.765  1.00  0.00    -0.027 C 
BRANCH  19  20
HETATM   20  C2  UNL     1      32.719   1.875  47.099  1.00  0.00     0.022 C 
HETATM   21  C1  UNL     1      33.277   1.375  48.451  1.00  0.00     0.009 C 
ENDBRANCH  19  20
ENDBRANCH   1  18
BRANCH   6  22
HETATM   22  C11 UNL     1      27.059   7.609  47.101  1.00  0.00     0.140 C 
HETATM   23 CL1  UNL     1      28.141   8.130  45.827  1.00  0.00    -0.128 Cl
ENDBRANCH   6  22
BRANCH   7  24
HETATM   24  C12 UNL     1      27.095   9.520  48.973  1.00  0.00     0.133 C 
BRANCH  24  25
HETATM   25  C13 UNL     1      26.194   9.201  50.193  1.00  0.00     0.134 C 
HETATM   26 CL2  UNL     1      24.557   8.661  49.647  1.00  0.00    -0.129 Cl
ENDBRANCH  24  25
ENDBRANCH   7  24
TORSDOF 6
ENDMDL
MODEL 7
REMARK VINA RESULT:      -6.7      6.218      8.936
REMARK  6 active torsions:
REMARK  status: ('A' for Active; 'I' for Inactive)
REMARK    1  A    between atoms: C2_2  and  C3_3 
REMARK    2  A    between atoms: C4_4  and  C5_5 
REMARK    3  A    between atoms: C10_10  and  C11_11 
REMARK    4  A    between atoms: N1_13  and  C12_14 
REMARK    5  A    between atoms: C12_14  and  C13_15 
REMARK    6  A    between atoms: C15_18  and  C16_19 
ROOT
HETATM    1  C5  UNL     1      26.229   5.507  48.809  1.00  0.00     0.025 C 
HETATM    2  C6  UNL     1      26.767   6.741  48.669  1.00  0.00     0.013 C 
HETATM    3  C7  UNL     1      26.676   8.233  48.478  1.00  0.00     0.057 C 
HETATM    4  C8  UNL     1      26.214   9.463  48.319  1.00  0.00    -0.003 C 
HETATM    5  C9  UNL     1      24.690   9.666  48.323  1.00  0.00     0.019 C 
HETATM    6  C10 UNL     1      26.959  10.586  47.862  1.00  0.00     0.103 C 
HETATM    7  N1  UNL     1      28.259  11.109  48.269  1.00  0.00    -0.394 N 
HETATM    8  C14 UNL     1      29.574  11.191  48.867  1.00  0.00     0.059 A 
HETATM    9  C15 UNL     1      30.689  10.327  49.224  1.00  0.00     0.025 A 
HETATM   10  C16 UNL     1      31.103   8.920  49.233  1.00  0.00     0.017 A 
HETATM   11  C17 UNL     1      30.775   7.596  48.946  1.00  0.00     0.040 A 
HETATM   12  C18 UNL     1      29.980   8.801  48.756  1.00  0.00     0.089 A 
HETATM   13  C19 UNL     1      29.116   9.873  48.521  1.00  0.00     0.015 A 
HETATM   14  C20 UNL     1      29.422   7.172  48.308  1.00  0.00     0.183 A 
HETATM   15  O1  UNL     1      29.722   7.028  47.051  1.00  0.00    -0.204 OA
HETATM   16  N2  UNL     1      28.169   7.005  49.036  1.00  0.00    -0.358 N 
HETATM   17  H24 UNL     1      28.417   7.126  50.077  1.00  0.00     0.162 HD
ENDROOT
BRANCH   1  18
HETATM   18  C4  UNL     1      27.297   4.554  48.941  1.00  0.00    -0.002 C 
HETATM   19  C3  UNL     1      26.620   3.610  49.650  1.00  0.00    -0.027 C 
BRANCH  19  20
HETATM   20  C2  UNL     1      25.241   3.717  50.069  1.00  0.00     0.022 C 
HETATM   21  C1  UNL     1      24.959   2.559  51.053  1.00  0.00     0.009 C 
ENDBRANCH  19  20
ENDBRANCH   1  18
BRANCH   6  22
HETATM   22  C11 UNL     1      26.884  10.655  46.294  1.00  0.00     0.140 C 
HETATM   23 CL1  UNL     1      27.580   9.255  45.504  1.00  0.00    -0.128 Cl
ENDBRANCH   6  22
BRANCH   7  24
HETATM   24  C12 UNL     1      28.368  12.433  47.633  1.00  0.00     0.133 C 
BRANCH  24  25
HETATM   25  C13 UNL     1      27.888  13.533  48.613  1.00  0.00     0.134 C 
HETATM   26 CL2  UNL     1      26.245  14.125  48.145  1.00  0.00    -0.129 Cl
ENDBRANCH  24  25
ENDBRANCH   7  24
TORSDOF 6
ENDMDL
MODEL 8
REMARK VINA RESULT:      -6.5      6.922      9.756
REMARK  6 active torsions:
REMARK  status: ('A' for Active; 'I' for Inactive)
REMARK    1  A    between atoms: C2_2  and  C3_3 
REMARK    2  A    between atoms: C4_4  and  C5_5 
REMARK    3  A    between atoms: C10_10  and  C11_11 
REMARK    4  A    between atoms: N1_13  and  C12_14 
REMARK    5  A    between atoms: C12_14  and  C13_15 
REMARK    6  A    between atoms: C15_18  and  C16_19 
ROOT
HETATM    1  C5  UNL     1      27.917   4.733  48.666  1.00  0.00     0.025 C 
HETATM    2  C6  UNL     1      28.925   5.511  48.207  1.00  0.00     0.013 C 
HETATM    3  C7  UNL     1      30.334   5.737  47.722  1.00  0.00     0.057 C 
HETATM    4  C8  UNL     1      31.589   5.550  47.347  1.00  0.00    -0.003 C 
HETATM    5  C9  UNL     1      32.136   4.113  47.353  1.00  0.00     0.019 C 
HETATM    6  C10 UNL     1      32.582   6.560  47.208  1.00  0.00     0.103 C 
HETATM    7  N1  UNL     1      32.555   7.850  46.527  1.00  0.00    -0.394 N 
HETATM    8  C14 UNL     1      32.057   9.039  45.870  1.00  0.00     0.059 A 
HETATM    9  C15 UNL     1      30.880   9.896  45.861  1.00  0.00     0.025 A 
HETATM   10  C16 UNL     1      29.544  10.027  46.451  1.00  0.00     0.017 A 
HETATM   11  C17 UNL     1      28.584   9.506  47.317  1.00  0.00     0.040 A 
HETATM   12  C18 UNL     1      29.912   8.997  47.004  1.00  0.00     0.089 A 
HETATM   13  C19 UNL     1      31.159   8.403  46.794  1.00  0.00     0.015 A 
HETATM   14  C20 UNL     1      28.809   8.221  48.164  1.00  0.00     0.183 A 
HETATM   15  O1  UNL     1      29.134   8.692  49.333  1.00  0.00    -0.204 OA
HETATM   16  N2  UNL     1      28.662   6.857  47.670  1.00  0.00    -0.358 N 
HETATM   17  H24 UNL     1      28.274   6.948  46.671  1.00  0.00     0.162 HD
ENDROOT
BRANCH   1  18
HETATM   18  C4  UNL     1      26.768   5.563  48.901  1.00  0.00    -0.002 C 
HETATM   19  C3  UNL     1      25.975   4.625  49.486  1.00  0.00    -0.027 C 
BRANCH  19  20
HETATM   20  C2  UNL     1      26.345   3.246  49.707  1.00  0.00     0.022 C 
HETATM   21  C1  UNL     1      25.788   2.828  51.087  1.00  0.00     0.009 C 
ENDBRANCH  19  20
ENDBRANCH   1  18
BRANCH   6  22
HETATM   22  C11 UNL     1      33.316   6.760  48.583  1.00  0.00     0.140 C 
HETATM   23 CL1  UNL     1      34.785   5.817  48.727  1.00  0.00    -0.128 Cl
ENDBRANCH   6  22
BRANCH   7  24
HETATM   24  C12 UNL     1      33.953   8.312  46.499  1.00  0.00     0.133 C 
BRANCH  24  25
HETATM   25  C13 UNL     1      34.408   8.539  45.035  1.00  0.00     0.134 C 
HETATM   26 CL2  UNL     1      34.292   7.002  44.090  1.00  0.00    -0.129 Cl
ENDBRANCH  24  25
ENDBRANCH   7  24
TORSDOF 6
ENDMDL
MODEL 9
REMARK VINA RESULT:      -6.5      3.550      6.042
REMARK  6 active torsions:
REMARK  status: ('A' for Active; 'I' for Inactive)
REMARK    1  A    between atoms: C2_2  and  C3_3 
REMARK    2  A    between atoms: C4_4  and  C5_5 
REMARK    3  A    between atoms: C10_10  and  C11_11 
REMARK    4  A    between atoms: N1_13  and  C12_14 
REMARK    5  A    between atoms: C12_14  and  C13_15 
REMARK    6  A    between atoms: C15_18  and  C16_19 
ROOT
HETATM    1  C5  UNL     1      27.652   5.434  48.571  1.00  0.00     0.025 C 
HETATM    2  C6  UNL     1      26.378   5.368  49.024  1.00  0.00     0.013 C 
HETATM    3  C7  UNL     1      25.231   4.672  49.709  1.00  0.00     0.057 C 
HETATM    4  C8  UNL     1      24.492   3.784  50.355  1.00  0.00    -0.003 C 
HETATM    5  C9  UNL     1      25.163   2.470  50.789  1.00  0.00     0.019 C 
HETATM    6  C10 UNL     1      23.072   3.782  50.447  1.00  0.00     0.103 C 
HETATM    7  N1  UNL     1      22.128   4.839  50.791  1.00  0.00    -0.394 N 
HETATM    8  C14 UNL     1      21.580   6.155  51.044  1.00  0.00     0.059 A 
HETATM    9  C15 UNL     1      21.764   7.536  50.624  1.00  0.00     0.025 A 
HETATM   10  C16 UNL     1      22.606   8.381  49.770  1.00  0.00     0.017 A 
HETATM   11  C17 UNL     1      23.675   8.457  48.878  1.00  0.00     0.040 A 
HETATM   12  C18 UNL     1      23.123   7.290  49.554  1.00  0.00     0.089 A 
HETATM   13  C19 UNL     1      22.693   6.096  50.135  1.00  0.00     0.015 A 
HETATM   14  C20 UNL     1      24.486   7.214  48.413  1.00  0.00     0.183 A 
HETATM   15  O1  UNL     1      23.963   6.938  47.254  1.00  0.00    -0.204 OA
HETATM   16  N2  UNL     1      25.560   6.584  49.172  1.00  0.00    -0.358 N 
HETATM   17  H24 UNL     1      25.724   7.216  50.028  1.00  0.00     0.162 HD
ENDROOT
BRANCH   1  18
HETATM   18  C4  UNL     1      27.845   6.706  47.929  1.00  0.00    -0.002 C 
HETATM   19  C3  UNL     1      29.185   6.607  47.715  1.00  0.00    -0.027 C 
BRANCH  19  20
HETATM   20  C2  UNL     1      30.007   5.483  48.101  1.00  0.00     0.022 C 
HETATM   21  C1  UNL     1      31.374   5.641  47.399  1.00  0.00     0.009 C 
ENDBRANCH  19  20
ENDBRANCH   1  18
BRANCH   6  22
HETATM   22  C11 UNL     1      22.474   2.982  49.234  1.00  0.00     0.140 C 
HETATM   23 CL1  UNL     1      22.118   1.310  49.614  1.00  0.00    -0.128 Cl
ENDBRANCH   6  22
BRANCH   7  24
HETATM   24  C12 UNL     1      20.833   4.166  50.983  1.00  0.00     0.133 C 
BRANCH  24  25
HETATM   25  C13 UNL     1      20.758   3.554  52.405  1.00  0.00     0.134 C 
HETATM   26 CL2  UNL     1      19.997   1.914  52.350  1.00  0.00    -0.129 Cl
ENDBRANCH  24  25
ENDBRANCH   7  24
TORSDOF 6
ENDMDL
