MODEL 1
REMARK VINA RESULT:      -8.7      0.000      0.000
REMARK  4 active torsions:
REMARK  status: ('A' for Active; 'I' for Inactive)
REMARK    1  A    between atoms: C5_7  and  C6_8 
REMARK    2  A    between atoms: C10_14  and  C11_15 
REMARK    3  A    between atoms: C11_15  and  N5_16 
REMARK    4  A    between atoms: C14_19  and  N6_20 
ROOT
HETATM    1  C6  UNL     1      22.863   1.384  52.873  1.00  0.00     0.036 C 
HETATM    2  C7  UNL     1      21.819   0.584  53.028  1.00  0.00     0.122 C 
HETATM    3  N3  UNL     1      20.714   1.248  53.089  1.00  0.00    -0.165 NA
HETATM    4  N4  UNL     1      20.929   2.510  52.487  1.00  0.00    -0.243 N 
HETATM    5  C8  UNL     1      20.327   3.631  52.009  1.00  0.00     0.119 A 
HETATM    6  C9  UNL     1      21.358   4.428  51.564  1.00  0.00     0.030 A 
HETATM    7  C10 UNL     1      22.588   3.811  51.764  1.00  0.00     0.001 A 
HETATM    8  C17 UNL     1      22.264   2.606  52.348  1.00  0.00     0.079 A 
ENDROOT
BRANCH   1   9
HETATM    9  C5  UNL     1      24.286   1.196  53.132  1.00  0.00    -0.020 A 
HETATM   10  C4  UNL     1      24.733  -0.093  52.835  1.00  0.00     0.027 A 
HETATM   11  C3  UNL     1      26.055  -0.443  53.020  1.00  0.00     0.012 A 
HETATM   12  C2  UNL     1      26.808  -1.607  52.829  1.00  0.00     0.152 A 
HETATM   13  C20 UNL     1      26.998   0.469  53.511  1.00  0.00     0.064 A 
HETATM   14  N2  UNL     1      28.103  -1.379  53.187  1.00  0.00    -0.184 NA
HETATM   15  N1  UNL     1      28.209  -0.111  53.601  1.00  0.00    -0.274 N 
HETATM   16  C1  UNL     1      29.427   0.555  54.076  1.00  0.00     0.180 C 
HETATM   17  C19 UNL     1      26.518   1.746  53.797  1.00  0.00     0.033 A 
HETATM   18  C18 UNL     1      25.200   2.110  53.616  1.00  0.00     0.015 A 
ENDBRANCH   1   9
BRANCH   7  19
HETATM   19  C11 UNL     1      23.901   4.399  51.397  1.00  0.00     0.313 C 
BRANCH  19  20
HETATM   20  N5  UNL     1      24.442   3.804  50.205  1.00  0.00     0.092 N 
HETATM   21  C12 UNL     1      25.799   3.403  50.403  1.00  0.00     0.275 C 
HETATM   22  C13 UNL     1      26.660   3.943  49.285  1.00  0.00     0.065 C 
HETATM   23  C14 UNL     1      26.494   5.448  49.256  1.00  0.00     0.221 C 
HETATM   24  C15 UNL     1      25.066   5.745  48.844  1.00  0.00     0.065 C 
HETATM   25  C16 UNL     1      24.180   4.528  48.996  1.00  0.00     0.275 C 
BRANCH  23  26
HETATM   26  N6  UNL     1      27.358   6.085  48.278  1.00  0.00     0.083 N 
HETATM   27  H15 UNL     1      28.297   5.657  48.198  1.00  0.00     0.313 HD
HETATM   28  H16 UNL     1      27.404   7.117  48.391  1.00  0.00     0.313 HD
ENDBRANCH  23  26
ENDBRANCH  19  20
ENDBRANCH   7  19
TORSDOF 4
ENDMDL
MODEL 2
REMARK VINA RESULT:      -8.7      1.512      5.621
REMARK  4 active torsions:
REMARK  status: ('A' for Active; 'I' for Inactive)
REMARK    1  A    between atoms: C5_7  and  C6_8 
REMARK    2  A    between atoms: C10_14  and  C11_15 
REMARK    3  A    between atoms: C11_15  and  N5_16 
REMARK    4  A    between atoms: C14_19  and  N6_20 
ROOT
HETATM    1  C6  UNL     1      22.249   2.345  52.234  1.00  0.00     0.036 C 
HETATM    2  C7  UNL     1      20.996   2.595  52.586  1.00  0.00     0.122 C 
HETATM    3  N3  UNL     1      20.363   1.515  52.898  1.00  0.00    -0.165 NA
HETATM    4  N4  UNL     1      21.321   0.530  53.235  1.00  0.00    -0.243 N 
HETATM    5  C8  UNL     1      21.508  -0.694  53.796  1.00  0.00     0.119 A 
HETATM    6  C9  UNL     1      22.863  -0.922  53.716  1.00  0.00     0.030 A 
HETATM    7  C10 UNL     1      23.514   0.148  53.110  1.00  0.00     0.001 A 
HETATM    8  C17 UNL     1      22.499   1.035  52.827  1.00  0.00     0.079 A 
ENDROOT
BRANCH   1   9
HETATM    9  C5  UNL     1      23.217   3.108  51.456  1.00  0.00    -0.020 A 
HETATM   10  C4  UNL     1      23.247   4.464  51.792  1.00  0.00     0.027 A 
HETATM   11  C3  UNL     1      24.108   5.332  51.153  1.00  0.00     0.012 A 
HETATM   12  C2  UNL     1      24.383   6.702  51.245  1.00  0.00     0.152 A 
HETATM   13  C20 UNL     1      24.982   4.899  50.148  1.00  0.00     0.064 A 
HETATM   14  N2  UNL     1      25.354   7.035  50.349  1.00  0.00    -0.184 NA
HETATM   15  N1  UNL     1      25.712   5.930  49.685  1.00  0.00    -0.274 N 
HETATM   16  C1  UNL     1      26.726   5.833  48.629  1.00  0.00     0.180 C 
HETATM   17  C19 UNL     1      24.926   3.541  49.837  1.00  0.00     0.033 A 
HETATM   18  C18 UNL     1      24.071   2.662  50.468  1.00  0.00     0.015 A 
ENDBRANCH   1   9
BRANCH   7  19
HETATM   19  C11 UNL     1      24.976   0.223  52.869  1.00  0.00     0.313 C 
BRANCH  19  20
HETATM   20  N5  UNL     1      25.644   1.023  53.860  1.00  0.00     0.092 N 
HETATM   21  C12 UNL     1      26.267   2.163  53.265  1.00  0.00     0.275 C 
HETATM   22  C13 UNL     1      27.707   2.251  53.713  1.00  0.00     0.065 C 
HETATM   23  C14 UNL     1      28.391   0.951  53.342  1.00  0.00     0.221 C 
HETATM   24  C15 UNL     1      27.774  -0.148  54.182  1.00  0.00     0.065 C 
HETATM   25  C16 UNL     1      26.455   0.286  54.784  1.00  0.00     0.275 C 
BRANCH  23  26
HETATM   26  N6  UNL     1      29.812   0.964  53.639  1.00  0.00     0.083 N 
HETATM   27  H15 UNL     1      30.406   1.294  52.858  1.00  0.00     0.313 HD
HETATM   28  H16 UNL     1      30.149   0.067  54.038  1.00  0.00     0.313 HD
ENDBRANCH  23  26
ENDBRANCH  19  20
ENDBRANCH   7  19
TORSDOF 4
ENDMDL
MODEL 3
REMARK VINA RESULT:      -8.7      2.025      2.653
REMARK  4 active torsions:
REMARK  status: ('A' for Active; 'I' for Inactive)
REMARK    1  A    between atoms: C5_7  and  C6_8 
REMARK    2  A    between atoms: C10_14  and  C11_15 
REMARK    3  A    between atoms: C11_15  and  N5_16 
REMARK    4  A    between atoms: C14_19  and  N6_20 
ROOT
HETATM    1  C6  UNL     1      22.749  -0.133  53.095  1.00  0.00     0.036 C 
HETATM    2  C7  UNL     1      22.172  -1.191  53.646  1.00  0.00     0.122 C 
HETATM    3  N3  UNL     1      20.885  -1.104  53.614  1.00  0.00    -0.165 NA
HETATM    4  N4  UNL     1      20.535  -0.191  52.591  1.00  0.00    -0.243 N 
HETATM    5  C8  UNL     1      19.515   0.295  51.835  1.00  0.00     0.119 A 
HETATM    6  C9  UNL     1      20.095   1.239  51.017  1.00  0.00     0.030 A 
HETATM    7  C10 UNL     1      21.461   1.340  51.261  1.00  0.00     0.001 A 
HETATM    8  C17 UNL     1      21.687   0.420  52.260  1.00  0.00     0.079 A 
ENDROOT
BRANCH   1   9
HETATM    9  C5  UNL     1      24.089   0.426  53.221  1.00  0.00    -0.020 A 
HETATM   10  C4  UNL     1      25.097  -0.537  53.142  1.00  0.00     0.027 A 
HETATM   11  C3  UNL     1      26.426  -0.180  53.241  1.00  0.00     0.012 A 
HETATM   12  C2  UNL     1      27.644  -0.870  53.204  1.00  0.00     0.152 A 
HETATM   13  C20 UNL     1      26.821   1.152  53.426  1.00  0.00     0.064 A 
HETATM   14  N2  UNL     1      28.674   0.009  53.357  1.00  0.00    -0.184 NA
HETATM   15  N1  UNL     1      28.162   1.238  53.491  1.00  0.00    -0.274 N 
HETATM   16  C1  UNL     1      28.915   2.483  53.680  1.00  0.00     0.180 C 
HETATM   17  C19 UNL     1      25.790   2.086  53.501  1.00  0.00     0.033 A 
HETATM   18  C18 UNL     1      24.458   1.744  53.403  1.00  0.00     0.015 A 
ENDBRANCH   1   9
BRANCH   7  19
HETATM   19  C11 UNL     1      22.382   2.262  50.551  1.00  0.00     0.313 C 
BRANCH  19  20
HETATM   20  N5  UNL     1      21.851   3.596  50.469  1.00  0.00     0.092 N 
HETATM   21  C12 UNL     1      22.603   4.393  49.553  1.00  0.00     0.275 C 
HETATM   22  C13 UNL     1      22.993   5.695  50.209  1.00  0.00     0.065 C 
HETATM   23  C14 UNL     1      23.767   5.369  51.470  1.00  0.00     0.221 C 
HETATM   24  C15 UNL     1      22.809   4.702  52.436  1.00  0.00     0.065 C 
HETATM   25  C16 UNL     1      21.563   4.210  51.732  1.00  0.00     0.275 C 
BRANCH  23  26
HETATM   26  N6  UNL     1      24.280   6.554  52.132  1.00  0.00     0.083 N 
HETATM   27  H15 UNL     1      25.084   6.995  51.651  1.00  0.00     0.313 HD
HETATM   28  H16 UNL     1      24.461   6.405  53.144  1.00  0.00     0.313 HD
ENDBRANCH  23  26
ENDBRANCH  19  20
ENDBRANCH   7  19
TORSDOF 4
ENDMDL
MODEL 4
REMARK VINA RESULT:      -8.2      2.041      5.686
REMARK  4 active torsions:
REMARK  status: ('A' for Active; 'I' for Inactive)
REMARK    1  A    between atoms: C5_7  and  C6_8 
REMARK    2  A    between atoms: C10_14  and  C11_15 
REMARK    3  A    between atoms: C11_15  and  N5_16 
REMARK    4  A    between atoms: C14_19  and  N6_20 
ROOT
HETATM    1  C6  UNL     1      25.016   0.197  53.547  1.00  0.00     0.036 C 
HETATM    2  C7  UNL     1      25.793  -0.479  54.381  1.00  0.00     0.122 C 
HETATM    3  N3  UNL     1      25.114  -1.006  55.344  1.00  0.00    -0.165 NA
HETATM    4  N4  UNL     1      23.767  -1.109  54.923  1.00  0.00    -0.243 N 
HETATM    5  C8  UNL     1      22.553  -1.653  55.201  1.00  0.00     0.119 A 
HETATM    6  C9  UNL     1      21.722  -1.208  54.197  1.00  0.00     0.030 A 
HETATM    7  C10 UNL     1      22.412  -0.394  53.304  1.00  0.00     0.001 A 
HETATM    8  C17 UNL     1      23.694  -0.364  53.804  1.00  0.00     0.079 A 
ENDROOT
BRANCH   1   9
HETATM    9  C5  UNL     1      25.303   1.250  52.580  1.00  0.00    -0.020 A 
HETATM   10  C4  UNL     1      24.418   2.327  52.662  1.00  0.00     0.027 A 
HETATM   11  C3  UNL     1      24.545   3.413  51.819  1.00  0.00     0.012 A 
HETATM   12  C2  UNL     1      23.853   4.616  51.642  1.00  0.00     0.152 A 
HETATM   13  C20 UNL     1      25.557   3.482  50.853  1.00  0.00     0.064 A 
HETATM   14  N2  UNL     1      24.430   5.333  50.637  1.00  0.00    -0.184 NA
HETATM   15  N1  UNL     1      25.467   4.634  50.162  1.00  0.00    -0.274 N 
HETATM   16  C1  UNL     1      26.368   5.033  49.075  1.00  0.00     0.180 C 
HETATM   17  C19 UNL     1      26.421   2.390  50.798  1.00  0.00     0.033 A 
HETATM   18  C18 UNL     1      26.306   1.300  51.634  1.00  0.00     0.015 A 
ENDBRANCH   1   9
BRANCH   7  19
HETATM   19  C11 UNL     1      21.811   0.250  52.109  1.00  0.00     0.313 C 
BRANCH  19  20
HETATM   20  N5  UNL     1      20.497   0.766  52.379  1.00  0.00     0.092 N 
HETATM   21  C12 UNL     1      19.542   0.253  51.447  1.00  0.00     0.275 C 
HETATM   22  C13 UNL     1      18.744   1.389  50.855  1.00  0.00     0.065 C 
HETATM   23  C14 UNL     1      19.717   2.360  50.219  1.00  0.00     0.221 C 
HETATM   24  C15 UNL     1      20.539   2.981  51.330  1.00  0.00     0.065 C 
HETATM   25  C16 UNL     1      20.439   2.180  52.609  1.00  0.00     0.275 C 
BRANCH  23  26
HETATM   26  N6  UNL     1      19.048   3.448  49.528  1.00  0.00     0.083 N 
HETATM   27  H15 UNL     1      19.550   4.352  49.572  1.00  0.00     0.313 HD
HETATM   28  H16 UNL     1      18.047   3.539  49.791  1.00  0.00     0.313 HD
ENDBRANCH  23  26
ENDBRANCH  19  20
ENDBRANCH   7  19
TORSDOF 4
ENDMDL
MODEL 5
REMARK VINA RESULT:      -8.2      2.205      5.625
REMARK  4 active torsions:
REMARK  status: ('A' for Active; 'I' for Inactive)
REMARK    1  A    between atoms: C5_7  and  C6_8 
REMARK    2  A    between atoms: C10_14  and  C11_15 
REMARK    3  A    between atoms: C11_15  and  N5_16 
REMARK    4  A    between atoms: C14_19  and  N6_20 
ROOT
HETATM    1  C6  UNL     1      24.634   0.638  53.315  1.00  0.00     0.036 C 
HETATM    2  C7  UNL     1      25.610  -0.161  53.719  1.00  0.00     0.122 C 
HETATM    3  N3  UNL     1      25.243  -0.899  54.713  1.00  0.00    -0.165 NA
HETATM    4  N4  UNL     1      23.830  -0.966  54.707  1.00  0.00    -0.243 N 
HETATM    5  C8  UNL     1      22.745  -1.602  55.222  1.00  0.00     0.119 A 
HETATM    6  C9  UNL     1      21.660  -0.996  54.631  1.00  0.00     0.030 A 
HETATM    7  C10 UNL     1      22.065   0.008  53.756  1.00  0.00     0.001 A 
HETATM    8  C17 UNL     1      23.439  -0.014  53.840  1.00  0.00     0.079 A 
ENDROOT
BRANCH   1   9
HETATM    9  C5  UNL     1      24.639   1.875  52.543  1.00  0.00    -0.020 A 
HETATM   10  C4  UNL     1      25.591   1.882  51.521  1.00  0.00     0.027 A 
HETATM   11  C3  UNL     1      25.731   2.976  50.693  1.00  0.00     0.012 A 
HETATM   12  C2  UNL     1      26.556   3.300  49.609  1.00  0.00     0.152 A 
HETATM   13  C20 UNL     1      24.934   4.119  50.838  1.00  0.00     0.064 A 
HETATM   14  N2  UNL     1      26.252   4.550  49.159  1.00  0.00    -0.184 NA
HETATM   15  N1  UNL     1      25.263   5.041  49.914  1.00  0.00    -0.274 N 
HETATM   16  C1  UNL     1      24.629   6.357  49.778  1.00  0.00     0.180 C 
HETATM   17  C19 UNL     1      23.995   4.079  51.868  1.00  0.00     0.033 A 
HETATM   18  C18 UNL     1      23.844   2.992  52.703  1.00  0.00     0.015 A 
ENDBRANCH   1   9
BRANCH   7  19
HETATM   19  C11 UNL     1      21.146   0.856  52.957  1.00  0.00     0.313 C 
BRANCH  19  20
HETATM   20  N5  UNL     1      20.795   0.239  51.706  1.00  0.00     0.092 N 
HETATM   21  C12 UNL     1      21.657   0.682  50.656  1.00  0.00     0.275 C 
HETATM   22  C13 UNL     1      20.832   1.145  49.479  1.00  0.00     0.065 C 
HETATM   23  C14 UNL     1      19.896   2.232  49.964  1.00  0.00     0.221 C 
HETATM   24  C15 UNL     1      18.910   1.596  50.922  1.00  0.00     0.065 C 
HETATM   25  C16 UNL     1      19.395   0.245  51.402  1.00  0.00     0.275 C 
BRANCH  23  26
HETATM   26  N6  UNL     1      19.121   2.822  48.888  1.00  0.00     0.083 N 
HETATM   27  H15 UNL     1      19.540   2.705  47.948  1.00  0.00     0.313 HD
HETATM   28  H16 UNL     1      18.850   3.807  49.078  1.00  0.00     0.313 HD
ENDBRANCH  23  26
ENDBRANCH  19  20
ENDBRANCH   7  19
TORSDOF 4
ENDMDL
MODEL 6
REMARK VINA RESULT:      -8.2      2.541      5.429
REMARK  4 active torsions:
REMARK  status: ('A' for Active; 'I' for Inactive)
REMARK    1  A    between atoms: C5_7  and  C6_8 
REMARK    2  A    between atoms: C10_14  and  C11_15 
REMARK    3  A    between atoms: C11_15  and  N5_16 
REMARK    4  A    between atoms: C14_19  and  N6_20 
ROOT
HETATM    1  C6  UNL     1      25.094   1.772  51.925  1.00  0.00     0.036 C 
HETATM    2  C7  UNL     1      26.319   1.687  52.421  1.00  0.00     0.122 C 
HETATM    3  N3  UNL     1      27.202   2.123  51.586  1.00  0.00    -0.165 NA
HETATM    4  N4  UNL     1      26.550   2.978  50.667  1.00  0.00    -0.243 N 
HETATM    5  C8  UNL     1      26.729   3.903  49.688  1.00  0.00     0.119 A 
HETATM    6  C9  UNL     1      25.459   4.257  49.292  1.00  0.00     0.030 A 
HETATM    7  C10 UNL     1      24.498   3.560  50.017  1.00  0.00     0.001 A 
HETATM    8  C17 UNL     1      25.236   2.768  50.869  1.00  0.00     0.079 A 
ENDROOT
BRANCH   1   9
HETATM    9  C5  UNL     1      23.851   1.091  52.269  1.00  0.00    -0.020 A 
HETATM   10  C4  UNL     1      23.949   0.319  53.429  1.00  0.00     0.027 A 
HETATM   11  C3  UNL     1      22.864  -0.392  53.899  1.00  0.00     0.012 A 
HETATM   12  C2  UNL     1      22.630  -1.235  54.992  1.00  0.00     0.152 A 
HETATM   13  C20 UNL     1      21.628  -0.374  53.241  1.00  0.00     0.064 A 
HETATM   14  N2  UNL     1      21.339  -1.673  54.964  1.00  0.00    -0.184 NA
HETATM   15  N1  UNL     1      20.738  -1.143  53.894  1.00  0.00    -0.274 N 
HETATM   16  C1  UNL     1      19.345  -1.351  53.481  1.00  0.00     0.180 C 
HETATM   17  C19 UNL     1      21.565   0.406  52.087  1.00  0.00     0.033 A 
HETATM   18  C18 UNL     1      22.641   1.122  51.606  1.00  0.00     0.015 A 
ENDBRANCH   1   9
BRANCH   7  19
HETATM   19  C11 UNL     1      23.032   3.706  49.840  1.00  0.00     0.313 C 
BRANCH  19  20
HETATM   20  N5  UNL     1      22.647   3.630  48.456  1.00  0.00     0.092 N 
HETATM   21  C12 UNL     1      21.714   4.660  48.125  1.00  0.00     0.275 C 
HETATM   22  C13 UNL     1      20.519   4.061  47.424  1.00  0.00     0.065 C 
HETATM   23  C14 UNL     1      19.925   3.005  48.333  1.00  0.00     0.221 C 
HETATM   24  C15 UNL     1      20.932   1.879  48.448  1.00  0.00     0.065 C 
HETATM   25  C16 UNL     1      22.308   2.316  47.996  1.00  0.00     0.275 C 
BRANCH  23  26
HETATM   26  N6  UNL     1      18.704   2.430  47.799  1.00  0.00     0.083 N 
HETATM   27  H15 UNL     1      18.159   3.073  47.197  1.00  0.00     0.313 HD
HETATM   28  H16 UNL     1      18.117   1.979  48.527  1.00  0.00     0.313 HD
ENDBRANCH  23  26
ENDBRANCH  19  20
ENDBRANCH   7  19
TORSDOF 4
ENDMDL
MODEL 7
REMARK VINA RESULT:      -8.0      2.681      6.380
REMARK  4 active torsions:
REMARK  status: ('A' for Active; 'I' for Inactive)
REMARK    1  A    between atoms: C5_7  and  C6_8 
REMARK    2  A    between atoms: C10_14  and  C11_15 
REMARK    3  A    between atoms: C11_15  and  N5_16 
REMARK    4  A    between atoms: C14_19  and  N6_20 
ROOT
HETATM    1  C6  UNL     1      21.549   0.222  53.791  1.00  0.00     0.036 C 
HETATM    2  C7  UNL     1      21.466  -0.421  54.946  1.00  0.00     0.122 C 
HETATM    3  N3  UNL     1      22.481  -1.196  55.134  1.00  0.00    -0.165 NA
HETATM    4  N4  UNL     1      23.540  -0.733  54.318  1.00  0.00    -0.243 N 
HETATM    5  C8  UNL     1      24.871  -0.832  54.062  1.00  0.00     0.119 A 
HETATM    6  C9  UNL     1      25.100   0.037  53.018  1.00  0.00     0.030 A 
HETATM    7  C10 UNL     1      23.924   0.670  52.629  1.00  0.00     0.001 A 
HETATM    8  C17 UNL     1      22.972   0.151  53.478  1.00  0.00     0.079 A 
ENDROOT
BRANCH   1   9
HETATM    9  C5  UNL     1      20.542   0.872  52.959  1.00  0.00    -0.020 A 
HETATM   10  C4  UNL     1      19.659  -0.029  52.359  1.00  0.00     0.027 A 
HETATM   11  C3  UNL     1      18.643   0.417  51.539  1.00  0.00     0.012 A 
HETATM   12  C2  UNL     1      17.620  -0.196  50.807  1.00  0.00     0.152 A 
HETATM   13  C20 UNL     1      18.454   1.779  51.272  1.00  0.00     0.064 A 
HETATM   14  N2  UNL     1      16.887   0.753  50.160  1.00  0.00    -0.184 NA
HETATM   15  N1  UNL     1      17.403   1.953  50.449  1.00  0.00    -0.274 N 
HETATM   16  C1  UNL     1      16.923   3.252  49.964  1.00  0.00     0.180 C 
HETATM   17  C19 UNL     1      19.353   2.649  51.885  1.00  0.00     0.033 A 
HETATM   18  C18 UNL     1      20.372   2.218  52.708  1.00  0.00     0.015 A 
ENDBRANCH   1   9
BRANCH   7  19
HETATM   19  C11 UNL     1      23.821   1.666  51.534  1.00  0.00     0.313 C 
BRANCH  19  20
HETATM   20  N5  UNL     1      24.475   2.903  51.868  1.00  0.00     0.092 N 
HETATM   21  C12 UNL     1      23.955   3.445  53.084  1.00  0.00     0.275 C 
HETATM   22  C13 UNL     1      23.580   4.893  52.878  1.00  0.00     0.065 C 
HETATM   23  C14 UNL     1      22.585   4.959  51.738  1.00  0.00     0.221 C 
HETATM   24  C15 UNL     1      23.310   4.547  50.472  1.00  0.00     0.065 C 
HETATM   25  C16 UNL     1      24.605   3.830  50.783  1.00  0.00     0.275 C 
BRANCH  23  26
HETATM   26  N6  UNL     1      22.077   6.301  51.518  1.00  0.00     0.083 N 
HETATM   27  H15 UNL     1      22.493   6.785  50.702  1.00  0.00     0.313 HD
HETATM   28  H16 UNL     1      22.098   6.887  52.375  1.00  0.00     0.313 HD
ENDBRANCH  23  26
ENDBRANCH  19  20
ENDBRANCH   7  19
TORSDOF 4
ENDMDL
MODEL 8
REMARK VINA RESULT:      -7.7      1.804      5.500
REMARK  4 active torsions:
REMARK  status: ('A' for Active; 'I' for Inactive)
REMARK    1  A    between atoms: C5_7  and  C6_8 
REMARK    2  A    between atoms: C10_14  and  C11_15 
REMARK    3  A    between atoms: C11_15  and  N5_16 
REMARK    4  A    between atoms: C14_19  and  N6_20 
ROOT
HETATM    1  C6  UNL     1      20.801   1.239  51.610  1.00  0.00     0.036 C 
HETATM    2  C7  UNL     1      19.529   1.033  51.303  1.00  0.00     0.122 C 
HETATM    3  N3  UNL     1      19.113  -0.109  51.739  1.00  0.00    -0.165 NA
HETATM    4  N4  UNL     1      19.970  -0.514  52.789  1.00  0.00    -0.243 N 
HETATM    5  C8  UNL     1      20.136  -1.392  53.813  1.00  0.00     0.119 A 
HETATM    6  C9  UNL     1      21.348  -1.062  54.376  1.00  0.00     0.030 A 
HETATM    7  C10 UNL     1      21.932   0.011  53.708  1.00  0.00     0.001 A 
HETATM    8  C17 UNL     1      21.025   0.319  52.719  1.00  0.00     0.079 A 
ENDROOT
BRANCH   1   9
HETATM    9  C5  UNL     1      21.810   2.130  51.048  1.00  0.00    -0.020 A 
HETATM   10  C4  UNL     1      22.039   3.265  51.830  1.00  0.00     0.027 A 
HETATM   11  C3  UNL     1      22.964   4.214  51.445  1.00  0.00     0.012 A 
HETATM   12  C2  UNL     1      23.421   5.425  51.978  1.00  0.00     0.152 A 
HETATM   13  C20 UNL     1      23.707   4.085  50.265  1.00  0.00     0.064 A 
HETATM   14  N2  UNL     1      24.368   5.958  51.156  1.00  0.00    -0.184 NA
HETATM   15  N1  UNL     1      24.535   5.134  50.115  1.00  0.00    -0.274 N 
HETATM   16  C1  UNL     1      25.458   5.323  48.990  1.00  0.00     0.180 C 
HETATM   17  C19 UNL     1      23.453   2.942  49.509  1.00  0.00     0.033 A 
HETATM   18  C18 UNL     1      22.532   1.985  49.881  1.00  0.00     0.015 A 
ENDBRANCH   1   9
BRANCH   7  19
HETATM   19  C11 UNL     1      23.240   0.616  54.061  1.00  0.00     0.313 C 
BRANCH  19  20
HETATM   20  N5  UNL     1      24.324   0.019  53.328  1.00  0.00     0.092 N 
HETATM   21  C12 UNL     1      25.233  -0.646  54.206  1.00  0.00     0.275 C 
HETATM   22  C13 UNL     1      26.646  -0.197  53.915  1.00  0.00     0.065 C 
HETATM   23  C14 UNL     1      26.694   1.310  54.056  1.00  0.00     0.221 C 
HETATM   24  C15 UNL     1      25.847   1.903  52.948  1.00  0.00     0.065 C 
HETATM   25  C16 UNL     1      24.925   0.868  52.341  1.00  0.00     0.275 C 
BRANCH  23  26
HETATM   26  N6  UNL     1      28.035   1.842  53.894  1.00  0.00     0.083 N 
HETATM   27  H15 UNL     1      28.330   1.962  52.909  1.00  0.00     0.313 HD
HETATM   28  H16 UNL     1      28.743   1.332  54.458  1.00  0.00     0.313 HD
ENDBRANCH  23  26
ENDBRANCH  19  20
ENDBRANCH   7  19
TORSDOF 4
ENDMDL
MODEL 9
REMARK VINA RESULT:      -7.6      2.326      6.446
REMARK  4 active torsions:
REMARK  status: ('A' for Active; 'I' for Inactive)
REMARK    1  A    between atoms: C5_7  and  C6_8 
REMARK    2  A    between atoms: C10_14  and  C11_15 
REMARK    3  A    between atoms: C11_15  and  N5_16 
REMARK    4  A    between atoms: C14_19  and  N6_20 
ROOT
HETATM    1  C6  UNL     1      23.993   0.955  52.924  1.00  0.00     0.036 C 
HETATM    2  C7  UNL     1      25.023   0.128  53.014  1.00  0.00     0.122 C 
HETATM    3  N3  UNL     1      24.886  -0.700  53.995  1.00  0.00    -0.165 NA
HETATM    4  N4  UNL     1      23.510  -0.776  54.314  1.00  0.00    -0.243 N 
HETATM    5  C8  UNL     1      22.565  -1.462  55.008  1.00  0.00     0.119 A 
HETATM    6  C9  UNL     1      21.382  -0.810  54.744  1.00  0.00     0.030 A 
HETATM    7  C10 UNL     1      21.588   0.272  53.894  1.00  0.00     0.001 A 
HETATM    8  C17 UNL     1      22.943   0.250  53.653  1.00  0.00     0.079 A 
ENDROOT
BRANCH   1   9
HETATM    9  C5  UNL     1      23.838   2.258  52.289  1.00  0.00    -0.020 A 
HETATM   10  C4  UNL     1      23.717   2.182  50.899  1.00  0.00     0.027 A 
HETATM   11  C3  UNL     1      23.561   3.322  50.139  1.00  0.00     0.012 A 
HETATM   12  C2  UNL     1      23.415   3.591  48.773  1.00  0.00     0.152 A 
HETATM   13  C20 UNL     1      23.520   4.596  50.720  1.00  0.00     0.064 A 
HETATM   14  N2  UNL     1      23.297   4.935  48.580  1.00  0.00    -0.184 NA
HETATM   15  N1  UNL     1      23.362   5.539  49.772  1.00  0.00    -0.274 N 
HETATM   16  C1  UNL     1      23.278   6.981  50.027  1.00  0.00     0.180 C 
HETATM   17  C19 UNL     1      23.644   4.636  52.107  1.00  0.00     0.033 A 
HETATM   18  C18 UNL     1      23.799   3.505  52.880  1.00  0.00     0.015 A 
ENDBRANCH   1   9
BRANCH   7  19
HETATM   19  C11 UNL     1      20.521   1.185  53.413  1.00  0.00     0.313 C 
BRANCH  19  20
HETATM   20  N5  UNL     1      20.364   1.123  51.985  1.00  0.00     0.092 N 
HETATM   21  C12 UNL     1      20.164   2.426  51.433  1.00  0.00     0.275 C 
HETATM   22  C13 UNL     1      18.952   2.419  50.533  1.00  0.00     0.065 C 
HETATM   23  C14 UNL     1      17.768   1.943  51.349  1.00  0.00     0.221 C 
HETATM   24  C15 UNL     1      18.012   0.491  51.707  1.00  0.00     0.065 C 
HETATM   25  C16 UNL     1      19.464   0.109  51.520  1.00  0.00     0.275 C 
BRANCH  23  26
HETATM   26  N6  UNL     1      16.522   1.992  50.606  1.00  0.00     0.083 N 
HETATM   27  H15 UNL     1      16.030   1.084  50.540  1.00  0.00     0.313 HD
HETATM   28  H16 UNL     1      16.621   2.454  49.680  1.00  0.00     0.313 HD
ENDBRANCH  23  26
ENDBRANCH  19  20
ENDBRANCH   7  19
TORSDOF 4
ENDMDL
