MODEL 1
REMARK VINA RESULT:      -8.3      0.000      0.000
REMARK  5 active torsions:
REMARK  status: ('A' for Active; 'I' for Inactive)
REMARK    1  A    between atoms: C3_3  and  C4_4 
REMARK       I    between atoms: C4_4  and  N1_6 
REMARK    2  A    between atoms: N1_6  and  C5_7 
REMARK    3  A    between atoms: C10_14  and  N4_15 
REMARK    4  A    between atoms: N4_15  and  S1_16 
REMARK    5  A    between atoms: S1_16  and  C11_17 
ROOT
HETATM    1  C1  UNL     1      30.164  -1.082  53.757  1.00  0.00     0.112 C 
HETATM    2  C2  UNL     1      28.845  -0.424  53.822  1.00  0.00    -0.101 C 
HETATM    3  C3  UNL     1      27.761   0.117  53.858  1.00  0.00    -0.006 C 
ENDROOT
BRANCH   3   4
HETATM    4  C4  UNL     1      26.477   0.763  53.927  1.00  0.00     0.300 C 
HETATM    5  O1  UNL     1      26.276   1.681  54.764  1.00  0.00    -0.258 OA
HETATM    6  N1  UNL     1      25.485   0.307  53.008  1.00  0.00    -0.316 N 
HETATM    7  H4  UNL     1      25.650  -0.453  52.314  1.00  0.00     0.170 HD
BRANCH   6   8
HETATM    8  C5  UNL     1      24.149   0.769  52.864  1.00  0.00     0.036 A 
HETATM    9  C6  UNL     1      23.155  -0.186  53.093  1.00  0.00     0.032 A 
HETATM   10  C7  UNL     1      21.808   0.086  52.997  1.00  0.00     0.035 A 
HETATM   11  C8  UNL     1      21.394   1.371  52.657  1.00  0.00     0.072 A 
HETATM   12  N2  UNL     1      20.113   1.738  52.540  1.00  0.00    -0.241 NA
HETATM   13  C17 UNL     1      22.384   2.304  52.435  1.00  0.00     0.043 A 
HETATM   14  C9  UNL     1      19.832   3.019  52.203  1.00  0.00     0.236 A 
HETATM   15  N3  UNL     1      20.782   3.959  51.977  1.00  0.00    -0.221 NA
HETATM   16  C10 UNL     1      22.091   3.608  52.093  1.00  0.00     0.170 A 
HETATM   17  C18 UNL     1      23.723   2.037  52.528  1.00  0.00     0.047 A 
BRANCH  16  18
HETATM   18  N4  UNL     1      22.995   4.661  51.838  1.00  0.00    -0.205 NA
BRANCH  18  19
HETATM   19  S1  UNL     1      23.385   5.115  50.319  1.00  0.00    -0.075 SA
HETATM   20  H8  UNL     1      22.279   5.059  49.397  1.00  0.00     0.120 HD
BRANCH  19  21
HETATM   21  C11 UNL     1      25.060   4.828  49.693  1.00  0.00     0.010 A 
HETATM   22  C12 UNL     1      25.791   3.659  49.688  1.00  0.00     0.019 A 
HETATM   23  C13 UNL     1      27.054   3.681  49.154  1.00  0.00     0.003 A 
HETATM   24  C14 UNL     1      27.610   4.829  48.626  1.00  0.00     0.019 A 
HETATM   25  C15 UNL     1      26.886   6.003  48.626  1.00  0.00     0.012 A 
HETATM   26 BR1  UNL     1      27.701   7.561  47.883  1.00  0.00    -0.051 Br
HETATM   27  C16 UNL     1      25.616   5.990  49.161  1.00  0.00     0.038 A 
ENDBRANCH  19  21
ENDBRANCH  18  19
ENDBRANCH  16  18
ENDBRANCH   6   8
ENDBRANCH   3   4
TORSDOF 5
ENDMDL
MODEL 2
REMARK VINA RESULT:      -8.0      2.408      2.900
REMARK  5 active torsions:
REMARK  status: ('A' for Active; 'I' for Inactive)
REMARK    1  A    between atoms: C3_3  and  C4_4 
REMARK       I    between atoms: C4_4  and  N1_6 
REMARK    2  A    between atoms: N1_6  and  C5_7 
REMARK    3  A    between atoms: C10_14  and  N4_15 
REMARK    4  A    between atoms: N4_15  and  S1_16 
REMARK    5  A    between atoms: S1_16  and  C11_17 
ROOT
HETATM    1  C1  UNL     1      30.124  -0.622  53.613  1.00  0.00     0.112 C 
HETATM    2  C2  UNL     1      28.698  -0.239  53.621  1.00  0.00    -0.101 C 
HETATM    3  C3  UNL     1      27.526   0.068  53.643  1.00  0.00    -0.006 C 
ENDROOT
BRANCH   3   4
HETATM    4  C4  UNL     1      26.135   0.438  53.644  1.00  0.00     0.300 C 
HETATM    5  O1  UNL     1      25.801   1.636  53.838  1.00  0.00    -0.258 OA
HETATM    6  N1  UNL     1      25.197  -0.612  53.415  1.00  0.00    -0.316 N 
HETATM    7  H4  UNL     1      25.473  -1.604  53.254  1.00  0.00     0.170 HD
BRANCH   6   8
HETATM    8  C5  UNL     1      23.780  -0.522  53.365  1.00  0.00     0.036 A 
HETATM    9  C6  UNL     1      23.113  -0.873  54.542  1.00  0.00     0.032 A 
HETATM   10  C7  UNL     1      21.742  -0.845  54.671  1.00  0.00     0.035 A 
HETATM   11  C8  UNL     1      20.962  -0.451  53.589  1.00  0.00     0.072 A 
HETATM   12  N2  UNL     1      19.626  -0.388  53.611  1.00  0.00    -0.241 NA
HETATM   13  C17 UNL     1      21.632  -0.106  52.434  1.00  0.00     0.043 A 
HETATM   14  C9  UNL     1      18.975   0.011  52.493  1.00  0.00     0.236 A 
HETATM   15  N3  UNL     1      19.603   0.355  51.344  1.00  0.00    -0.221 NA
HETATM   16  C10 UNL     1      20.961   0.300  51.298  1.00  0.00     0.170 A 
HETATM   17  C18 UNL     1      22.994  -0.134  52.301  1.00  0.00     0.047 A 
BRANCH  16  18
HETATM   18  N4  UNL     1      21.513   0.679  50.055  1.00  0.00    -0.205 NA
BRANCH  18  19
HETATM   19  S1  UNL     1      21.069   2.055  49.297  1.00  0.00    -0.075 SA
HETATM   20  H8  UNL     1      20.066   1.858  48.283  1.00  0.00     0.120 HD
BRANCH  19  21
HETATM   21  C11 UNL     1      22.265   3.399  49.094  1.00  0.00     0.010 A 
HETATM   22  C12 UNL     1      22.046   4.693  48.672  1.00  0.00     0.019 A 
HETATM   23  C13 UNL     1      23.117   5.545  48.595  1.00  0.00     0.003 A 
HETATM   24  C14 UNL     1      24.398   5.149  48.924  1.00  0.00     0.019 A 
HETATM   25  C15 UNL     1      24.627   3.856  49.347  1.00  0.00     0.012 A 
HETATM   26 BR1  UNL     1      26.417   3.360  49.790  1.00  0.00    -0.051 Br
HETATM   27  C16 UNL     1      23.557   2.993  49.427  1.00  0.00     0.038 A 
ENDBRANCH  19  21
ENDBRANCH  18  19
ENDBRANCH  16  18
ENDBRANCH   6   8
ENDBRANCH   3   4
TORSDOF 5
ENDMDL
MODEL 3
REMARK VINA RESULT:      -7.7      2.991      5.517
REMARK  5 active torsions:
REMARK  status: ('A' for Active; 'I' for Inactive)
REMARK    1  A    between atoms: C3_3  and  C4_4 
REMARK       I    between atoms: C4_4  and  N1_6 
REMARK    2  A    between atoms: N1_6  and  C5_7 
REMARK    3  A    between atoms: C10_14  and  N4_15 
REMARK    4  A    between atoms: N4_15  and  S1_16 
REMARK    5  A    between atoms: S1_16  and  C11_17 
ROOT
HETATM    1  C1  UNL     1      28.284   5.797  48.233  1.00  0.00     0.112 C 
HETATM    2  C2  UNL     1      27.373   4.854  48.909  1.00  0.00    -0.101 C 
HETATM    3  C3  UNL     1      26.612   4.082  49.454  1.00  0.00    -0.006 C 
ENDROOT
BRANCH   3   4
HETATM    4  C4  UNL     1      25.725   3.166  50.120  1.00  0.00     0.300 C 
HETATM    5  O1  UNL     1      26.161   2.068  50.554  1.00  0.00    -0.258 OA
HETATM    6  N1  UNL     1      24.366   3.578  50.251  1.00  0.00    -0.316 N 
HETATM    7  H4  UNL     1      24.003   4.488  49.892  1.00  0.00     0.170 HD
BRANCH   6   8
HETATM    8  C5  UNL     1      23.293   2.873  50.859  1.00  0.00     0.036 A 
HETATM    9  C6  UNL     1      22.030   3.453  50.711  1.00  0.00     0.032 A 
HETATM   10  C7  UNL     1      20.880   2.906  51.236  1.00  0.00     0.035 A 
HETATM   11  C8  UNL     1      20.956   1.716  51.952  1.00  0.00     0.072 A 
HETATM   12  N2  UNL     1      19.901   1.103  52.500  1.00  0.00    -0.241 NA
HETATM   13  C17 UNL     1      22.207   1.153  52.091  1.00  0.00     0.043 A 
HETATM   14  C9  UNL     1      20.098  -0.053  53.177  1.00  0.00     0.236 A 
HETATM   15  N3  UNL     1      21.314  -0.631  53.331  1.00  0.00    -0.221 NA
HETATM   16  C10 UNL     1      22.401  -0.026  52.781  1.00  0.00     0.170 A 
HETATM   17  C18 UNL     1      23.352   1.694  51.572  1.00  0.00     0.047 A 
BRANCH  16  18
HETATM   18  N4  UNL     1      23.615  -0.711  53.001  1.00  0.00    -0.205 NA
BRANCH  18  19
HETATM   19  S1  UNL     1      24.583  -0.367  54.270  1.00  0.00    -0.075 SA
HETATM   20  H8  UNL     1      23.867  -0.158  55.503  1.00  0.00     0.120 HD
BRANCH  19  21
HETATM   21  C11 UNL     1      26.141   0.516  54.004  1.00  0.00     0.010 A 
HETATM   22  C12 UNL     1      26.356   1.874  53.898  1.00  0.00     0.019 A 
HETATM   23  C13 UNL     1      27.638   2.317  53.696  1.00  0.00     0.003 A 
HETATM   24  C14 UNL     1      28.709   1.452  53.595  1.00  0.00     0.019 A 
HETATM   25  C15 UNL     1      28.504   0.093  53.701  1.00  0.00     0.012 A 
HETATM   26 BR1  UNL     1      30.019  -1.059  53.557  1.00  0.00    -0.051 Br
HETATM   27  C16 UNL     1      27.220  -0.362  53.904  1.00  0.00     0.038 A 
ENDBRANCH  19  21
ENDBRANCH  18  19
ENDBRANCH  16  18
ENDBRANCH   6   8
ENDBRANCH   3   4
TORSDOF 5
ENDMDL
MODEL 4
REMARK VINA RESULT:      -7.5      3.100      5.706
REMARK  5 active torsions:
REMARK  status: ('A' for Active; 'I' for Inactive)
REMARK    1  A    between atoms: C3_3  and  C4_4 
REMARK       I    between atoms: C4_4  and  N1_6 
REMARK    2  A    between atoms: N1_6  and  C5_7 
REMARK    3  A    between atoms: C10_14  and  N4_15 
REMARK    4  A    between atoms: N4_15  and  S1_16 
REMARK    5  A    between atoms: S1_16  and  C11_17 
ROOT
HETATM    1  C1  UNL     1      29.321   1.151  54.403  1.00  0.00     0.112 C 
HETATM    2  C2  UNL     1      28.339   1.664  53.428  1.00  0.00    -0.101 C 
HETATM    3  C3  UNL     1      27.531   2.101  52.637  1.00  0.00    -0.006 C 
ENDROOT
BRANCH   3   4
HETATM    4  C4  UNL     1      26.569   2.595  51.687  1.00  0.00     0.300 C 
HETATM    5  O1  UNL     1      26.740   2.401  50.455  1.00  0.00    -0.258 OA
HETATM    6  N1  UNL     1      25.447   3.294  52.224  1.00  0.00    -0.316 N 
HETATM    7  H4  UNL     1      25.304   3.456  53.244  1.00  0.00     0.170 HD
BRANCH   6   8
HETATM    8  C5  UNL     1      24.362   3.879  51.517  1.00  0.00     0.036 A 
HETATM    9  C6  UNL     1      24.717   4.708  50.449  1.00  0.00     0.032 A 
HETATM   10  C7  UNL     1      23.796   5.357  49.657  1.00  0.00     0.035 A 
HETATM   11  C8  UNL     1      22.438   5.191  49.914  1.00  0.00     0.072 A 
HETATM   12  N2  UNL     1      21.465   5.774  49.205  1.00  0.00    -0.241 NA
HETATM   13  C17 UNL     1      22.101   4.370  50.969  1.00  0.00     0.043 A 
HETATM   14  C9  UNL     1      20.177   5.538  49.550  1.00  0.00     0.236 A 
HETATM   15  N3  UNL     1      19.814   4.738  50.581  1.00  0.00    -0.221 NA
HETATM   16  C10 UNL     1      20.787   4.134  51.315  1.00  0.00     0.170 A 
HETATM   17  C18 UNL     1      23.014   3.726  51.759  1.00  0.00     0.047 A 
BRANCH  16  18
HETATM   18  N4  UNL     1      20.299   3.323  52.363  1.00  0.00    -0.205 NA
BRANCH  18  19
HETATM   19  S1  UNL     1      19.809   1.787  52.109  1.00  0.00    -0.075 SA
HETATM   20  H8  UNL     1      18.414   1.675  51.767  1.00  0.00     0.120 HD
BRANCH  19  21
HETATM   21  C11 UNL     1      20.601   0.427  53.004  1.00  0.00     0.010 A 
HETATM   22  C12 UNL     1      20.012  -0.608  53.699  1.00  0.00     0.019 A 
HETATM   23  C13 UNL     1      20.823  -1.533  54.304  1.00  0.00     0.003 A 
HETATM   24  C14 UNL     1      22.200  -1.458  54.241  1.00  0.00     0.019 A 
HETATM   25  C15 UNL     1      22.798  -0.426  53.548  1.00  0.00     0.012 A 
HETATM   26 BR1  UNL     1      24.706  -0.370  53.490  1.00  0.00    -0.051 Br
HETATM   27  C16 UNL     1      21.991   0.507  52.937  1.00  0.00     0.038 A 
ENDBRANCH  19  21
ENDBRANCH  18  19
ENDBRANCH  16  18
ENDBRANCH   6   8
ENDBRANCH   3   4
TORSDOF 5
ENDMDL
MODEL 5
REMARK VINA RESULT:      -7.5      2.883      4.937
REMARK  5 active torsions:
REMARK  status: ('A' for Active; 'I' for Inactive)
REMARK    1  A    between atoms: C3_3  and  C4_4 
REMARK       I    between atoms: C4_4  and  N1_6 
REMARK    2  A    between atoms: N1_6  and  C5_7 
REMARK    3  A    between atoms: C10_14  and  N4_15 
REMARK    4  A    between atoms: N4_15  and  S1_16 
REMARK    5  A    between atoms: S1_16  and  C11_17 
ROOT
HETATM    1  C1  UNL     1      27.123   6.079  48.400  1.00  0.00     0.112 C 
HETATM    2  C2  UNL     1      26.248   5.333  49.326  1.00  0.00    -0.101 C 
HETATM    3  C3  UNL     1      25.517   4.722  50.076  1.00  0.00    -0.006 C 
ENDROOT
BRANCH   3   4
HETATM    4  C4  UNL     1      24.666   3.999  50.984  1.00  0.00     0.300 C 
HETATM    5  O1  UNL     1      23.742   4.598  51.594  1.00  0.00    -0.258 OA
HETATM    6  N1  UNL     1      24.934   2.607  51.135  1.00  0.00    -0.316 N 
HETATM    7  H4  UNL     1      25.699   2.109  50.630  1.00  0.00     0.170 HD
BRANCH   6   8
HETATM    8  C5  UNL     1      24.253   1.670  51.959  1.00  0.00     0.036 A 
HETATM    9  C6  UNL     1      25.065   0.728  52.596  1.00  0.00     0.032 A 
HETATM   10  C7  UNL     1      24.574  -0.253  53.429  1.00  0.00     0.035 A 
HETATM   11  C8  UNL     1      23.204  -0.327  53.663  1.00  0.00     0.072 A 
HETATM   12  N2  UNL     1      22.628  -1.239  54.454  1.00  0.00    -0.241 NA
HETATM   13  C17 UNL     1      22.415   0.608  53.029  1.00  0.00     0.043 A 
HETATM   14  C9  UNL     1      21.283  -1.212  54.605  1.00  0.00     0.236 A 
HETATM   15  N3  UNL     1      20.479  -0.307  53.996  1.00  0.00    -0.221 NA
HETATM   16  C10 UNL     1      21.044   0.630  53.188  1.00  0.00     0.170 A 
HETATM   17  C18 UNL     1      22.898   1.584  52.200  1.00  0.00     0.047 A 
BRANCH  16  18
HETATM   18  N4  UNL     1      20.119   1.523  52.605  1.00  0.00    -0.205 NA
BRANCH  18  19
HETATM   19  S1  UNL     1      19.640   1.377  51.051  1.00  0.00    -0.075 SA
HETATM   20  H8  UNL     1      18.753   0.265  50.821  1.00  0.00     0.120 HD
BRANCH  19  21
HETATM   21  C11 UNL     1      20.740   1.908  49.714  1.00  0.00     0.010 A 
HETATM   22  C12 UNL     1      21.386   1.137  48.771  1.00  0.00     0.019 A 
HETATM   23  C13 UNL     1      22.177   1.768  47.845  1.00  0.00     0.003 A 
HETATM   24  C14 UNL     1      22.345   3.137  47.829  1.00  0.00     0.019 A 
HETATM   25  C15 UNL     1      21.702   3.916  48.769  1.00  0.00     0.012 A 
HETATM   26 BR1  UNL     1      21.966   5.806  48.702  1.00  0.00    -0.051 Br
HETATM   27  C16 UNL     1      20.905   3.292  49.703  1.00  0.00     0.038 A 
ENDBRANCH  19  21
ENDBRANCH  18  19
ENDBRANCH  16  18
ENDBRANCH   6   8
ENDBRANCH   3   4
TORSDOF 5
ENDMDL
MODEL 6
REMARK VINA RESULT:      -7.5      4.084      7.306
REMARK  5 active torsions:
REMARK  status: ('A' for Active; 'I' for Inactive)
REMARK    1  A    between atoms: C3_3  and  C4_4 
REMARK       I    between atoms: C4_4  and  N1_6 
REMARK    2  A    between atoms: N1_6  and  C5_7 
REMARK    3  A    between atoms: C10_14  and  N4_15 
REMARK    4  A    between atoms: N4_15  and  S1_16 
REMARK    5  A    between atoms: S1_16  and  C11_17 
ROOT
HETATM    1  C1  UNL     1      28.359   5.783  48.131  1.00  0.00     0.112 C 
HETATM    2  C2  UNL     1      27.433   4.939  48.912  1.00  0.00    -0.101 C 
HETATM    3  C3  UNL     1      26.670   4.259  49.563  1.00  0.00    -0.006 C 
ENDROOT
BRANCH   3   4
HETATM    4  C4  UNL     1      25.773   3.431  50.325  1.00  0.00     0.300 C 
HETATM    5  O1  UNL     1      24.531   3.493  50.124  1.00  0.00    -0.258 OA
HETATM    6  N1  UNL     1      26.370   2.565  51.288  1.00  0.00    -0.316 N 
HETATM    7  H4  UNL     1      27.398   2.513  51.456  1.00  0.00     0.170 HD
BRANCH   6   8
HETATM    8  C5  UNL     1      25.722   1.654  52.164  1.00  0.00     0.036 A 
HETATM    9  C6  UNL     1      26.570   0.849  52.931  1.00  0.00     0.032 A 
HETATM   10  C7  UNL     1      26.115  -0.089  53.830  1.00  0.00     0.035 A 
HETATM   11  C8  UNL     1      24.744  -0.261  54.002  1.00  0.00     0.072 A 
HETATM   12  N2  UNL     1      24.200  -1.141  54.849  1.00  0.00    -0.241 NA
HETATM   13  C17 UNL     1      23.918   0.539  53.241  1.00  0.00     0.043 A 
HETATM   14  C9  UNL     1      22.851  -1.219  54.929  1.00  0.00     0.236 A 
HETATM   15  N3  UNL     1      22.012  -0.448  54.195  1.00  0.00    -0.221 NA
HETATM   16  C10 UNL     1      22.544   0.455  53.328  1.00  0.00     0.170 A 
HETATM   17  C18 UNL     1      24.367   1.471  52.345  1.00  0.00     0.047 A 
BRANCH  16  18
HETATM   18  N4  UNL     1      21.583   1.205  52.616  1.00  0.00    -0.205 NA
BRANCH  18  19
HETATM   19  S1  UNL     1      20.679   0.543  51.428  1.00  0.00    -0.075 SA
HETATM   20  H8  UNL     1      20.900   1.138  50.135  1.00  0.00     0.120 HD
BRANCH  19  21
HETATM   21  C11 UNL     1      19.045  -0.137  51.810  1.00  0.00     0.010 A 
HETATM   22  C12 UNL     1      18.638  -0.824  52.934  1.00  0.00     0.019 A 
HETATM   23  C13 UNL     1      17.335  -1.247  53.003  1.00  0.00     0.003 A 
HETATM   24  C14 UNL     1      16.429  -1.009  51.990  1.00  0.00     0.019 A 
HETATM   25  C15 UNL     1      16.827  -0.323  50.862  1.00  0.00     0.012 A 
HETATM   26 BR1  UNL     1      15.534  -0.019  49.491  1.00  0.00    -0.051 Br
HETATM   27  C16 UNL     1      18.134   0.107  50.784  1.00  0.00     0.038 A 
ENDBRANCH  19  21
ENDBRANCH  18  19
ENDBRANCH  16  18
ENDBRANCH   6   8
ENDBRANCH   3   4
TORSDOF 5
ENDMDL
MODEL 7
REMARK VINA RESULT:      -7.4      2.976      5.862
REMARK  5 active torsions:
REMARK  status: ('A' for Active; 'I' for Inactive)
REMARK    1  A    between atoms: C3_3  and  C4_4 
REMARK       I    between atoms: C4_4  and  N1_6 
REMARK    2  A    between atoms: N1_6  and  C5_7 
REMARK    3  A    between atoms: C10_14  and  N4_15 
REMARK    4  A    between atoms: N4_15  and  S1_16 
REMARK    5  A    between atoms: S1_16  and  C11_17 
ROOT
HETATM    1  C1  UNL     1      18.638   4.192  48.003  1.00  0.00     0.112 C 
HETATM    2  C2  UNL     1      19.215   3.665  49.255  1.00  0.00    -0.101 C 
HETATM    3  C3  UNL     1      19.675   3.235  50.291  1.00  0.00    -0.006 C 
ENDROOT
BRANCH   3   4
HETATM    4  C4  UNL     1      20.244   2.726  51.511  1.00  0.00     0.300 C 
HETATM    5  O1  UNL     1      20.196   3.412  52.565  1.00  0.00    -0.258 OA
HETATM    6  N1  UNL     1      20.842   1.433  51.443  1.00  0.00    -0.316 N 
HETATM    7  H4  UNL     1      20.883   0.862  50.571  1.00  0.00     0.170 HD
BRANCH   6   8
HETATM    8  C5  UNL     1      21.469   0.704  52.489  1.00  0.00     0.036 A 
HETATM    9  C6  UNL     1      20.603   0.079  53.390  1.00  0.00     0.032 A 
HETATM   10  C7  UNL     1      21.037  -0.667  54.463  1.00  0.00     0.035 A 
HETATM   11  C8  UNL     1      22.404  -0.822  54.678  1.00  0.00     0.072 A 
HETATM   12  N2  UNL     1      22.927  -1.526  55.688  1.00  0.00    -0.241 NA
HETATM   13  C17 UNL     1      23.248  -0.202  53.782  1.00  0.00     0.043 A 
HETATM   14  C9  UNL     1      24.275  -1.605  55.796  1.00  0.00     0.236 A 
HETATM   15  N3  UNL     1      25.131  -1.007  54.932  1.00  0.00    -0.221 NA
HETATM   16  C10 UNL     1      24.620  -0.287  53.897  1.00  0.00     0.170 A 
HETATM   17  C18 UNL     1      22.820   0.542  52.716  1.00  0.00     0.047 A 
BRANCH  16  18
HETATM   18  N4  UNL     1      25.597   0.292  53.060  1.00  0.00    -0.205 NA
BRANCH  18  19
HETATM   19  S1  UNL     1      25.899   1.897  53.066  1.00  0.00    -0.075 SA
HETATM   20  H8  UNL     1      25.602   2.536  54.322  1.00  0.00     0.120 HD
BRANCH  19  21
HETATM   21  C11 UNL     1      25.728   2.853  51.538  1.00  0.00     0.010 A 
HETATM   22  C12 UNL     1      26.561   2.880  50.439  1.00  0.00     0.019 A 
HETATM   23  C13 UNL     1      26.224   3.690  49.385  1.00  0.00     0.003 A 
HETATM   24  C14 UNL     1      25.087   4.473  49.392  1.00  0.00     0.019 A 
HETATM   25  C15 UNL     1      24.249   4.453  50.486  1.00  0.00     0.012 A 
HETATM   26 BR1  UNL     1      22.689   5.553  50.444  1.00  0.00    -0.051 Br
HETATM   27  C16 UNL     1      24.578   3.642  51.550  1.00  0.00     0.038 A 
ENDBRANCH  19  21
ENDBRANCH  18  19
ENDBRANCH  16  18
ENDBRANCH   6   8
ENDBRANCH   3   4
TORSDOF 5
ENDMDL
MODEL 8
REMARK VINA RESULT:      -6.9      4.527      8.280
REMARK  5 active torsions:
REMARK  status: ('A' for Active; 'I' for Inactive)
REMARK    1  A    between atoms: C3_3  and  C4_4 
REMARK       I    between atoms: C4_4  and  N1_6 
REMARK    2  A    between atoms: N1_6  and  C5_7 
REMARK    3  A    between atoms: C10_14  and  N4_15 
REMARK    4  A    between atoms: N4_15  and  S1_16 
REMARK    5  A    between atoms: S1_16  and  C11_17 
ROOT
HETATM    1  C1  UNL     1      22.124   5.412  45.891  1.00  0.00     0.112 C 
HETATM    2  C2  UNL     1      22.596   4.996  47.226  1.00  0.00    -0.101 C 
HETATM    3  C3  UNL     1      22.986   4.671  48.328  1.00  0.00    -0.006 C 
ENDROOT
BRANCH   3   4
HETATM    4  C4  UNL     1      23.451   4.261  49.626  1.00  0.00     0.300 C 
HETATM    5  O1  UNL     1      23.288   5.014  50.622  1.00  0.00    -0.258 OA
HETATM    6  N1  UNL     1      24.086   2.986  49.702  1.00  0.00    -0.316 N 
HETATM    7  H4  UNL     1      24.222   2.361  48.878  1.00  0.00     0.170 HD
BRANCH   6   8
HETATM    8  C5  UNL     1      24.632   2.348  50.847  1.00  0.00     0.036 A 
HETATM    9  C6  UNL     1      25.902   2.786  51.233  1.00  0.00     0.032 A 
HETATM   10  C7  UNL     1      26.580   2.277  52.319  1.00  0.00     0.035 A 
HETATM   11  C8  UNL     1      25.989   1.277  53.085  1.00  0.00     0.072 A 
HETATM   12  N2  UNL     1      26.562   0.718  54.157  1.00  0.00    -0.241 NA
HETATM   13  C17 UNL     1      24.736   0.854  52.695  1.00  0.00     0.043 A 
HETATM   14  C9  UNL     1      25.889  -0.249  54.824  1.00  0.00     0.236 A 
HETATM   15  N3  UNL     1      24.658  -0.687  54.466  1.00  0.00    -0.221 NA
HETATM   16  C10 UNL     1      24.056  -0.132  53.380  1.00  0.00     0.170 A 
HETATM   17  C18 UNL     1      24.060   1.356  51.616  1.00  0.00     0.047 A 
BRANCH  16  18
HETATM   18  N4  UNL     1      22.778  -0.659  53.096  1.00  0.00    -0.205 NA
BRANCH  18  19
HETATM   19  S1  UNL     1      21.450  -0.200  53.927  1.00  0.00    -0.075 SA
HETATM   20  H8  UNL     1      21.590  -0.325  55.355  1.00  0.00     0.120 HD
BRANCH  19  21
HETATM   21  C11 UNL     1      19.809  -0.403  53.189  1.00  0.00     0.010 A 
HETATM   22  C12 UNL     1      19.140   0.441  52.327  1.00  0.00     0.019 A 
HETATM   23  C13 UNL     1      17.891   0.075  51.894  1.00  0.00     0.003 A 
HETATM   24  C14 UNL     1      17.290  -1.102  52.292  1.00  0.00     0.019 A 
HETATM   25  C15 UNL     1      17.951  -1.952  53.153  1.00  0.00     0.012 A 
HETATM   26 BR1  UNL     1      17.075  -3.567  53.671  1.00  0.00    -0.051 Br
HETATM   27  C16 UNL     1      19.206  -1.593  53.594  1.00  0.00     0.038 A 
ENDBRANCH  19  21
ENDBRANCH  18  19
ENDBRANCH  16  18
ENDBRANCH   6   8
ENDBRANCH   3   4
TORSDOF 5
ENDMDL
MODEL 9
REMARK VINA RESULT:      -6.9      2.921      5.774
REMARK  5 active torsions:
REMARK  status: ('A' for Active; 'I' for Inactive)
REMARK    1  A    between atoms: C3_3  and  C4_4 
REMARK       I    between atoms: C4_4  and  N1_6 
REMARK    2  A    between atoms: N1_6  and  C5_7 
REMARK    3  A    between atoms: C10_14  and  N4_15 
REMARK    4  A    between atoms: N4_15  and  S1_16 
REMARK    5  A    between atoms: S1_16  and  C11_17 
ROOT
HETATM    1  C1  UNL     1      18.252   3.819  47.012  1.00  0.00     0.112 C 
HETATM    2  C2  UNL     1      19.249   3.016  47.747  1.00  0.00    -0.101 C 
HETATM    3  C3  UNL     1      20.067   2.367  48.363  1.00  0.00    -0.006 C 
ENDROOT
BRANCH   3   4
HETATM    4  C4  UNL     1      21.044   1.584  49.073  1.00  0.00     0.300 C 
HETATM    5  O1  UNL     1      21.759   0.754  48.454  1.00  0.00    -0.258 OA
HETATM    6  N1  UNL     1      21.141   1.810  50.478  1.00  0.00    -0.316 N 
HETATM    7  H4  UNL     1      20.549   2.498  50.993  1.00  0.00     0.170 HD
BRANCH   6   8
HETATM    8  C5  UNL     1      22.012   1.180  51.407  1.00  0.00     0.036 A 
HETATM    9  C6  UNL     1      21.509   0.027  52.016  1.00  0.00     0.032 A 
HETATM   10  C7  UNL     1      22.216  -0.710  52.940  1.00  0.00     0.035 A 
HETATM   11  C8  UNL     1      23.498  -0.304  53.300  1.00  0.00     0.072 A 
HETATM   12  N2  UNL     1      24.266  -0.949  54.185  1.00  0.00    -0.241 NA
HETATM   13  C17 UNL     1      23.983   0.833  52.691  1.00  0.00     0.043 A 
HETATM   14  C9  UNL     1      25.499  -0.458  54.455  1.00  0.00     0.236 A 
HETATM   15  N3  UNL     1      26.004   0.657  53.874  1.00  0.00    -0.221 NA
HETATM   16  C10 UNL     1      25.241   1.327  52.970  1.00  0.00     0.170 A 
HETATM   17  C18 UNL     1      23.283   1.569  51.773  1.00  0.00     0.047 A 
BRANCH  16  18
HETATM   18  N4  UNL     1      25.862   2.472  52.427  1.00  0.00    -0.205 NA
BRANCH  18  19
HETATM   19  S1  UNL     1      26.471   2.488  50.913  1.00  0.00    -0.075 SA
HETATM   20  H8  UNL     1      27.667   1.697  50.763  1.00  0.00     0.120 HD
BRANCH  19  21
HETATM   21  C11 UNL     1      26.254   3.950  49.867  1.00  0.00     0.010 A 
HETATM   22  C12 UNL     1      27.211   4.684  49.199  1.00  0.00     0.019 A 
HETATM   23  C13 UNL     1      26.806   5.764  48.458  1.00  0.00     0.003 A 
HETATM   24  C14 UNL     1      25.480   6.136  48.363  1.00  0.00     0.019 A 
HETATM   25  C15 UNL     1      24.516   5.408  49.028  1.00  0.00     0.012 A 
HETATM   26 BR1  UNL     1      22.697   5.965  48.861  1.00  0.00    -0.051 Br
HETATM   27  C16 UNL     1      24.913   4.321  49.774  1.00  0.00     0.038 A 
ENDBRANCH  19  21
ENDBRANCH  18  19
ENDBRANCH  16  18
ENDBRANCH   6   8
ENDBRANCH   3   4
TORSDOF 5
ENDMDL
