MODEL 1
REMARK VINA RESULT:      -6.8      0.000      0.000
REMARK  3 active torsions:
REMARK  status: ('A' for Active; 'I' for Inactive)
REMARK    1  A    between atoms: O1_2  and  C2_3 
REMARK    2  A    between atoms: C10_15  and  O2_16 
REMARK    3  A    between atoms: C15_23  and  O4_24 
ROOT
HETATM    1  C2  UNL     1      21.092   1.318  50.019  1.00  0.00     0.100 C 
HETATM    2  C3  UNL     1      22.141   1.960  49.445  1.00  0.00     0.014 C 
HETATM    3  C4  UNL     1      23.421   2.199  50.070  1.00  0.00     0.046 C 
HETATM    4  C5  UNL     1      23.838   3.517  50.532  1.00  0.00     0.076 C 
HETATM    5  P1  UNL     1      23.653   3.269  52.426  1.00  0.00    -0.077 P 
HETATM    6  C6  UNL     1      24.718   1.734  52.543  1.00  0.00     0.041 A 
HETATM    7  C7  UNL     1      24.584   0.672  53.252  1.00  0.00     0.126 A 
HETATM    8  N1  UNL     1      25.267  -0.557  53.482  1.00  0.00    -0.296 N 
HETATM    9  S1  UNL     1      26.680  -0.714  52.437  1.00  0.00     0.093 SA
HETATM   10  N2  UNL     1      26.765   0.778  51.504  1.00  0.00    -0.194 NA
HETATM   11  C8  UNL     1      25.875   1.730  51.642  1.00  0.00     0.083 A 
HETATM   12  C9  UNL     1      26.145   2.752  50.629  1.00  0.00     0.066 C 
HETATM   13  C10 UNL     1      25.327   3.792  50.438  1.00  0.00     0.057 C 
HETATM   14  N3  UNL     1      23.300   0.809  53.911  1.00  0.00    -0.337 N 
HETATM   15  C12 UNL     1      22.024   0.435  53.423  1.00  0.00     0.093 A 
HETATM   16  C13 UNL     1      21.290  -0.220  54.309  1.00  0.00     0.175 A 
HETATM   17  O3  UNL     1      20.259  -0.348  53.464  1.00  0.00    -0.315 OA
HETATM   18  C14 UNL     1      21.008   0.353  52.471  1.00  0.00     0.139 A 
HETATM   19  C15 UNL     1      20.644   0.665  51.241  1.00  0.00     0.137 C 
HETATM   20  H8  UNL     1      24.292   4.374  53.098  1.00  0.00     0.063 HD
HETATM   21  H9  UNL     1      24.809  -1.127  54.228  1.00  0.00     0.177 HD
HETATM   22  H14 UNL     1      23.656   1.237  54.784  1.00  0.00     0.167 HD
ENDROOT
BRANCH   1  23
HETATM   23  O1  UNL     1      20.176   1.392  48.938  1.00  0.00    -0.353 OA
HETATM   24  C1  UNL     1      20.145   2.607  48.219  1.00  0.00     0.210 C 
ENDBRANCH   1  23
BRANCH  19  25
HETATM   25  O4  UNL     1      19.331   0.231  50.919  1.00  0.00    -0.351 OA
HETATM   26  C16 UNL     1      18.274   1.019  51.428  1.00  0.00     0.210 C 
ENDBRANCH  19  25
BRANCH  13  27
HETATM   27  O2  UNL     1      25.763   5.103  50.162  1.00  0.00    -0.359 OA
HETATM   28  C11 UNL     1      26.509   5.436  49.035  1.00  0.00     0.209 C 
ENDBRANCH  13  27
TORSDOF 3
ENDMDL
MODEL 2
REMARK VINA RESULT:      -6.7      2.461      6.341
REMARK  3 active torsions:
REMARK  status: ('A' for Active; 'I' for Inactive)
REMARK    1  A    between atoms: O1_2  and  C2_3 
REMARK    2  A    between atoms: C10_15  and  O2_16 
REMARK    3  A    between atoms: C15_23  and  O4_24 
ROOT
HETATM    1  C2  UNL     1      23.818   6.849  50.432  1.00  0.00     0.100 C 
HETATM    2  C3  UNL     1      22.931   6.138  51.173  1.00  0.00     0.014 C 
HETATM    3  C4  UNL     1      23.057   4.742  51.520  1.00  0.00     0.046 C 
HETATM    4  C5  UNL     1      22.235   3.702  50.913  1.00  0.00     0.076 C 
HETATM    5  P1  UNL     1      23.536   2.896  49.756  1.00  0.00    -0.077 P 
HETATM    6  C6  UNL     1      24.823   2.575  51.076  1.00  0.00     0.041 A 
HETATM    7  C7  UNL     1      26.104   2.668  51.041  1.00  0.00     0.126 A 
HETATM    8  N1  UNL     1      27.218   2.465  51.904  1.00  0.00    -0.296 N 
HETATM    9  S1  UNL     1      26.699   2.022  53.532  1.00  0.00     0.093 SA
HETATM   10  N2  UNL     1      24.940   1.934  53.476  1.00  0.00    -0.194 NA
HETATM   11  C8  UNL     1      24.271   2.192  52.379  1.00  0.00     0.083 A 
HETATM   12  C9  UNL     1      22.844   2.175  52.707  1.00  0.00     0.066 C 
HETATM   13  C10 UNL     1      21.910   2.527  51.817  1.00  0.00     0.057 C 
HETATM   14  N3  UNL     1      26.411   3.232  49.741  1.00  0.00    -0.337 N 
HETATM   15  C12 UNL     1      26.474   4.599  49.375  1.00  0.00     0.093 A 
HETATM   16  C13 UNL     1      27.543   4.904  48.655  1.00  0.00     0.175 A 
HETATM   17  O3  UNL     1      27.192   6.193  48.554  1.00  0.00    -0.315 OA
HETATM   18  C14 UNL     1      26.023   5.918  49.327  1.00  0.00     0.139 A 
HETATM   19  C15 UNL     1      25.071   6.753  49.694  1.00  0.00     0.137 C 
HETATM   20  H8  UNL     1      23.002   1.650  49.263  1.00  0.00     0.063 HD
HETATM   21  H9  UNL     1      28.127   2.608  51.411  1.00  0.00     0.177 HD
HETATM   22  H14 UNL     1      26.555   2.332  49.249  1.00  0.00     0.167 HD
ENDROOT
BRANCH   1  23
HETATM   23  O1  UNL     1      23.163   8.106  50.457  1.00  0.00    -0.353 OA
HETATM   24  C1  UNL     1      21.802   8.117  50.078  1.00  0.00     0.210 C 
ENDBRANCH   1  23
BRANCH  19  25
HETATM   25  O4  UNL     1      25.279   8.079  49.230  1.00  0.00    -0.351 OA
HETATM   26  C16 UNL     1      26.199   8.858  49.967  1.00  0.00     0.210 C 
ENDBRANCH  19  25
BRANCH  13  27
HETATM   27  O2  UNL     1      20.667   1.880  51.673  1.00  0.00    -0.359 OA
HETATM   28  C11 UNL     1      20.543   0.533  51.344  1.00  0.00     0.209 C 
ENDBRANCH  13  27
TORSDOF 3
ENDMDL
MODEL 3
REMARK VINA RESULT:      -6.7      3.247      5.962
REMARK  3 active torsions:
REMARK  status: ('A' for Active; 'I' for Inactive)
REMARK    1  A    between atoms: O1_2  and  C2_3 
REMARK    2  A    between atoms: C10_15  and  O2_16 
REMARK    3  A    between atoms: C15_23  and  O4_24 
ROOT
HETATM    1  C2  UNL     1      22.591  -0.058  52.757  1.00  0.00     0.100 C 
HETATM    2  C3  UNL     1      21.282   0.213  52.519  1.00  0.00     0.014 C 
HETATM    3  C4  UNL     1      20.785   1.328  51.748  1.00  0.00     0.046 C 
HETATM    4  C5  UNL     1      20.134   2.481  52.359  1.00  0.00     0.076 C 
HETATM    5  P1  UNL     1      21.536   3.778  52.179  1.00  0.00    -0.077 P 
HETATM    6  C6  UNL     1      21.780   3.570  50.334  1.00  0.00     0.041 A 
HETATM    7  C7  UNL     1      22.850   3.572  49.623  1.00  0.00     0.126 A 
HETATM    8  N1  UNL     1      23.229   3.446  48.257  1.00  0.00    -0.296 N 
HETATM    9  S1  UNL     1      21.832   3.115  47.229  1.00  0.00     0.093 SA
HETATM   10  N2  UNL     1      20.430   3.120  48.296  1.00  0.00    -0.194 NA
HETATM   11  C8  UNL     1      20.544   3.323  49.585  1.00  0.00     0.083 A 
HETATM   12  C9  UNL     1      19.228   3.117  50.193  1.00  0.00     0.066 C 
HETATM   13  C10 UNL     1      19.052   3.132  51.518  1.00  0.00     0.057 C 
HETATM   14  N3  UNL     1      23.942   3.642  50.574  1.00  0.00    -0.337 N 
HETATM   15  C12 UNL     1      24.592   2.571  51.237  1.00  0.00     0.093 A 
HETATM   16  C13 UNL     1      25.913   2.666  51.223  1.00  0.00     0.175 A 
HETATM   17  O3  UNL     1      26.070   1.529  51.914  1.00  0.00    -0.315 OA
HETATM   18  C14 UNL     1      24.651   1.379  51.958  1.00  0.00     0.139 A 
HETATM   19  C15 UNL     1      23.948   0.415  52.521  1.00  0.00     0.137 C 
HETATM   20  H8  UNL     1      20.994   5.083  52.469  1.00  0.00     0.063 HD
HETATM   21  H9  UNL     1      24.256   3.579  48.120  1.00  0.00     0.177 HD
HETATM   22  H14 UNL     1      24.045   4.672  50.567  1.00  0.00     0.167 HD
ENDROOT
BRANCH   1  23
HETATM   23  O1  UNL     1      22.430  -1.238  53.528  1.00  0.00    -0.353 OA
HETATM   24  C1  UNL     1      21.491  -1.181  54.581  1.00  0.00     0.210 C 
ENDBRANCH   1  23
BRANCH  19  25
HETATM   25  O4  UNL     1      24.753  -0.567  53.156  1.00  0.00    -0.351 OA
HETATM   26  C16 UNL     1      25.345  -0.189  54.381  1.00  0.00     0.210 C 
ENDBRANCH  19  25
BRANCH  13  27
HETATM   27  O2  UNL     1      17.940   3.708  52.164  1.00  0.00    -0.359 OA
HETATM   28  C11 UNL     1      16.790   4.107  51.490  1.00  0.00     0.209 C 
ENDBRANCH  13  27
TORSDOF 3
ENDMDL
MODEL 4
REMARK VINA RESULT:      -6.3      8.952     11.867
REMARK  3 active torsions:
REMARK  status: ('A' for Active; 'I' for Inactive)
REMARK    1  A    between atoms: O1_2  and  C2_3 
REMARK    2  A    between atoms: C10_15  and  O2_16 
REMARK    3  A    between atoms: C15_23  and  O4_24 
ROOT
HETATM    1  C2  UNL     1      29.813   6.085  48.059  1.00  0.00     0.100 C 
HETATM    2  C3  UNL     1      28.769   6.927  47.850  1.00  0.00     0.014 C 
HETATM    3  C4  UNL     1      28.874   8.343  47.591  1.00  0.00     0.046 C 
HETATM    4  C5  UNL     1      28.517   9.354  48.579  1.00  0.00     0.076 C 
HETATM    5  P1  UNL     1      30.270   9.944  49.088  1.00  0.00    -0.077 P 
HETATM    6  C6  UNL     1      30.871  10.337  47.359  1.00  0.00     0.041 A 
HETATM    7  C7  UNL     1      32.019  10.164  46.810  1.00  0.00     0.126 A 
HETATM    8  N1  UNL     1      32.654  10.398  45.556  1.00  0.00    -0.296 N 
HETATM    9  S1  UNL     1      31.520  11.055  44.373  1.00  0.00     0.093 SA
HETATM   10  N2  UNL     1      29.986  11.240  45.218  1.00  0.00    -0.194 NA
HETATM   11  C8  UNL     1      29.845  10.899  46.475  1.00  0.00     0.083 A 
HETATM   12  C9  UNL     1      28.429  11.037  46.825  1.00  0.00     0.066 C 
HETATM   13  C10 UNL     1      27.952  10.642  48.009  1.00  0.00     0.057 C 
HETATM   14  N3  UNL     1      32.807   9.439  47.786  1.00  0.00    -0.337 N 
HETATM   15  C12 UNL     1      32.882   8.037  47.981  1.00  0.00     0.093 A 
HETATM   16  C13 UNL     1      34.120   7.588  48.119  1.00  0.00     0.175 A 
HETATM   17  O3  UNL     1      33.717   6.319  48.269  1.00  0.00    -0.315 OA
HETATM   18  C14 UNL     1      32.363   6.750  48.125  1.00  0.00     0.139 A 
HETATM   19  C15 UNL     1      31.265   6.020  48.162  1.00  0.00     0.137 C 
HETATM   20  H8  UNL     1      30.141  11.155  49.861  1.00  0.00     0.063 HD
HETATM   21  H9  UNL     1      33.667  10.146  45.577  1.00  0.00     0.177 HD
HETATM   22  H14 UNL     1      33.245  10.266  48.228  1.00  0.00     0.167 HD
ENDROOT
BRANCH   1  23
HETATM   23  O1  UNL     1      29.087   4.879  48.235  1.00  0.00    -0.353 OA
HETATM   24  C1  UNL     1      27.728   5.009  48.598  1.00  0.00     0.210 C 
ENDBRANCH   1  23
BRANCH  19  25
HETATM   25  O4  UNL     1      31.517   4.640  48.381  1.00  0.00    -0.351 OA
HETATM   26  C16 UNL     1      31.973   3.907  47.263  1.00  0.00     0.210 C 
ENDBRANCH  19  25
BRANCH  13  27
HETATM   27  O2  UNL     1      26.974  11.341  48.744  1.00  0.00    -0.359 OA
HETATM   28  C11 UNL     1      25.736  11.697  48.217  1.00  0.00     0.209 C 
ENDBRANCH  13  27
TORSDOF 3
ENDMDL
MODEL 5
REMARK VINA RESULT:      -6.2      3.568      6.497
REMARK  3 active torsions:
REMARK  status: ('A' for Active; 'I' for Inactive)
REMARK    1  A    between atoms: O1_2  and  C2_3 
REMARK    2  A    between atoms: C10_15  and  O2_16 
REMARK    3  A    between atoms: C15_23  and  O4_24 
ROOT
HETATM    1  C2  UNL     1      25.369   5.432  49.241  1.00  0.00     0.100 C 
HETATM    2  C3  UNL     1      25.541   4.121  49.549  1.00  0.00     0.014 C 
HETATM    3  C4  UNL     1      24.588   3.291  50.246  1.00  0.00     0.046 C 
HETATM    4  C5  UNL     1      24.777   2.863  51.626  1.00  0.00     0.076 C 
HETATM    5  P1  UNL     1      23.495   3.996  52.496  1.00  0.00    -0.077 P 
HETATM    6  C6  UNL     1      22.029   3.506  51.439  1.00  0.00     0.041 A 
HETATM    7  C7  UNL     1      21.059   4.207  50.972  1.00  0.00     0.126 A 
HETATM    8  N1  UNL     1      19.886   4.024  50.187  1.00  0.00    -0.296 N 
HETATM    9  S1  UNL     1      19.746   2.359  49.617  1.00  0.00     0.093 SA
HETATM   10  N2  UNL     1      21.120   1.494  50.298  1.00  0.00    -0.194 NA
HETATM   11  C8  UNL     1      22.011   2.093  51.048  1.00  0.00     0.083 A 
HETATM   12  C9  UNL     1      23.087   1.139  51.322  1.00  0.00     0.066 C 
HETATM   13  C10 UNL     1      24.204   1.498  51.963  1.00  0.00     0.057 C 
HETATM   14  N3  UNL     1      21.376   5.579  51.318  1.00  0.00    -0.337 N 
HETATM   15  C12 UNL     1      22.165   6.503  50.591  1.00  0.00     0.093 A 
HETATM   16  C13 UNL     1      21.614   7.703  50.488  1.00  0.00     0.175 A 
HETATM   17  O3  UNL     1      22.642   8.190  49.781  1.00  0.00    -0.315 OA
HETATM   18  C14 UNL     1      23.280   6.916  49.862  1.00  0.00     0.139 A 
HETATM   19  C15 UNL     1      24.448   6.553  49.366  1.00  0.00     0.137 C 
HETATM   20  H8  UNL     1      23.315   3.532  53.849  1.00  0.00     0.063 HD
HETATM   21  H9  UNL     1      19.329   4.903  50.103  1.00  0.00     0.177 HD
HETATM   22  H14 UNL     1      20.846   5.605  52.208  1.00  0.00     0.167 HD
ENDROOT
BRANCH   1  23
HETATM   23  O1  UNL     1      26.600   5.661  48.576  1.00  0.00    -0.353 OA
HETATM   24  C1  UNL     1      27.584   4.655  48.702  1.00  0.00     0.210 C 
ENDBRANCH   1  23
BRANCH  19  25
HETATM   25  O4  UNL     1      25.116   7.603  48.681  1.00  0.00    -0.351 OA
HETATM   26  C16 UNL     1      24.698   7.843  47.354  1.00  0.00     0.210 C 
ENDBRANCH  19  25
BRANCH  13  27
HETATM   27  O2  UNL     1      24.866   0.697  52.915  1.00  0.00    -0.359 OA
HETATM   28  C11 UNL     1      24.261  -0.379  53.557  1.00  0.00     0.209 C 
ENDBRANCH  13  27
TORSDOF 3
ENDMDL
MODEL 6
REMARK VINA RESULT:      -6.2     12.734     14.767
REMARK  3 active torsions:
REMARK  status: ('A' for Active; 'I' for Inactive)
REMARK    1  A    between atoms: O1_2  and  C2_3 
REMARK    2  A    between atoms: C10_15  and  O2_16 
REMARK    3  A    between atoms: C15_23  and  O4_24 
ROOT
HETATM    1  C2  UNL     1      34.474   4.580  46.784  1.00  0.00     0.100 C 
HETATM    2  C3  UNL     1      34.486   4.052  45.534  1.00  0.00     0.014 C 
HETATM    3  C4  UNL     1      34.465   4.808  44.305  1.00  0.00     0.046 C 
HETATM    4  C5  UNL     1      33.288   4.886  43.447  1.00  0.00     0.076 C 
HETATM    5  P1  UNL     1      32.719   6.676  43.837  1.00  0.00    -0.077 P 
HETATM    6  C6  UNL     1      34.353   7.505  43.451  1.00  0.00     0.041 A 
HETATM    7  C7  UNL     1      34.955   8.482  44.027  1.00  0.00     0.126 A 
HETATM    8  N1  UNL     1      36.154   9.237  43.882  1.00  0.00    -0.296 N 
HETATM    9  S1  UNL     1      37.156   8.611  42.570  1.00  0.00     0.093 SA
HETATM   10  N2  UNL     1      36.250   7.277  41.861  1.00  0.00    -0.194 NA
HETATM   11  C8  UNL     1      35.082   6.911  42.326  1.00  0.00     0.083 A 
HETATM   12  C9  UNL     1      34.675   5.694  41.619  1.00  0.00     0.066 C 
HETATM   13  C10 UNL     1      33.579   5.010  41.963  1.00  0.00     0.057 C 
HETATM   14  N3  UNL     1      34.161   8.784  45.201  1.00  0.00    -0.337 N 
HETATM   15  C12 UNL     1      34.248   8.198  46.488  1.00  0.00     0.093 A 
HETATM   16  C13 UNL     1      34.233   9.083  47.473  1.00  0.00     0.175 A 
HETATM   17  O3  UNL     1      34.325   8.136  48.417  1.00  0.00    -0.315 OA
HETATM   18  C14 UNL     1      34.345   7.141  47.393  1.00  0.00     0.139 A 
HETATM   19  C15 UNL     1      34.424   5.831  47.528  1.00  0.00     0.137 C 
HETATM   20  H8  UNL     1      31.720   7.061  42.870  1.00  0.00     0.063 HD
HETATM   21  H9  UNL     1      36.210  10.020  44.572  1.00  0.00     0.177 HD
HETATM   22  H14 UNL     1      33.577   9.520  44.767  1.00  0.00     0.167 HD
ENDROOT
BRANCH   1  23
HETATM   23  O1  UNL     1      34.519   3.373  47.529  1.00  0.00    -0.353 OA
HETATM   24  C1  UNL     1      33.396   2.523  47.422  1.00  0.00     0.210 C 
ENDBRANCH   1  23
BRANCH  19  25
HETATM   25  O4  UNL     1      34.487   5.411  48.883  1.00  0.00    -0.351 OA
HETATM   26  C16 UNL     1      35.731   5.582  49.529  1.00  0.00     0.210 C 
ENDBRANCH  19  25
BRANCH  13  27
HETATM   27  O2  UNL     1      32.696   4.412  41.042  1.00  0.00    -0.359 OA
HETATM   28  C11 UNL     1      32.844   3.106  40.583  1.00  0.00     0.209 C 
ENDBRANCH  13  27
TORSDOF 3
ENDMDL
MODEL 7
REMARK VINA RESULT:      -6.2     10.779     12.838
REMARK  3 active torsions:
REMARK  status: ('A' for Active; 'I' for Inactive)
REMARK    1  A    between atoms: O1_2  and  C2_3 
REMARK    2  A    between atoms: C10_15  and  O2_16 
REMARK    3  A    between atoms: C15_23  and  O4_24 
ROOT
HETATM    1  C2  UNL     1      32.921   9.664  45.462  1.00  0.00     0.100 C 
HETATM    2  C3  UNL     1      33.253   8.359  45.291  1.00  0.00     0.014 C 
HETATM    3  C4  UNL     1      32.911   7.282  46.189  1.00  0.00     0.046 C 
HETATM    4  C5  UNL     1      33.890   6.637  47.055  1.00  0.00     0.076 C 
HETATM    5  P1  UNL     1      33.372   7.386  48.744  1.00  0.00    -0.077 P 
HETATM    6  C6  UNL     1      31.569   6.890  48.651  1.00  0.00     0.041 A 
HETATM    7  C7  UNL     1      30.507   7.514  49.015  1.00  0.00     0.126 A 
HETATM    8  N1  UNL     1      29.098   7.309  49.037  1.00  0.00    -0.296 N 
HETATM    9  S1  UNL     1      28.658   5.777  48.277  1.00  0.00     0.093 SA
HETATM   10  N2  UNL     1      30.174   5.013  47.808  1.00  0.00    -0.194 NA
HETATM   11  C8  UNL     1      31.332   5.588  48.020  1.00  0.00     0.083 A 
HETATM   12  C9  UNL     1      32.367   4.769  47.385  1.00  0.00     0.066 C 
HETATM   13  C10 UNL     1      33.642   5.164  47.324  1.00  0.00     0.057 C 
HETATM   14  N3  UNL     1      30.957   8.828  49.428  1.00  0.00    -0.337 N 
HETATM   15  C12 UNL     1      31.148   9.979  48.623  1.00  0.00     0.093 A 
HETATM   16  C13 UNL     1      30.636  11.081  49.147  1.00  0.00     0.175 A 
HETATM   17  O3  UNL     1      31.035  11.839  48.117  1.00  0.00    -0.315 OA
HETATM   18  C14 UNL     1      31.605  10.680  47.508  1.00  0.00     0.139 A 
HETATM   19  C15 UNL     1      32.248  10.594  46.359  1.00  0.00     0.137 C 
HETATM   20  H8  UNL     1      34.040   6.656  49.794  1.00  0.00     0.063 HD
HETATM   21  H9  UNL     1      28.594   8.096  49.503  1.00  0.00     0.177 HD
HETATM   22  H14 UNL     1      31.063   8.610  50.435  1.00  0.00     0.167 HD
ENDROOT
BRANCH   1  23
HETATM   23  O1  UNL     1      33.509  10.193  44.285  1.00  0.00    -0.353 OA
HETATM   24  C1  UNL     1      33.720   9.287  43.222  1.00  0.00     0.210 C 
ENDBRANCH   1  23
BRANCH  19  25
HETATM   25  O4  UNL     1      32.366  11.840  45.688  1.00  0.00    -0.351 OA
HETATM   26  C16 UNL     1      31.213  12.293  45.012  1.00  0.00     0.210 C 
ENDBRANCH  19  25
BRANCH  13  27
HETATM   27  O2  UNL     1      34.747   4.307  47.493  1.00  0.00    -0.359 OA
HETATM   28  C11 UNL     1      35.044   3.265  46.619  1.00  0.00     0.209 C 
ENDBRANCH  13  27
TORSDOF 3
ENDMDL
MODEL 8
REMARK VINA RESULT:      -6.1     17.735     20.734
REMARK  3 active torsions:
REMARK  status: ('A' for Active; 'I' for Inactive)
REMARK    1  A    between atoms: O1_2  and  C2_3 
REMARK    2  A    between atoms: C10_15  and  O2_16 
REMARK    3  A    between atoms: C15_23  and  O4_24 
ROOT
HETATM    1  C2  UNL     1      42.015   8.575  51.725  1.00  0.00     0.100 C 
HETATM    2  C3  UNL     1      43.338   8.658  52.018  1.00  0.00     0.014 C 
HETATM    3  C4  UNL     1      43.984   8.046  53.154  1.00  0.00     0.046 C 
HETATM    4  C5  UNL     1      44.452   8.814  54.302  1.00  0.00     0.076 C 
HETATM    5  P1  UNL     1      43.110   8.329  55.585  1.00  0.00    -0.077 P 
HETATM    6  C6  UNL     1      43.313   6.476  55.412  1.00  0.00     0.041 A 
HETATM    7  C7  UNL     1      42.442   5.532  55.416  1.00  0.00     0.126 A 
HETATM    8  N1  UNL     1      42.398   4.113  55.313  1.00  0.00    -0.296 N 
HETATM    9  S1  UNL     1      44.004   3.439  55.021  1.00  0.00     0.093 SA
HETATM   10  N2  UNL     1      45.114   4.807  55.022  1.00  0.00    -0.194 NA
HETATM   11  C8  UNL     1      44.695   6.036  55.197  1.00  0.00     0.083 A 
HETATM   12  C9  UNL     1      45.833   6.934  54.995  1.00  0.00     0.066 C 
HETATM   13  C10 UNL     1      45.691   8.264  54.984  1.00  0.00     0.057 C 
HETATM   14  N3  UNL     1      41.155   6.198  55.452  1.00  0.00    -0.337 N 
HETATM   15  C12 UNL     1      40.385   6.670  54.360  1.00  0.00     0.093 A 
HETATM   16  C13 UNL     1      39.103   6.346  54.438  1.00  0.00     0.175 A 
HETATM   17  O3  UNL     1      38.807   6.960  53.285  1.00  0.00    -0.315 OA
HETATM   18  C14 UNL     1      40.178   7.336  53.153  1.00  0.00     0.139 A 
HETATM   19  C15 UNL     1      40.744   8.033  52.186  1.00  0.00     0.137 C 
HETATM   20  H8  UNL     1      43.546   8.761  56.891  1.00  0.00     0.063 HD
HETATM   21  H9  UNL     1      41.431   3.739  55.437  1.00  0.00     0.177 HD
HETATM   22  H14 UNL     1      41.039   6.185  56.481  1.00  0.00     0.167 HD
ENDROOT
BRANCH   1  23
HETATM   23  O1  UNL     1      42.010   9.341  50.531  1.00  0.00    -0.353 OA
HETATM   24  C1  UNL     1      42.910   8.940  49.520  1.00  0.00     0.210 C 
ENDBRANCH   1  23
BRANCH  19  25
HETATM   25  O4  UNL     1      39.829   8.442  51.180  1.00  0.00    -0.351 OA
HETATM   26  C16 UNL     1      39.489   7.467  50.216  1.00  0.00     0.210 C 
ENDBRANCH  19  25
BRANCH  13  27
HETATM   27  O2  UNL     1      46.609   9.164  55.560  1.00  0.00    -0.359 OA
HETATM   28  C11 UNL     1      46.662   9.429  56.926  1.00  0.00     0.209 C 
ENDBRANCH  13  27
TORSDOF 3
ENDMDL
MODEL 9
REMARK VINA RESULT:      -6.0      3.003      6.629
REMARK  3 active torsions:
REMARK  status: ('A' for Active; 'I' for Inactive)
REMARK    1  A    between atoms: O1_2  and  C2_3 
REMARK    2  A    between atoms: C10_15  and  O2_16 
REMARK    3  A    between atoms: C15_23  and  O4_24 
ROOT
HETATM    1  C2  UNL     1      26.079   0.604  52.555  1.00  0.00     0.100 C 
HETATM    2  C3  UNL     1      24.892  -0.005  52.803  1.00  0.00     0.014 C 
HETATM    3  C4  UNL     1      23.611   0.412  52.283  1.00  0.00     0.046 C 
HETATM    4  C5  UNL     1      22.597   1.053  53.110  1.00  0.00     0.076 C 
HETATM    5  P1  UNL     1      22.750   2.856  52.471  1.00  0.00    -0.077 P 
HETATM    6  C6  UNL     1      22.522   2.456  50.656  1.00  0.00     0.041 A 
HETATM    7  C7  UNL     1      23.090   2.942  49.611  1.00  0.00     0.126 A 
HETATM    8  N1  UNL     1      23.048   2.785  48.197  1.00  0.00    -0.296 N 
HETATM    9  S1  UNL     1      21.944   1.489  47.726  1.00  0.00     0.093 SA
HETATM   10  N2  UNL     1      21.234   0.887  49.221  1.00  0.00    -0.194 NA
HETATM   11  C8  UNL     1      21.563   1.379  50.389  1.00  0.00     0.083 A 
HETATM   12  C9  UNL     1      20.914   0.568  51.421  1.00  0.00     0.066 C 
HETATM   13  C10 UNL     1      21.161   0.749  52.722  1.00  0.00     0.057 C 
HETATM   14  N3  UNL     1      24.114   3.838  50.113  1.00  0.00    -0.337 N 
HETATM   15  C12 UNL     1      25.446   3.523  50.479  1.00  0.00     0.093 A 
HETATM   16  C13 UNL     1      26.341   4.373  49.999  1.00  0.00     0.175 A 
HETATM   17  O3  UNL     1      27.365   3.721  50.564  1.00  0.00    -0.315 OA
HETATM   18  C14 UNL     1      26.443   2.776  51.106  1.00  0.00     0.139 A 
HETATM   19  C15 UNL     1      26.699   1.725  51.862  1.00  0.00     0.137 C 
HETATM   20  H8  UNL     1      21.626   3.615  52.962  1.00  0.00     0.063 HD
HETATM   21  H9  UNL     1      23.669   3.467  47.707  1.00  0.00     0.177 HD
HETATM   22  H14 UNL     1      23.542   4.701  50.091  1.00  0.00     0.167 HD
ENDROOT
BRANCH   1  23
HETATM   23  O1  UNL     1      26.923  -0.253  53.307  1.00  0.00    -0.353 OA
HETATM   24  C1  UNL     1      27.014  -1.592  52.869  1.00  0.00     0.210 C 
ENDBRANCH   1  23
BRANCH  19  25
HETATM   25  O4  UNL     1      28.080   1.565  52.148  1.00  0.00    -0.351 OA
HETATM   26  C16 UNL     1      28.573   2.288  53.257  1.00  0.00     0.210 C 
ENDBRANCH  19  25
BRANCH  13  27
HETATM   27  O2  UNL     1      20.183   0.676  53.733  1.00  0.00    -0.359 OA
HETATM   28  C11 UNL     1      20.473   0.338  55.052  1.00  0.00     0.209 C 
ENDBRANCH  13  27
TORSDOF 3
ENDMDL
