MODEL 1
REMARK VINA RESULT:      -8.7      0.000      0.000
REMARK  4 active torsions:
REMARK  status: ('A' for Active; 'I' for Inactive)
REMARK    1  A    between atoms: N1_5  and  C5_6 
REMARK    2  A    between atoms: N4_15  and  C11_16 
REMARK    3  A    between atoms: C11_16  and  C12_17 
REMARK    4  A    between atoms: C18_23  and  N5_24 
ROOT
HETATM    1  C5  UNL     1      23.879   2.748  50.347  1.00  0.00     0.145 A 
HETATM    2  N2  UNL     1      24.787   3.417  49.580  1.00  0.00    -0.200 NA
HETATM    3  C6  UNL     1      26.101   3.443  49.945  1.00  0.00     0.227 A 
HETATM    4 CL1  UNL     1      27.225   4.330  48.904  1.00  0.00    -0.041 Cl
HETATM    5  N3  UNL     1      26.573   2.821  51.063  1.00  0.00    -0.199 NA
HETATM    6  C7  UNL     1      25.680   2.153  51.834  1.00  0.00     0.147 A 
HETATM    7  C8  UNL     1      24.344   2.114  51.482  1.00  0.00     0.057 A 
HETATM    8  C9  UNL     1      23.657   1.383  52.414  1.00  0.00     0.036 A 
HETATM    9  C10 UNL     1      24.603   0.979  53.339  1.00  0.00     0.094 A 
HETATM   10  N4  UNL     1      25.810   1.449  52.976  1.00  0.00    -0.337 N 
ENDROOT
BRANCH   1  11
HETATM   11  N1  UNL     1      22.514   2.752  49.919  1.00  0.00    -0.331 N 
HETATM   12  C4  UNL     1      21.396   3.553  50.403  1.00  0.00     0.154 C 
HETATM   13  C3  UNL     1      20.169   2.708  50.396  1.00  0.00    -0.005 C 
HETATM   14  C2  UNL     1      20.106   1.442  49.974  1.00  0.00    -0.082 C 
HETATM   15  C1  UNL     1      18.736   0.846  50.085  1.00  0.00     0.043 C 
HETATM   16  C19 UNL     1      21.324   0.753  49.455  1.00  0.00     0.090 C 
HETATM   17  C18 UNL     1      22.189   1.819  48.838  1.00  0.00     0.324 C 
BRANCH  17  18
HETATM   18  N5  UNL     1      21.343   2.587  47.922  1.00  0.00     0.101 N 
HETATM   19  H17 UNL     1      21.897   3.321  47.430  1.00  0.00     0.315 HD
HETATM   20  H18 UNL     1      20.751   2.008  47.318  1.00  0.00     0.315 HD
ENDBRANCH  17  18
ENDBRANCH   1  11
BRANCH  10  21
HETATM   21  C11 UNL     1      27.057   1.224  53.714  1.00  0.00     0.168 C 
BRANCH  21  22
HETATM   22  C12 UNL     1      27.576  -0.137  53.416  1.00  0.00    -0.040 A 
HETATM   23  C13 UNL     1      28.906  -0.336  53.722  1.00  0.00     0.009 A 
HETATM   24  C14 UNL     1      29.553  -1.538  53.512  1.00  0.00     0.001 A 
HETATM   25  C15 UNL     1      28.834  -2.600  52.964  1.00  0.00     0.000 A 
HETATM   26  C16 UNL     1      27.495  -2.409  52.652  1.00  0.00     0.001 A 
HETATM   27  C17 UNL     1      26.871  -1.204  52.871  1.00  0.00     0.009 A 
ENDBRANCH  21  22
ENDBRANCH  10  21
TORSDOF 4
ENDMDL
MODEL 2
REMARK VINA RESULT:      -8.5      2.476      3.449
REMARK  4 active torsions:
REMARK  status: ('A' for Active; 'I' for Inactive)
REMARK    1  A    between atoms: N1_5  and  C5_6 
REMARK    2  A    between atoms: N4_15  and  C11_16 
REMARK    3  A    between atoms: C11_16  and  C12_17 
REMARK    4  A    between atoms: C18_23  and  N5_24 
ROOT
HETATM    1  C5  UNL     1      22.437   1.103  51.442  1.00  0.00     0.145 A 
HETATM    2  N2  UNL     1      21.670   0.279  52.211  1.00  0.00    -0.200 NA
HETATM    3  C6  UNL     1      22.192  -0.285  53.338  1.00  0.00     0.227 A 
HETATM    4 CL1  UNL     1      21.140  -1.344  54.290  1.00  0.00    -0.041 Cl
HETATM    5  N3  UNL     1      23.473  -0.066  53.752  1.00  0.00    -0.199 NA
HETATM    6  C7  UNL     1      24.246   0.750  52.995  1.00  0.00     0.147 A 
HETATM    7  C8  UNL     1      23.737   1.332  51.850  1.00  0.00     0.057 A 
HETATM    8  C9  UNL     1      24.706   2.105  51.270  1.00  0.00     0.036 A 
HETATM    9  C10 UNL     1      25.816   1.981  52.087  1.00  0.00     0.094 A 
HETATM   10  N4  UNL     1      25.522   1.166  53.116  1.00  0.00    -0.337 N 
ENDROOT
BRANCH   1  11
HETATM   11  N1  UNL     1      21.840   1.668  50.271  1.00  0.00    -0.331 N 
HETATM   12  C4  UNL     1      21.767   1.127  48.919  1.00  0.00     0.154 C 
HETATM   13  C3  UNL     1      21.922   2.250  47.951  1.00  0.00    -0.005 C 
HETATM   14  C2  UNL     1      22.062   3.537  48.278  1.00  0.00    -0.082 C 
HETATM   15  C1  UNL     1      22.197   4.441  47.090  1.00  0.00     0.043 C 
HETATM   16  C19 UNL     1      22.073   3.961  49.709  1.00  0.00     0.090 C 
HETATM   17  C18 UNL     1      21.210   2.978  50.453  1.00  0.00     0.324 C 
BRANCH  17  18
HETATM   18  N5  UNL     1      19.939   2.885  49.733  1.00  0.00     0.101 N 
HETATM   19  H17 UNL     1      19.150   3.222  50.325  1.00  0.00     0.315 HD
HETATM   20  H18 UNL     1      19.969   3.271  48.784  1.00  0.00     0.315 HD
ENDBRANCH  17  18
ENDBRANCH   1  11
BRANCH  10  21
HETATM   21  C11 UNL     1      26.452   0.797  54.190  1.00  0.00     0.168 C 
BRANCH  21  22
HETATM   22  C12 UNL     1      27.309  -0.332  53.742  1.00  0.00    -0.040 A 
HETATM   23  C13 UNL     1      28.653  -0.190  54.019  1.00  0.00     0.009 A 
HETATM   24  C14 UNL     1      29.594  -1.141  53.675  1.00  0.00     0.001 A 
HETATM   25  C15 UNL     1      29.172  -2.297  53.020  1.00  0.00     0.000 A 
HETATM   26  C16 UNL     1      27.822  -2.448  52.737  1.00  0.00     0.001 A 
HETATM   27  C17 UNL     1      26.902  -1.489  53.089  1.00  0.00     0.009 A 
ENDBRANCH  21  22
ENDBRANCH  10  21
TORSDOF 4
ENDMDL
MODEL 3
REMARK VINA RESULT:      -8.4      2.805      7.270
REMARK  4 active torsions:
REMARK  status: ('A' for Active; 'I' for Inactive)
REMARK    1  A    between atoms: N1_5  and  C5_6 
REMARK    2  A    between atoms: N4_15  and  C11_16 
REMARK    3  A    between atoms: C11_16  and  C12_17 
REMARK    4  A    between atoms: C18_23  and  N5_24 
ROOT
HETATM    1  C5  UNL     1      24.988   1.674  52.599  1.00  0.00     0.145 A 
HETATM    2  N2  UNL     1      23.659   1.722  52.903  1.00  0.00    -0.200 NA
HETATM    3  C6  UNL     1      22.831   2.557  52.212  1.00  0.00     0.227 A 
HETATM    4 CL1  UNL     1      21.118   2.570  52.660  1.00  0.00    -0.041 Cl
HETATM    5  N3  UNL     1      23.266   3.368  51.206  1.00  0.00    -0.199 NA
HETATM    6  C7  UNL     1      24.584   3.330  50.895  1.00  0.00     0.147 A 
HETATM    7  C8  UNL     1      25.441   2.491  51.582  1.00  0.00     0.057 A 
HETATM    8  C9  UNL     1      26.707   2.636  51.082  1.00  0.00     0.036 A 
HETATM    9  C10 UNL     1      26.603   3.581  50.077  1.00  0.00     0.094 A 
HETATM   10  N4  UNL     1      25.323   3.986  49.978  1.00  0.00    -0.337 N 
ENDROOT
BRANCH   1  11
HETATM   11  N1  UNL     1      25.812   0.781  53.354  1.00  0.00    -0.331 N 
HETATM   12  C4  UNL     1      26.832   1.085  54.350  1.00  0.00     0.154 C 
HETATM   13  C3  UNL     1      27.948   0.110  54.196  1.00  0.00    -0.005 C 
HETATM   14  C2  UNL     1      27.980  -0.896  53.319  1.00  0.00    -0.082 C 
HETATM   15  C1  UNL     1      29.234  -1.713  53.395  1.00  0.00     0.043 C 
HETATM   16  C19 UNL     1      26.840  -1.124  52.383  1.00  0.00     0.090 C 
HETATM   17  C18 UNL     1      25.602  -0.645  53.092  1.00  0.00     0.324 C 
BRANCH  17  18
HETATM   18  N5  UNL     1      25.592  -1.271  54.416  1.00  0.00     0.101 N 
HETATM   19  H17 UNL     1      24.634  -1.599  54.666  1.00  0.00     0.315 HD
HETATM   20  H18 UNL     1      26.339  -1.958  54.557  1.00  0.00     0.315 HD
ENDBRANCH  17  18
ENDBRANCH   1  11
BRANCH  10  21
HETATM   21  C11 UNL     1      24.828   4.981  49.021  1.00  0.00     0.168 C 
BRANCH  21  22
HETATM   22  C12 UNL     1      25.674   6.201  49.087  1.00  0.00    -0.040 A 
HETATM   23  C13 UNL     1      25.454   7.007  50.185  1.00  0.00     0.009 A 
HETATM   24  C14 UNL     1      26.149   8.179  50.406  1.00  0.00     0.001 A 
HETATM   25  C15 UNL     1      27.117   8.571  49.483  1.00  0.00     0.000 A 
HETATM   26  C16 UNL     1      27.346   7.767  48.374  1.00  0.00     0.001 A 
HETATM   27  C17 UNL     1      26.642   6.603  48.174  1.00  0.00     0.009 A 
ENDBRANCH  21  22
ENDBRANCH  10  21
TORSDOF 4
ENDMDL
MODEL 4
REMARK VINA RESULT:      -8.1      2.884      7.575
REMARK  4 active torsions:
REMARK  status: ('A' for Active; 'I' for Inactive)
REMARK    1  A    between atoms: N1_5  and  C5_6 
REMARK    2  A    between atoms: N4_15  and  C11_16 
REMARK    3  A    between atoms: C11_16  and  C12_17 
REMARK    4  A    between atoms: C18_23  and  N5_24 
ROOT
HETATM    1  C5  UNL     1      24.593   1.149  52.299  1.00  0.00     0.145 A 
HETATM    2  N2  UNL     1      23.341   0.616  52.399  1.00  0.00    -0.200 NA
HETATM    3  C6  UNL     1      22.344   1.058  51.580  1.00  0.00     0.227 A 
HETATM    4 CL1  UNL     1      20.744   0.324  51.764  1.00  0.00    -0.041 Cl
HETATM    5  N3  UNL     1      22.532   2.028  50.640  1.00  0.00    -0.199 NA
HETATM    6  C7  UNL     1      23.772   2.566  50.532  1.00  0.00     0.147 A 
HETATM    7  C8  UNL     1      24.796   2.132  51.352  1.00  0.00     0.057 A 
HETATM    8  C9  UNL     1      25.937   2.824  51.047  1.00  0.00     0.036 A 
HETATM    9  C10 UNL     1      25.585   3.687  50.025  1.00  0.00     0.094 A 
HETATM   10  N4  UNL     1      24.284   3.519  49.728  1.00  0.00    -0.337 N 
ENDROOT
BRANCH   1  11
HETATM   11  N1  UNL     1      25.602   0.648  53.183  1.00  0.00    -0.331 N 
HETATM   12  C4  UNL     1      26.551   1.383  54.011  1.00  0.00     0.154 C 
HETATM   13  C3  UNL     1      27.847   0.647  54.010  1.00  0.00    -0.005 C 
HETATM   14  C2  UNL     1      28.077  -0.511  53.387  1.00  0.00    -0.082 C 
HETATM   15  C1  UNL     1      29.478  -1.014  53.565  1.00  0.00     0.043 C 
HETATM   16  C19 UNL     1      26.996  -1.183  52.608  1.00  0.00     0.090 C 
HETATM   17  C18 UNL     1      25.697  -0.811  53.270  1.00  0.00     0.324 C 
BRANCH  17  18
HETATM   18  N5  UNL     1      25.843  -1.091  54.700  1.00  0.00     0.101 N 
HETATM   19  H17 UNL     1      25.555  -2.069  54.920  1.00  0.00     0.315 HD
HETATM   20  H18 UNL     1      26.747  -0.803  55.090  1.00  0.00     0.315 HD
ENDBRANCH  17  18
ENDBRANCH   1  11
BRANCH  10  21
HETATM   21  C11 UNL     1      23.554   4.261  48.694  1.00  0.00     0.168 C 
BRANCH  21  22
HETATM   22  C12 UNL     1      23.409   5.681  49.107  1.00  0.00    -0.040 A 
HETATM   23  C13 UNL     1      23.995   6.598  48.259  1.00  0.00     0.009 A 
HETATM   24  C14 UNL     1      23.959   7.960  48.487  1.00  0.00     0.001 A 
HETATM   25  C15 UNL     1      23.303   8.434  49.622  1.00  0.00     0.000 A 
HETATM   26  C16 UNL     1      22.710   7.518  50.481  1.00  0.00     0.001 A 
HETATM   27  C17 UNL     1      22.758   6.167  50.234  1.00  0.00     0.009 A 
ENDBRANCH  21  22
ENDBRANCH  10  21
TORSDOF 4
ENDMDL
MODEL 5
REMARK VINA RESULT:      -8.1      1.600      6.995
REMARK  4 active torsions:
REMARK  status: ('A' for Active; 'I' for Inactive)
REMARK    1  A    between atoms: N1_5  and  C5_6 
REMARK    2  A    between atoms: N4_15  and  C11_16 
REMARK    3  A    between atoms: C11_16  and  C12_17 
REMARK    4  A    between atoms: C18_23  and  N5_24 
ROOT
HETATM    1  C5  UNL     1      26.418   2.138  52.121  1.00  0.00     0.145 A 
HETATM    2  N2  UNL     1      27.106   2.770  51.127  1.00  0.00    -0.200 NA
HETATM    3  C6  UNL     1      26.445   3.577  50.247  1.00  0.00     0.227 A 
HETATM    4 CL1  UNL     1      27.399   4.366  48.982  1.00  0.00    -0.041 Cl
HETATM    5  N3  UNL     1      25.100   3.795  50.307  1.00  0.00    -0.199 NA
HETATM    6  C7  UNL     1      24.406   3.172  51.290  1.00  0.00     0.147 A 
HETATM    7  C8  UNL     1      25.056   2.350  52.192  1.00  0.00     0.057 A 
HETATM    8  C9  UNL     1      24.142   1.846  53.077  1.00  0.00     0.036 A 
HETATM    9  C10 UNL     1      22.923   2.378  52.695  1.00  0.00     0.094 A 
HETATM   10  N4  UNL     1      23.100   3.171  51.623  1.00  0.00    -0.337 N 
ENDROOT
BRANCH   1  11
HETATM   11  N1  UNL     1      27.160   1.303  53.016  1.00  0.00    -0.331 N 
HETATM   12  C4  UNL     1      28.465   1.531  53.624  1.00  0.00     0.154 C 
HETATM   13  C3  UNL     1      29.194   0.233  53.680  1.00  0.00    -0.005 C 
HETATM   14  C2  UNL     1      28.709  -0.943  53.277  1.00  0.00    -0.082 C 
HETATM   15  C1  UNL     1      29.672  -2.078  53.456  1.00  0.00     0.043 C 
HETATM   16  C19 UNL     1      27.330  -1.043  52.713  1.00  0.00     0.090 C 
HETATM   17  C18 UNL     1      26.518   0.036  53.375  1.00  0.00     0.324 C 
BRANCH  17  18
HETATM   18  N5  UNL     1      26.723  -0.091  54.819  1.00  0.00     0.101 N 
HETATM   19  H17 UNL     1      25.979   0.415  55.347  1.00  0.00     0.315 HD
HETATM   20  H18 UNL     1      26.905  -1.050  55.131  1.00  0.00     0.315 HD
ENDBRANCH  17  18
ENDBRANCH   1  11
BRANCH  10  21
HETATM   21  C11 UNL     1      22.034   3.908  50.937  1.00  0.00     0.168 C 
BRANCH  21  22
HETATM   22  C12 UNL     1      22.011   3.531  49.499  1.00  0.00    -0.040 A 
HETATM   23  C13 UNL     1      21.959   4.591  48.618  1.00  0.00     0.009 A 
HETATM   24  C14 UNL     1      21.931   4.427  47.247  1.00  0.00     0.001 A 
HETATM   25  C15 UNL     1      21.955   3.134  46.725  1.00  0.00     0.000 A 
HETATM   26  C16 UNL     1      22.007   2.061  47.604  1.00  0.00     0.001 A 
HETATM   27  C17 UNL     1      22.035   2.248  48.966  1.00  0.00     0.009 A 
ENDBRANCH  21  22
ENDBRANCH  10  21
TORSDOF 4
ENDMDL
MODEL 6
REMARK VINA RESULT:      -8.1      2.876      7.551
REMARK  4 active torsions:
REMARK  status: ('A' for Active; 'I' for Inactive)
REMARK    1  A    between atoms: N1_5  and  C5_6 
REMARK    2  A    between atoms: N4_15  and  C11_16 
REMARK    3  A    between atoms: C11_16  and  C12_17 
REMARK    4  A    between atoms: C18_23  and  N5_24 
ROOT
HETATM    1  C5  UNL     1      24.314   0.260  53.428  1.00  0.00     0.145 A 
HETATM    2  N2  UNL     1      23.258  -0.547  53.736  1.00  0.00    -0.200 NA
HETATM    3  C6  UNL     1      21.990  -0.169  53.402  1.00  0.00     0.227 A 
HETATM    4 CL1  UNL     1      20.668  -1.264  53.833  1.00  0.00    -0.041 Cl
HETATM    5  N3  UNL     1      21.710   1.000  52.759  1.00  0.00    -0.199 NA
HETATM    6  C7  UNL     1      22.751   1.810  52.447  1.00  0.00     0.147 A 
HETATM    7  C8  UNL     1      24.043   1.447  52.777  1.00  0.00     0.057 A 
HETATM    8  C9  UNL     1      24.904   2.425  52.357  1.00  0.00     0.036 A 
HETATM    9  C10 UNL     1      24.108   3.391  51.767  1.00  0.00     0.094 A 
HETATM   10  N4  UNL     1      22.821   3.006  51.829  1.00  0.00    -0.337 N 
ENDROOT
BRANCH   1  11
HETATM   11  N1  UNL     1      25.622  -0.184  53.800  1.00  0.00    -0.331 N 
HETATM   12  C4  UNL     1      26.326  -0.022  55.067  1.00  0.00     0.154 C 
HETATM   13  C3  UNL     1      27.768   0.215  54.779  1.00  0.00    -0.005 C 
HETATM   14  C2  UNL     1      28.321   0.233  53.564  1.00  0.00    -0.082 C 
HETATM   15  C1  UNL     1      29.797   0.496  53.585  1.00  0.00     0.043 C 
HETATM   16  C19 UNL     1      27.487   0.005  52.347  1.00  0.00     0.090 C 
HETATM   17  C18 UNL     1      26.363  -0.905  52.763  1.00  0.00     0.324 C 
BRANCH  17  18
HETATM   18  N5  UNL     1      26.963  -2.046  53.457  1.00  0.00     0.101 N 
HETATM   19  H17 UNL     1      27.587  -2.586  52.819  1.00  0.00     0.315 HD
HETATM   20  H18 UNL     1      27.370  -1.812  54.369  1.00  0.00     0.315 HD
ENDBRANCH  17  18
ENDBRANCH   1  11
BRANCH  10  21
HETATM   21  C11 UNL     1      21.687   3.775  51.305  1.00  0.00     0.168 C 
BRANCH  21  22
HETATM   22  C12 UNL     1      21.787   3.867  49.825  1.00  0.00    -0.040 A 
HETATM   23  C13 UNL     1      21.598   2.678  49.151  1.00  0.00     0.009 A 
HETATM   24  C14 UNL     1      21.656   2.578  47.775  1.00  0.00     0.001 A 
HETATM   25  C15 UNL     1      21.918   3.727  47.029  1.00  0.00     0.000 A 
HETATM   26  C16 UNL     1      22.110   4.928  47.698  1.00  0.00     0.001 A 
HETATM   27  C17 UNL     1      22.046   5.004  49.069  1.00  0.00     0.009 A 
ENDBRANCH  21  22
ENDBRANCH  10  21
TORSDOF 4
ENDMDL
MODEL 7
REMARK VINA RESULT:      -8.0      1.308      7.085
REMARK  4 active torsions:
REMARK  status: ('A' for Active; 'I' for Inactive)
REMARK    1  A    between atoms: N1_5  and  C5_6 
REMARK    2  A    between atoms: N4_15  and  C11_16 
REMARK    3  A    between atoms: C11_16  and  C12_17 
REMARK    4  A    between atoms: C18_23  and  N5_24 
ROOT
HETATM    1  C5  UNL     1      26.369   2.129  52.125  1.00  0.00     0.145 A 
HETATM    2  N2  UNL     1      27.039   2.765  51.121  1.00  0.00    -0.200 NA
HETATM    3  C6  UNL     1      26.358   3.547  50.235  1.00  0.00     0.227 A 
HETATM    4 CL1  UNL     1      27.290   4.343  48.958  1.00  0.00    -0.041 Cl
HETATM    5  N3  UNL     1      25.009   3.736  50.296  1.00  0.00    -0.199 NA
HETATM    6  C7  UNL     1      24.332   3.109  51.288  1.00  0.00     0.147 A 
HETATM    7  C8  UNL     1      25.003   2.312  52.197  1.00  0.00     0.057 A 
HETATM    8  C9  UNL     1      24.103   1.797  53.091  1.00  0.00     0.036 A 
HETATM    9  C10 UNL     1      22.871   2.298  52.707  1.00  0.00     0.094 A 
HETATM   10  N4  UNL     1      23.027   3.082  51.625  1.00  0.00    -0.337 N 
ENDROOT
BRANCH   1  11
HETATM   11  N1  UNL     1      27.132   1.321  53.026  1.00  0.00    -0.331 N 
HETATM   12  C4  UNL     1      28.413   1.605  53.662  1.00  0.00     0.154 C 
HETATM   13  C3  UNL     1      29.201   0.342  53.721  1.00  0.00    -0.005 C 
HETATM   14  C2  UNL     1      28.780  -0.852  53.297  1.00  0.00    -0.082 C 
HETATM   15  C1  UNL     1      29.793  -1.942  53.485  1.00  0.00     0.043 C 
HETATM   16  C19 UNL     1      27.419  -1.011  52.705  1.00  0.00     0.090 C 
HETATM   17  C18 UNL     1      26.544   0.022  53.361  1.00  0.00     0.324 C 
BRANCH  17  18
HETATM   18  N5  UNL     1      26.727  -0.109  54.808  1.00  0.00     0.101 N 
HETATM   19  H17 UNL     1      27.573   0.411  55.126  1.00  0.00     0.315 HD
HETATM   20  H18 UNL     1      25.876   0.066  55.352  1.00  0.00     0.315 HD
ENDBRANCH  17  18
ENDBRANCH   1  11
BRANCH  10  21
HETATM   21  C11 UNL     1      21.943   3.788  50.935  1.00  0.00     0.168 C 
BRANCH  21  22
HETATM   22  C12 UNL     1      20.719   2.944  50.932  1.00  0.00    -0.040 A 
HETATM   23  C13 UNL     1      20.751   1.871  50.067  1.00  0.00     0.009 A 
HETATM   24  C14 UNL     1      19.702   0.982  49.934  1.00  0.00     0.001 A 
HETATM   25  C15 UNL     1      18.558   1.175  50.707  1.00  0.00     0.000 A 
HETATM   26  C16 UNL     1      18.516   2.253  51.581  1.00  0.00     0.001 A 
HETATM   27  C17 UNL     1      19.573   3.125  51.697  1.00  0.00     0.009 A 
ENDBRANCH  21  22
ENDBRANCH  10  21
TORSDOF 4
ENDMDL
MODEL 8
REMARK VINA RESULT:      -7.9      2.770      4.367
REMARK  4 active torsions:
REMARK  status: ('A' for Active; 'I' for Inactive)
REMARK    1  A    between atoms: N1_5  and  C5_6 
REMARK    2  A    between atoms: N4_15  and  C11_16 
REMARK    3  A    between atoms: C11_16  and  C12_17 
REMARK    4  A    between atoms: C18_23  and  N5_24 
ROOT
HETATM    1  C5  UNL     1      23.277   3.583  50.988  1.00  0.00     0.145 A 
HETATM    2  N2  UNL     1      22.049   3.317  51.520  1.00  0.00    -0.200 NA
HETATM    3  C6  UNL     1      21.872   2.218  52.309  1.00  0.00     0.227 A 
HETATM    4 CL1  UNL     1      20.253   1.932  52.966  1.00  0.00    -0.041 Cl
HETATM    5  N3  UNL     1      22.879   1.348  52.607  1.00  0.00    -0.199 NA
HETATM    6  C7  UNL     1      24.103   1.602  52.083  1.00  0.00     0.147 A 
HETATM    7  C8  UNL     1      24.305   2.709  51.281  1.00  0.00     0.057 A 
HETATM    8  C9  UNL     1      25.614   2.742  50.883  1.00  0.00     0.036 A 
HETATM    9  C10 UNL     1      26.204   1.631  51.460  1.00  0.00     0.094 A 
HETATM   10  N4  UNL     1      25.284   0.960  52.176  1.00  0.00    -0.337 N 
ENDROOT
BRANCH   1  11
HETATM   11  N1  UNL     1      23.407   4.748  50.167  1.00  0.00    -0.331 N 
HETATM   12  C4  UNL     1      23.336   4.868  48.716  1.00  0.00     0.154 C 
HETATM   13  C3  UNL     1      24.334   5.883  48.276  1.00  0.00    -0.005 C 
HETATM   14  C2  UNL     1      25.126   6.589  49.086  1.00  0.00    -0.082 C 
HETATM   15  C1  UNL     1      26.030   7.538  48.357  1.00  0.00     0.043 C 
HETATM   16  C19 UNL     1      25.062   6.400  50.565  1.00  0.00     0.090 C 
HETATM   17  C18 UNL     1      23.647   6.002  50.885  1.00  0.00     0.324 C 
BRANCH  17  18
HETATM   18  N5  UNL     1      22.766   6.977  50.239  1.00  0.00     0.101 N 
HETATM   19  H17 UNL     1      23.285   7.851  50.004  1.00  0.00     0.315 HD
HETATM   20  H18 UNL     1      22.201   6.587  49.477  1.00  0.00     0.315 HD
ENDBRANCH  17  18
ENDBRANCH   1  11
BRANCH  10  21
HETATM   21  C11 UNL     1      25.540  -0.272  52.931  1.00  0.00     0.168 C 
BRANCH  21  22
HETATM   22  C12 UNL     1      26.948  -0.281  53.409  1.00  0.00    -0.040 A 
HETATM   23  C13 UNL     1      27.739  -1.279  52.878  1.00  0.00     0.009 A 
HETATM   24  C14 UNL     1      29.070  -1.437  53.210  1.00  0.00     0.001 A 
HETATM   25  C15 UNL     1      29.644  -0.553  54.122  1.00  0.00     0.000 A 
HETATM   26  C16 UNL     1      28.856   0.454  54.662  1.00  0.00     0.001 A 
HETATM   27  C17 UNL     1      27.532   0.594  54.317  1.00  0.00     0.009 A 
ENDBRANCH  21  22
ENDBRANCH  10  21
TORSDOF 4
ENDMDL
MODEL 9
REMARK VINA RESULT:      -7.8      2.874      7.972
REMARK  4 active torsions:
REMARK  status: ('A' for Active; 'I' for Inactive)
REMARK    1  A    between atoms: N1_5  and  C5_6 
REMARK    2  A    between atoms: N4_15  and  C11_16 
REMARK    3  A    between atoms: C11_16  and  C12_17 
REMARK    4  A    between atoms: C18_23  and  N5_24 
ROOT
HETATM    1  C5  UNL     1      24.223   0.938  53.057  1.00  0.00     0.145 A 
HETATM    2  N2  UNL     1      23.673  -0.216  53.533  1.00  0.00    -0.200 NA
HETATM    3  C6  UNL     1      22.317  -0.353  53.587  1.00  0.00     0.227 A 
HETATM    4 CL1  UNL     1      21.671  -1.876  54.217  1.00  0.00    -0.041 Cl
HETATM    5  N3  UNL     1      21.455   0.623  53.181  1.00  0.00    -0.199 NA
HETATM    6  C7  UNL     1      21.990   1.774  52.706  1.00  0.00     0.147 A 
HETATM    7  C8  UNL     1      23.362   1.934  52.642  1.00  0.00     0.057 A 
HETATM    8  C9  UNL     1      23.645   3.172  52.131  1.00  0.00     0.036 A 
HETATM    9  C10 UNL     1      22.417   3.761  51.885  1.00  0.00     0.094 A 
HETATM   10  N4  UNL     1      21.437   2.909  52.235  1.00  0.00    -0.337 N 
ENDROOT
BRANCH   1  11
HETATM   11  N1  UNL     1      25.651   1.030  53.022  1.00  0.00    -0.331 N 
HETATM   12  C4  UNL     1      26.568   0.738  51.926  1.00  0.00     0.154 C 
HETATM   13  C3  UNL     1      27.795   0.110  52.492  1.00  0.00    -0.005 C 
HETATM   14  C2  UNL     1      28.024  -0.107  53.789  1.00  0.00    -0.082 C 
HETATM   15  C1  UNL     1      29.348  -0.755  54.060  1.00  0.00     0.043 C 
HETATM   16  C19 UNL     1      27.013   0.286  54.815  1.00  0.00     0.090 C 
HETATM   17  C18 UNL     1      26.285   1.481  54.263  1.00  0.00     0.324 C 
BRANCH  17  18
HETATM   18  N5  UNL     1      27.299   2.447  53.834  1.00  0.00     0.101 N 
HETATM   19  H17 UNL     1      28.021   2.582  54.574  1.00  0.00     0.315 HD
HETATM   20  H18 UNL     1      27.665   2.276  52.892  1.00  0.00     0.315 HD
ENDBRANCH  17  18
ENDBRANCH   1  11
BRANCH  10  21
HETATM   21  C11 UNL     1      20.001   3.185  52.118  1.00  0.00     0.168 C 
BRANCH  21  22
HETATM   22  C12 UNL     1      19.636   3.337  50.685  1.00  0.00    -0.040 A 
HETATM   23  C13 UNL     1      19.075   4.552  50.350  1.00  0.00     0.009 A 
HETATM   24  C14 UNL     1      18.676   4.866  49.066  1.00  0.00     0.001 A 
HETATM   25  C15 UNL     1      18.846   3.916  48.059  1.00  0.00     0.000 A 
HETATM   26  C16 UNL     1      19.410   2.691  48.386  1.00  0.00     0.001 A 
HETATM   27  C17 UNL     1      19.801   2.400  49.672  1.00  0.00     0.009 A 
ENDBRANCH  21  22
ENDBRANCH  10  21
TORSDOF 4
ENDMDL
