MODEL 1
REMARK VINA RESULT:      -7.5      0.000      0.000
REMARK  5 active torsions:
REMARK  status: ('A' for Active; 'I' for Inactive)
REMARK    1  A    between atoms: O1_2  and  C2_3 
REMARK    2  A    between atoms: C2_3  and  C4_5 
REMARK    3  A    between atoms: C10_13  and  C11_14 
REMARK    4  A    between atoms: C11_14  and  O4_16 
REMARK    5  A    between atoms: C13_18  and  O5_19 
ROOT
HETATM    1  C4  UNL     1      25.475   0.295  53.060  1.00  0.00    -0.014 C 
HETATM    2  C5  UNL     1      25.573   1.217  52.154  1.00  0.00     0.094 C 
HETATM    3  N1  UNL     1      24.922   2.074  51.264  1.00  0.00    -0.377 N 
HETATM    4  C6  UNL     1      23.968   3.097  50.926  1.00  0.00     0.291 C 
HETATM    5  O2  UNL     1      22.647   2.654  50.853  1.00  0.00    -0.358 OA
HETATM    6  C7  UNL     1      22.358   2.194  52.084  1.00  0.00     0.186 C 
HETATM    7  C8  UNL     1      22.671   0.717  52.141  1.00  0.00     0.025 C 
HETATM    8  C9  UNL     1      22.266   0.311  53.332  1.00  0.00     0.014 C 
HETATM    9  C10 UNL     1      23.203  -0.568  54.066  1.00  0.00     0.051 C 
HETATM   10  C12 UNL     1      24.507  -0.456  53.851  1.00  0.00     0.030 C 
HETATM   11  C13 UNL     1      20.965   0.781  53.911  1.00  0.00     0.087 C 
HETATM   12  P1  UNL     1      20.503   1.883  52.437  1.00  0.00     0.015 P 
HETATM   13  H9  UNL     1      25.264   1.878  50.255  1.00  0.00     0.161 HD
ENDROOT
BRANCH   1  14
HETATM   14  C2  UNL     1      26.832  -0.150  53.577  1.00  0.00     0.151 C 
HETATM   15  C3  UNL     1      27.282  -1.372  52.785  1.00  0.00     0.045 C 
BRANCH  14  16
HETATM   16  O1  UNL     1      27.785   0.811  53.578  1.00  0.00    -0.386 OA
HETATM   17  C1  UNL     1      28.797   0.626  54.510  1.00  0.00     0.202 C 
ENDBRANCH  14  16
ENDBRANCH   1  14
BRANCH   9  18
HETATM   18  C11 UNL     1      22.668  -1.533  54.983  1.00  0.00     0.177 C 
HETATM   19  O3  UNL     1      21.585  -2.142  54.929  1.00  0.00    -0.646 OA
BRANCH  18  20
HETATM   20  O4  UNL     1      23.263  -1.980  56.126  1.00  0.00    -0.773 OA
HETATM   21  H14 UNL     1      23.889  -2.743  56.231  1.00  0.00     0.167 HD
ENDBRANCH  18  20
ENDBRANCH   9  18
BRANCH  11  22
HETATM   22  O5  UNL     1      20.249   0.569  55.071  1.00  0.00    -0.359 OA
HETATM   23  H16 UNL     1      19.305   0.901  55.083  1.00  0.00     0.217 HD
ENDBRANCH  11  22
TORSDOF 5
ENDMDL
MODEL 2
REMARK VINA RESULT:      -7.3      1.981      3.671
REMARK  5 active torsions:
REMARK  status: ('A' for Active; 'I' for Inactive)
REMARK    1  A    between atoms: O1_2  and  C2_3 
REMARK    2  A    between atoms: C2_3  and  C4_5 
REMARK    3  A    between atoms: C10_13  and  C11_14 
REMARK    4  A    between atoms: C11_14  and  O4_16 
REMARK    5  A    between atoms: C13_18  and  O5_19 
ROOT
HETATM    1  C4  UNL     1      24.111   2.105  51.869  1.00  0.00    -0.014 C 
HETATM    2  C5  UNL     1      22.937   2.435  51.429  1.00  0.00     0.094 C 
HETATM    3  N1  UNL     1      21.582   2.115  51.323  1.00  0.00    -0.377 N 
HETATM    4  C6  UNL     1      20.296   1.765  51.865  1.00  0.00     0.291 C 
HETATM    5  O2  UNL     1      20.177   0.430  52.256  1.00  0.00    -0.358 OA
HETATM    6  C7  UNL     1      21.104   0.258  53.216  1.00  0.00     0.186 C 
HETATM    7  C8  UNL     1      22.388  -0.220  52.578  1.00  0.00     0.025 C 
HETATM    8  C9  UNL     1      23.214  -0.471  53.580  1.00  0.00     0.014 C 
HETATM    9  C10 UNL     1      24.595   0.036  53.418  1.00  0.00     0.051 C 
HETATM   10  C12 UNL     1      24.810   1.118  52.681  1.00  0.00     0.030 C 
HETATM   11  C13 UNL     1      22.739  -1.166  54.821  1.00  0.00     0.087 C 
HETATM   12  P1  UNL     1      20.940  -1.347  54.246  1.00  0.00     0.015 P 
HETATM   13  H9  UNL     1      21.303   2.052  50.279  1.00  0.00     0.161 HD
ENDROOT
BRANCH   1  14
HETATM   14  C2  UNL     1      25.173   3.127  51.496  1.00  0.00     0.151 C 
HETATM   15  C3  UNL     1      26.443   2.389  51.093  1.00  0.00     0.045 C 
BRANCH  14  16
HETATM   16  O1  UNL     1      24.799   4.015  50.546  1.00  0.00    -0.386 OA
HETATM   17  C1  UNL     1      25.789   4.333  49.626  1.00  0.00     0.202 C 
ENDBRANCH  14  16
ENDBRANCH   1  14
BRANCH   9  18
HETATM   18  C11 UNL     1      25.668  -0.673  54.055  1.00  0.00     0.177 C 
HETATM   19  O3  UNL     1      26.042  -0.619  55.240  1.00  0.00    -0.646 OA
BRANCH  18  20
HETATM   20  O4  UNL     1      26.510  -1.567  53.462  1.00  0.00    -0.773 OA
HETATM   21  H14 UNL     1      27.207  -1.390  52.779  1.00  0.00     0.167 HD
ENDBRANCH  18  20
ENDBRANCH   9  18
BRANCH  11  22
HETATM   22  O5  UNL     1      23.297  -1.582  56.013  1.00  0.00    -0.359 OA
HETATM   23  H16 UNL     1      23.761  -2.468  56.006  1.00  0.00     0.217 HD
ENDBRANCH  11  22
TORSDOF 5
ENDMDL
MODEL 3
REMARK VINA RESULT:      -6.9      1.414      1.738
REMARK  5 active torsions:
REMARK  status: ('A' for Active; 'I' for Inactive)
REMARK    1  A    between atoms: O1_2  and  C2_3 
REMARK    2  A    between atoms: C2_3  and  C4_5 
REMARK    3  A    between atoms: C10_13  and  C11_14 
REMARK    4  A    between atoms: C11_14  and  O4_16 
REMARK    5  A    between atoms: C13_18  and  O5_19 
ROOT
HETATM    1  C4  UNL     1      25.396   0.407  52.939  1.00  0.00    -0.014 C 
HETATM    2  C5  UNL     1      26.070   1.160  52.128  1.00  0.00     0.094 C 
HETATM    3  N1  UNL     1      26.049   2.092  51.087  1.00  0.00    -0.377 N 
HETATM    4  C6  UNL     1      25.643   3.328  50.474  1.00  0.00     0.291 C 
HETATM    5  O2  UNL     1      24.342   3.324  49.971  1.00  0.00    -0.358 OA
HETATM    6  C7  UNL     1      23.551   3.098  51.036  1.00  0.00     0.186 C 
HETATM    7  C8  UNL     1      23.322   1.610  51.169  1.00  0.00     0.025 C 
HETATM    8  C9  UNL     1      22.457   1.468  52.160  1.00  0.00     0.014 C 
HETATM    9  C10 UNL     1      22.774   0.410  53.144  1.00  0.00     0.051 C 
HETATM   10  C12 UNL     1      24.040   0.081  53.363  1.00  0.00     0.030 C 
HETATM   11  C13 UNL     1      21.274   2.380  52.293  1.00  0.00     0.087 C 
HETATM   12  P1  UNL     1      21.684   3.428  50.765  1.00  0.00     0.015 P 
HETATM   13  H9  UNL     1      26.602   1.703  50.241  1.00  0.00     0.161 HD
ENDROOT
BRANCH   1  14
HETATM   14  C2  UNL     1      26.298  -0.397  53.861  1.00  0.00     0.151 C 
HETATM   15  C3  UNL     1      27.281  -1.194  53.012  1.00  0.00     0.045 C 
BRANCH  14  16
HETATM   16  O1  UNL     1      26.942   0.331  54.804  1.00  0.00    -0.386 OA
HETATM   17  C1  UNL     1      28.316   0.140  54.848  1.00  0.00     0.202 C 
ENDBRANCH  14  16
ENDBRANCH   1  14
BRANCH   9  18
HETATM   18  C11 UNL     1      21.693  -0.244  53.825  1.00  0.00     0.177 C 
HETATM   19  O3  UNL     1      21.137  -1.322  53.548  1.00  0.00    -0.646 OA
BRANCH  18  20
HETATM   20  O4  UNL     1      21.048   0.206  54.939  1.00  0.00    -0.773 OA
HETATM   21  H14 UNL     1      21.004  -0.221  55.833  1.00  0.00     0.167 HD
ENDBRANCH  18  20
ENDBRANCH   9  18
BRANCH  11  22
HETATM   22  O5  UNL     1      20.207   2.517  53.156  1.00  0.00    -0.359 OA
HETATM   23  H16 UNL     1      20.346   3.109  53.951  1.00  0.00     0.217 HD
ENDBRANCH  11  22
TORSDOF 5
ENDMDL
MODEL 4
REMARK VINA RESULT:      -6.8      2.184      4.911
REMARK  5 active torsions:
REMARK  status: ('A' for Active; 'I' for Inactive)
REMARK    1  A    between atoms: O1_2  and  C2_3 
REMARK    2  A    between atoms: C2_3  and  C4_5 
REMARK    3  A    between atoms: C10_13  and  C11_14 
REMARK    4  A    between atoms: C11_14  and  O4_16 
REMARK    5  A    between atoms: C13_18  and  O5_19 
ROOT
HETATM    1  C4  UNL     1      21.372   0.735  52.721  1.00  0.00    -0.014 C 
HETATM    2  C5  UNL     1      21.503   1.609  51.773  1.00  0.00     0.094 C 
HETATM    3  N1  UNL     1      22.352   2.449  51.048  1.00  0.00    -0.377 N 
HETATM    4  C6  UNL     1      23.510   2.720  50.239  1.00  0.00     0.291 C 
HETATM    5  O2  UNL     1      24.711   2.769  50.947  1.00  0.00    -0.358 OA
HETATM    6  C7  UNL     1      24.851   1.547  51.493  1.00  0.00     0.186 C 
HETATM    7  C8  UNL     1      24.234   1.552  52.872  1.00  0.00     0.025 C 
HETATM    8  C9  UNL     1      24.501   0.364  53.388  1.00  0.00     0.014 C 
HETATM    9  C10 UNL     1      23.374  -0.309  54.071  1.00  0.00     0.051 C 
HETATM   10  C12 UNL     1      22.131  -0.058  53.681  1.00  0.00     0.030 C 
HETATM   11  C13 UNL     1      25.849  -0.271  53.219  1.00  0.00     0.087 C 
HETATM   12  P1  UNL     1      26.586   1.149  52.197  1.00  0.00     0.015 P 
HETATM   13  H9  UNL     1      22.014   3.474  51.139  1.00  0.00     0.161 HD
ENDROOT
BRANCH   1  14
HETATM   14  C2  UNL     1      19.933   0.275  52.885  1.00  0.00     0.151 C 
HETATM   15  C3  UNL     1      19.280   0.207  51.510  1.00  0.00     0.045 C 
BRANCH  14  16
HETATM   16  O1  UNL     1      19.780  -0.888  53.559  1.00  0.00    -0.386 OA
HETATM   17  C1  UNL     1      18.521  -1.463  53.449  1.00  0.00     0.202 C 
ENDBRANCH  14  16
ENDBRANCH   1  14
BRANCH   9  18
HETATM   18  C11 UNL     1      23.660  -1.207  55.152  1.00  0.00     0.177 C 
HETATM   19  O3  UNL     1      24.738  -1.395  55.744  1.00  0.00    -0.646 OA
BRANCH  18  20
HETATM   20  O4  UNL     1      22.778  -2.054  55.756  1.00  0.00    -0.773 OA
HETATM   21  H14 UNL     1      21.787  -2.024  55.730  1.00  0.00     0.167 HD
ENDBRANCH  18  20
ENDBRANCH   9  18
BRANCH  11  22
HETATM   22  O5  UNL     1      26.461  -1.444  53.609  1.00  0.00    -0.359 OA
HETATM   23  H16 UNL     1      26.803  -2.036  52.879  1.00  0.00     0.217 HD
ENDBRANCH  11  22
TORSDOF 5
ENDMDL
MODEL 5
REMARK VINA RESULT:      -6.6      2.412      5.079
REMARK  5 active torsions:
REMARK  status: ('A' for Active; 'I' for Inactive)
REMARK    1  A    between atoms: O1_2  and  C2_3 
REMARK    2  A    between atoms: C2_3  and  C4_5 
REMARK    3  A    between atoms: C10_13  and  C11_14 
REMARK    4  A    between atoms: C11_14  and  O4_16 
REMARK    5  A    between atoms: C13_18  and  O5_19 
ROOT
HETATM    1  C4  UNL     1      23.264   0.608  52.357  1.00  0.00    -0.014 C 
HETATM    2  C5  UNL     1      22.169   0.863  51.711  1.00  0.00     0.094 C 
HETATM    3  N1  UNL     1      21.456   1.743  50.893  1.00  0.00    -0.377 N 
HETATM    4  C6  UNL     1      21.283   2.552  49.717  1.00  0.00     0.291 C 
HETATM    5  O2  UNL     1      21.983   3.759  49.737  1.00  0.00    -0.358 OA
HETATM    6  C7  UNL     1      23.280   3.416  49.829  1.00  0.00     0.186 C 
HETATM    7  C8  UNL     1      23.671   3.360  51.288  1.00  0.00     0.025 C 
HETATM    8  C9  UNL     1      24.972   3.126  51.302  1.00  0.00     0.014 C 
HETATM    9  C10 UNL     1      25.431   2.095  52.260  1.00  0.00     0.051 C 
HETATM   10  C12 UNL     1      24.611   1.110  52.599  1.00  0.00     0.030 C 
HETATM   11  C13 UNL     1      25.896   3.823  50.349  1.00  0.00     0.087 C 
HETATM   12  P1  UNL     1      24.535   4.818  49.478  1.00  0.00     0.015 P 
HETATM   13  H9  UNL     1      20.533   2.028  51.383  1.00  0.00     0.161 HD
ENDROOT
BRANCH   1  14
HETATM   14  C2  UNL     1      23.206  -0.725  53.084  1.00  0.00     0.151 C 
HETATM   15  C3  UNL     1      24.144  -0.670  54.284  1.00  0.00     0.045 C 
BRANCH  14  16
HETATM   16  O1  UNL     1      21.964  -1.120  53.451  1.00  0.00    -0.386 OA
HETATM   17  C1  UNL     1      21.794  -1.315  54.815  1.00  0.00     0.202 C 
ENDBRANCH  14  16
ENDBRANCH   1  14
BRANCH   9  18
HETATM   18  C11 UNL     1      26.752   2.204  52.809  1.00  0.00     0.177 C 
HETATM   19  O3  UNL     1      27.836   1.861  52.304  1.00  0.00    -0.646 OA
BRANCH  18  20
HETATM   20  O4  UNL     1      27.081   2.718  54.028  1.00  0.00    -0.773 OA
HETATM   21  H14 UNL     1      26.714   3.527  54.470  1.00  0.00     0.167 HD
ENDBRANCH  18  20
ENDBRANCH   9  18
BRANCH  11  22
HETATM   22  O5  UNL     1      27.252   3.832  50.092  1.00  0.00    -0.359 OA
HETATM   23  H16 UNL     1      27.758   3.002  50.327  1.00  0.00     0.217 HD
ENDBRANCH  11  22
TORSDOF 5
ENDMDL
MODEL 6
REMARK VINA RESULT:      -6.6      2.520      4.743
REMARK  5 active torsions:
REMARK  status: ('A' for Active; 'I' for Inactive)
REMARK    1  A    between atoms: O1_2  and  C2_3 
REMARK    2  A    between atoms: C2_3  and  C4_5 
REMARK    3  A    between atoms: C10_13  and  C11_14 
REMARK    4  A    between atoms: C11_14  and  O4_16 
REMARK    5  A    between atoms: C13_18  and  O5_19 
ROOT
HETATM    1  C4  UNL     1      25.841   2.602  50.941  1.00  0.00    -0.014 C 
HETATM    2  C5  UNL     1      26.972   2.472  51.560  1.00  0.00     0.094 C 
HETATM    3  N1  UNL     1      27.660   1.986  52.674  1.00  0.00    -0.377 N 
HETATM    4  C6  UNL     1      28.061   0.950  53.588  1.00  0.00     0.291 C 
HETATM    5  O2  UNL     1      27.090   0.598  54.526  1.00  0.00    -0.358 OA
HETATM    6  C7  UNL     1      26.047   0.148  53.805  1.00  0.00     0.186 C 
HETATM    7  C8  UNL     1      25.113   1.301  53.521  1.00  0.00     0.025 C 
HETATM    8  C9  UNL     1      24.067   0.771  52.908  1.00  0.00     0.014 C 
HETATM    9  C10 UNL     1      23.582   1.502  51.716  1.00  0.00     0.051 C 
HETATM   10  C12 UNL     1      24.437   2.216  50.996  1.00  0.00     0.030 C 
HETATM   11  C13 UNL     1      23.471  -0.524  53.370  1.00  0.00     0.087 C 
HETATM   12  P1  UNL     1      24.700  -0.788  54.792  1.00  0.00     0.015 P 
HETATM   13  H9  UNL     1      28.154   2.805  53.182  1.00  0.00     0.161 HD
ENDROOT
BRANCH   1  14
HETATM   14  C2  UNL     1      25.986   3.363  49.633  1.00  0.00     0.151 C 
HETATM   15  C3  UNL     1      24.931   4.461  49.584  1.00  0.00     0.045 C 
BRANCH  14  16
HETATM   16  O1  UNL     1      27.223   3.860  49.398  1.00  0.00    -0.386 OA
HETATM   17  C1  UNL     1      27.243   5.069  48.716  1.00  0.00     0.202 C 
ENDBRANCH  14  16
ENDBRANCH   1  14
BRANCH   9  18
HETATM   18  C11 UNL     1      22.188   1.427  51.381  1.00  0.00     0.177 C 
HETATM   19  O3  UNL     1      21.269   2.203  51.698  1.00  0.00    -0.646 OA
BRANCH  18  20
HETATM   20  O4  UNL     1      21.587   0.460  50.631  1.00  0.00    -0.773 OA
HETATM   21  H14 UNL     1      21.968  -0.047  49.868  1.00  0.00     0.167 HD
ENDBRANCH  18  20
ENDBRANCH   9  18
BRANCH  11  22
HETATM   22  O5  UNL     1      22.419  -1.335  52.995  1.00  0.00    -0.359 OA
HETATM   23  H16 UNL     1      21.629  -1.357  53.607  1.00  0.00     0.217 HD
ENDBRANCH  11  22
TORSDOF 5
ENDMDL
MODEL 7
REMARK VINA RESULT:      -6.5      1.775      2.112
REMARK  5 active torsions:
REMARK  status: ('A' for Active; 'I' for Inactive)
REMARK    1  A    between atoms: O1_2  and  C2_3 
REMARK    2  A    between atoms: C2_3  and  C4_5 
REMARK    3  A    between atoms: C10_13  and  C11_14 
REMARK    4  A    between atoms: C11_14  and  O4_16 
REMARK    5  A    between atoms: C13_18  and  O5_19 
ROOT
HETATM    1  C4  UNL     1      23.819   1.432  52.517  1.00  0.00    -0.014 C 
HETATM    2  C5  UNL     1      23.614   2.155  51.460  1.00  0.00     0.094 C 
HETATM    3  N1  UNL     1      22.784   2.461  50.380  1.00  0.00    -0.377 N 
HETATM    4  C6  UNL     1      21.528   2.840  49.788  1.00  0.00     0.291 C 
HETATM    5  O2  UNL     1      20.592   1.808  49.710  1.00  0.00    -0.358 OA
HETATM    6  C7  UNL     1      20.366   1.437  50.983  1.00  0.00     0.186 C 
HETATM    7  C8  UNL     1      21.316   0.318  51.343  1.00  0.00     0.025 C 
HETATM    8  C9  UNL     1      20.969  -0.068  52.560  1.00  0.00     0.014 C 
HETATM    9  C10 UNL     1      22.084  -0.277  53.511  1.00  0.00     0.051 C 
HETATM   10  C12 UNL     1      23.202   0.422  53.368  1.00  0.00     0.030 C 
HETATM   11  C13 UNL     1      19.528  -0.212  52.947  1.00  0.00     0.087 C 
HETATM   12  P1  UNL     1      18.837   0.319  51.261  1.00  0.00     0.015 P 
HETATM   13  H9  UNL     1      23.327   2.321  49.453  1.00  0.00     0.161 HD
ENDROOT
BRANCH   1  14
HETATM   14  C2  UNL     1      25.132   1.772  53.202  1.00  0.00     0.151 C 
HETATM   15  C3  UNL     1      25.688   0.511  53.850  1.00  0.00     0.045 C 
BRANCH  14  16
HETATM   16  O1  UNL     1      26.053   2.361  52.405  1.00  0.00    -0.386 OA
HETATM   17  C1  UNL     1      27.313   1.780  52.445  1.00  0.00     0.202 C 
ENDBRANCH  14  16
ENDBRANCH   1  14
BRANCH   9  18
HETATM   18  C11 UNL     1      21.925  -1.246  54.557  1.00  0.00     0.177 C 
HETATM   19  O3  UNL     1      21.047  -2.119  54.683  1.00  0.00    -0.646 OA
BRANCH  18  20
HETATM   20  O4  UNL     1      22.730  -1.400  55.646  1.00  0.00    -0.773 OA
HETATM   21  H14 UNL     1      23.720  -1.458  55.671  1.00  0.00     0.167 HD
ENDBRANCH  18  20
ENDBRANCH   9  18
BRANCH  11  22
HETATM   22  O5  UNL     1      18.825  -0.584  54.074  1.00  0.00    -0.359 OA
HETATM   23  H16 UNL     1      19.177  -1.371  54.583  1.00  0.00     0.217 HD
ENDBRANCH  11  22
TORSDOF 5
ENDMDL
MODEL 8
REMARK VINA RESULT:      -6.2      6.459      8.354
REMARK  5 active torsions:
REMARK  status: ('A' for Active; 'I' for Inactive)
REMARK    1  A    between atoms: O1_2  and  C2_3 
REMARK    2  A    between atoms: C2_3  and  C4_5 
REMARK    3  A    between atoms: C10_13  and  C11_14 
REMARK    4  A    between atoms: C11_14  and  O4_16 
REMARK    5  A    between atoms: C13_18  and  O5_19 
ROOT
HETATM    1  C4  UNL     1      28.844   6.352  47.812  1.00  0.00    -0.014 C 
HETATM    2  C5  UNL     1      28.733   7.545  47.318  1.00  0.00     0.094 C 
HETATM    3  N1  UNL     1      27.911   8.644  47.055  1.00  0.00    -0.377 N 
HETATM    4  C6  UNL     1      26.992   9.683  47.434  1.00  0.00     0.291 C 
HETATM    5  O2  UNL     1      25.681   9.250  47.637  1.00  0.00    -0.358 OA
HETATM    6  C7  UNL     1      25.754   8.360  48.644  1.00  0.00     0.186 C 
HETATM    7  C8  UNL     1      25.941   6.977  48.063  1.00  0.00     0.025 C 
HETATM    8  C9  UNL     1      25.897   6.148  49.092  1.00  0.00     0.014 C 
HETATM    9  C10 UNL     1      26.938   5.096  49.117  1.00  0.00     0.051 C 
HETATM   10  C12 UNL     1      28.113   5.328  48.547  1.00  0.00     0.030 C 
HETATM   11  C13 UNL     1      24.887   6.323  50.187  1.00  0.00     0.087 C 
HETATM   12  P1  UNL     1      24.083   7.872  49.440  1.00  0.00     0.015 P 
HETATM   13  H9  UNL     1      27.902   8.845  45.991  1.00  0.00     0.161 HD
ENDROOT
BRANCH   1  14
HETATM   14  C2  UNL     1      30.252   5.799  47.667  1.00  0.00     0.151 C 
HETATM   15  C3  UNL     1      31.126   6.853  46.997  1.00  0.00     0.045 C 
BRANCH  14  16
HETATM   16  O1  UNL     1      30.812   5.358  48.818  1.00  0.00    -0.386 OA
HETATM   17  C1  UNL     1      32.200   5.364  48.829  1.00  0.00     0.202 C 
ENDBRANCH  14  16
ENDBRANCH   1  14
BRANCH   9  18
HETATM   18  C11 UNL     1      26.636   3.843  49.747  1.00  0.00     0.177 C 
HETATM   19  O3  UNL     1      25.857   2.949  49.369  1.00  0.00    -0.646 OA
BRANCH  18  20
HETATM   20  O4  UNL     1      27.161   3.378  50.917  1.00  0.00    -0.773 OA
HETATM   21  H14 UNL     1      27.600   2.504  51.084  1.00  0.00     0.167 HD
ENDBRANCH  18  20
ENDBRANCH   9  18
BRANCH  11  22
HETATM   22  O5  UNL     1      24.556   5.675  51.358  1.00  0.00    -0.359 OA
HETATM   23  H16 UNL     1      25.223   5.018  51.712  1.00  0.00     0.217 HD
ENDBRANCH  11  22
TORSDOF 5
ENDMDL
MODEL 9
REMARK VINA RESULT:      -6.2      2.175      4.632
REMARK  5 active torsions:
REMARK  status: ('A' for Active; 'I' for Inactive)
REMARK    1  A    between atoms: O1_2  and  C2_3 
REMARK    2  A    between atoms: C2_3  and  C4_5 
REMARK    3  A    between atoms: C10_13  and  C11_14 
REMARK    4  A    between atoms: C11_14  and  O4_16 
REMARK    5  A    between atoms: C13_18  and  O5_19 
ROOT
HETATM    1  C4  UNL     1      24.004   2.310  51.137  1.00  0.00    -0.014 C 
HETATM    2  C5  UNL     1      25.040   1.672  51.582  1.00  0.00     0.094 C 
HETATM    3  N1  UNL     1      25.562   0.763  52.505  1.00  0.00    -0.377 N 
HETATM    4  C6  UNL     1      25.606  -0.509  53.175  1.00  0.00     0.291 C 
HETATM    5  O2  UNL     1      24.625  -0.682  54.153  1.00  0.00    -0.358 OA
HETATM    6  C7  UNL     1      23.453  -0.586  53.499  1.00  0.00     0.186 C 
HETATM    7  C8  UNL     1      22.990   0.852  53.530  1.00  0.00     0.025 C 
HETATM    8  C9  UNL     1      21.792   0.855  52.970  1.00  0.00     0.014 C 
HETATM    9  C10 UNL     1      21.543   1.932  51.986  1.00  0.00     0.051 C 
HETATM   10  C12 UNL     1      22.560   2.434  51.298  1.00  0.00     0.030 C 
HETATM   11  C13 UNL     1      20.789  -0.217  53.277  1.00  0.00     0.087 C 
HETATM   12  P1  UNL     1      21.912  -1.173  54.472  1.00  0.00     0.015 P 
HETATM   13  H9  UNL     1      26.348   1.239  53.080  1.00  0.00     0.161 HD
ENDROOT
BRANCH   1  14
HETATM   14  C2  UNL     1      24.346   3.219  49.968  1.00  0.00     0.151 C 
HETATM   15  C3  UNL     1      23.255   3.091  48.912  1.00  0.00     0.045 C 
BRANCH  14  16
HETATM   16  O1  UNL     1      24.561   4.514  50.297  1.00  0.00    -0.386 OA
HETATM   17  C1  UNL     1      25.679   5.087  49.707  1.00  0.00     0.202 C 
ENDBRANCH  14  16
ENDBRANCH   1  14
BRANCH   9  18
HETATM   18  C11 UNL     1      20.203   2.416  51.818  1.00  0.00     0.177 C 
HETATM   19  O3  UNL     1      19.664   3.412  52.333  1.00  0.00    -0.646 OA
BRANCH  18  20
HETATM   20  O4  UNL     1      19.233   1.858  51.038  1.00  0.00    -0.773 OA
HETATM   21  H14 UNL     1      18.998   2.083  50.101  1.00  0.00     0.167 HD
ENDBRANCH  18  20
ENDBRANCH   9  18
BRANCH  11  22
HETATM   22  O5  UNL     1      19.496  -0.518  52.902  1.00  0.00    -0.359 OA
HETATM   23  H16 UNL     1      19.018  -1.205  53.450  1.00  0.00     0.217 HD
ENDBRANCH  11  22
TORSDOF 5
ENDMDL
