MODEL 1
REMARK VINA RESULT:      -8.3      0.000      0.000
REMARK  3 active torsions:
REMARK  status: ('A' for Active; 'I' for Inactive)
REMARK    1  A    between atoms: O1_2  and  C2_3 
REMARK    2  A    between atoms: C6_9  and  N3_10 
REMARK    3  A    between atoms: C16_21  and  O3_22 
ROOT
HETATM    1  C2  UNL     1      23.970   3.375  49.653  1.00  0.00     0.103 A 
HETATM    2  C3  UNL     1      23.125   2.473  50.284  1.00  0.00     0.072 A 
HETATM    3  C4  UNL     1      23.560   1.719  51.386  1.00  0.00     0.075 A 
HETATM    4  N1  UNL     1      22.766   0.855  52.018  1.00  0.00    -0.241 NA
HETATM    5  C5  UNL     1      23.241   0.171  53.080  1.00  0.00     0.236 A 
HETATM    6  N2  UNL     1      24.519   0.406  53.453  1.00  0.00    -0.221 NA
HETATM    7  C6  UNL     1      25.341   1.270  52.836  1.00  0.00     0.169 A 
HETATM    8  C14 UNL     1      24.870   1.979  51.743  1.00  0.00     0.044 A 
HETATM    9  C15 UNL     1      25.727   2.853  51.150  1.00  0.00     0.057 A 
HETATM   10  C16 UNL     1      25.273   3.578  50.072  1.00  0.00     0.102 A 
ENDROOT
BRANCH   7  11
HETATM   11  N3  UNL     1      26.657   1.434  53.346  1.00  0.00    -0.202 N 
HETATM   12  O2  UNL     1      27.272   2.477  53.943  1.00  0.00    -0.267 OA
HETATM   13  C7  UNL     1      28.630   2.230  53.880  1.00  0.00     0.243 C 
HETATM   14  C8  UNL     1      28.803   0.777  53.609  1.00  0.00    -0.003 A 
HETATM   15  C9  UNL     1      29.953   0.019  53.672  1.00  0.00     0.012 A 
HETATM   16  C13 UNL     1      27.549   0.315  53.267  1.00  0.00     0.073 A 
HETATM   17  C10 UNL     1      29.876  -1.329  53.372  1.00  0.00     0.001 A 
HETATM   18  C11 UNL     1      28.635  -1.819  53.027  1.00  0.00     0.002 A 
HETATM   19  C12 UNL     1      27.501  -1.035  52.972  1.00  0.00     0.033 A 
ENDBRANCH   7  11
BRANCH  10  20
HETATM   20  O3  UNL     1      25.898   4.520  49.285  1.00  0.00    -0.353 OA
HETATM   21  C17 UNL     1      27.253   4.371  48.930  1.00  0.00     0.210 C 
ENDBRANCH  10  20
BRANCH   1  22
HETATM   22  O1  UNL     1      23.360   4.021  48.587  1.00  0.00    -0.353 OA
HETATM   23  C1  UNL     1      22.353   4.962  48.739  1.00  0.00     0.210 C 
ENDBRANCH   1  22
TORSDOF 3
ENDMDL
MODEL 2
REMARK VINA RESULT:      -7.9      2.250      3.789
REMARK  3 active torsions:
REMARK  status: ('A' for Active; 'I' for Inactive)
REMARK    1  A    between atoms: O1_2  and  C2_3 
REMARK    2  A    between atoms: C6_9  and  N3_10 
REMARK    3  A    between atoms: C16_21  and  O3_22 
ROOT
HETATM    1  C2  UNL     1      22.414   0.599  52.570  1.00  0.00     0.103 A 
HETATM    2  C3  UNL     1      22.690   1.442  51.502  1.00  0.00     0.072 A 
HETATM    3  C4  UNL     1      23.975   1.972  51.308  1.00  0.00     0.075 A 
HETATM    4  N1  UNL     1      24.270   2.774  50.285  1.00  0.00    -0.241 NA
HETATM    5  C5  UNL     1      25.529   3.240  50.148  1.00  0.00     0.236 A 
HETATM    6  N2  UNL     1      26.440   2.858  51.072  1.00  0.00    -0.221 NA
HETATM    7  C6  UNL     1      26.171   2.053  52.112  1.00  0.00     0.169 A 
HETATM    8  C14 UNL     1      24.883   1.567  52.268  1.00  0.00     0.044 A 
HETATM    9  C15 UNL     1      24.651   0.745  53.327  1.00  0.00     0.057 A 
HETATM   10  C16 UNL     1      23.381   0.240  53.492  1.00  0.00     0.102 A 
ENDROOT
BRANCH   7  11
HETATM   11  N3  UNL     1      27.230   1.716  52.998  1.00  0.00    -0.202 N 
HETATM   12  O2  UNL     1      27.900   2.438  53.920  1.00  0.00    -0.267 OA
HETATM   13  C7  UNL     1      29.060   1.742  54.207  1.00  0.00     0.243 C 
HETATM   14  C8  UNL     1      28.861   0.343  53.745  1.00  0.00    -0.003 A 
HETATM   15  C9  UNL     1      29.636  -0.769  54.000  1.00  0.00     0.012 A 
HETATM   16  C13 UNL     1      27.711   0.366  52.982  1.00  0.00     0.073 A 
HETATM   17  C10 UNL     1      29.256  -1.982  53.458  1.00  0.00     0.001 A 
HETATM   18  C11 UNL     1      28.111  -1.988  52.691  1.00  0.00     0.002 A 
HETATM   19  C12 UNL     1      27.354  -0.860  52.452  1.00  0.00     0.033 A 
ENDBRANCH   7  11
BRANCH  10  20
HETATM   20  O3  UNL     1      22.857  -0.601  54.447  1.00  0.00    -0.353 OA
HETATM   21  C17 UNL     1      23.703  -1.268  55.355  1.00  0.00     0.210 C 
ENDBRANCH  10  20
BRANCH   1  22
HETATM   22  O1  UNL     1      21.091   0.181  52.591  1.00  0.00    -0.353 OA
HETATM   23  C1  UNL     1      20.240   0.280  51.500  1.00  0.00     0.210 C 
ENDBRANCH   1  22
TORSDOF 3
ENDMDL
MODEL 3
REMARK VINA RESULT:      -7.7      2.187      6.050
REMARK  3 active torsions:
REMARK  status: ('A' for Active; 'I' for Inactive)
REMARK    1  A    between atoms: O1_2  and  C2_3 
REMARK    2  A    between atoms: C6_9  and  N3_10 
REMARK    3  A    between atoms: C16_21  and  O3_22 
ROOT
HETATM    1  C2  UNL     1      26.970  -0.155  53.538  1.00  0.00     0.103 A 
HETATM    2  C3  UNL     1      25.767  -0.790  53.815  1.00  0.00     0.072 A 
HETATM    3  C4  UNL     1      24.538  -0.153  53.583  1.00  0.00     0.075 A 
HETATM    4  N1  UNL     1      23.369  -0.744  53.828  1.00  0.00    -0.241 NA
HETATM    5  C5  UNL     1      22.222  -0.081  53.570  1.00  0.00     0.236 A 
HETATM    6  N2  UNL     1      22.325   1.169  53.064  1.00  0.00    -0.221 NA
HETATM    7  C6  UNL     1      23.487   1.789  52.807  1.00  0.00     0.169 A 
HETATM    8  C14 UNL     1      24.674   1.123  53.068  1.00  0.00     0.044 A 
HETATM    9  C15 UNL     1      25.832   1.778  52.785  1.00  0.00     0.057 A 
HETATM   10  C16 UNL     1      27.022   1.128  53.023  1.00  0.00     0.102 A 
ENDROOT
BRANCH   7  11
HETATM   11  N3  UNL     1      23.449   3.099  52.257  1.00  0.00    -0.202 N 
HETATM   12  O2  UNL     1      23.614   4.318  52.813  1.00  0.00    -0.267 OA
HETATM   13  C7  UNL     1      23.097   5.237  51.920  1.00  0.00     0.243 C 
HETATM   14  C8  UNL     1      23.005   4.565  50.597  1.00  0.00    -0.003 A 
HETATM   15  C9  UNL     1      22.757   5.124  49.361  1.00  0.00     0.012 A 
HETATM   16  C13 UNL     1      23.221   3.226  50.848  1.00  0.00     0.073 A 
HETATM   17  C10 UNL     1      22.715   4.295  48.254  1.00  0.00     0.001 A 
HETATM   18  C11 UNL     1      22.927   2.951  48.476  1.00  0.00     0.002 A 
HETATM   19  C12 UNL     1      23.172   2.420  49.725  1.00  0.00     0.033 A 
ENDBRANCH   7  11
BRANCH  10  20
HETATM   20  O3  UNL     1      28.326   1.528  52.836  1.00  0.00    -0.353 OA
HETATM   21  C17 UNL     1      28.920   2.460  53.709  1.00  0.00     0.210 C 
ENDBRANCH  10  20
BRANCH   1  22
HETATM   22  O1  UNL     1      28.071  -0.945  53.835  1.00  0.00    -0.353 OA
HETATM   23  C1  UNL     1      28.449  -2.045  53.079  1.00  0.00     0.210 C 
ENDBRANCH   1  22
TORSDOF 3
ENDMDL
MODEL 4
REMARK VINA RESULT:      -7.7      2.394      5.768
REMARK  3 active torsions:
REMARK  status: ('A' for Active; 'I' for Inactive)
REMARK    1  A    between atoms: O1_2  and  C2_3 
REMARK    2  A    between atoms: C6_9  and  N3_10 
REMARK    3  A    between atoms: C16_21  and  O3_22 
ROOT
HETATM    1  C2  UNL     1      25.249   0.655  53.483  1.00  0.00     0.103 A 
HETATM    2  C3  UNL     1      24.142   0.346  52.706  1.00  0.00     0.072 A 
HETATM    3  C4  UNL     1      23.561   1.300  51.855  1.00  0.00     0.075 A 
HETATM    4  N1  UNL     1      22.505   1.027  51.090  1.00  0.00    -0.241 NA
HETATM    5  C5  UNL     1      22.003   1.986  50.283  1.00  0.00     0.236 A 
HETATM    6  N2  UNL     1      22.612   3.193  50.295  1.00  0.00    -0.221 NA
HETATM    7  C6  UNL     1      23.676   3.497  51.055  1.00  0.00     0.169 A 
HETATM    8  C14 UNL     1      24.203   2.524  51.890  1.00  0.00     0.044 A 
HETATM    9  C15 UNL     1      25.288   2.865  52.637  1.00  0.00     0.057 A 
HETATM   10  C16 UNL     1      25.835   1.908  53.461  1.00  0.00     0.102 A 
ENDROOT
BRANCH   7  11
HETATM   11  N3  UNL     1      24.230   4.801  50.954  1.00  0.00    -0.202 N 
HETATM   12  O2  UNL     1      23.902   5.970  51.543  1.00  0.00    -0.267 OA
HETATM   13  C7  UNL     1      24.504   6.973  50.806  1.00  0.00     0.243 C 
HETATM   14  C8  UNL     1      25.578   6.340  49.995  1.00  0.00    -0.003 A 
HETATM   15  C9  UNL     1      26.585   6.946  49.273  1.00  0.00     0.012 A 
HETATM   16  C13 UNL     1      25.368   4.980  50.102  1.00  0.00     0.073 A 
HETATM   17  C10 UNL     1      27.480   6.148  48.584  1.00  0.00     0.001 A 
HETATM   18  C11 UNL     1      27.294   4.786  48.674  1.00  0.00     0.002 A 
HETATM   19  C12 UNL     1      26.277   4.207  49.404  1.00  0.00     0.033 A 
ENDBRANCH   7  11
BRANCH  10  20
HETATM   20  O3  UNL     1      26.914   1.958  54.316  1.00  0.00    -0.353 OA
HETATM   21  C17 UNL     1      28.218   2.134  53.811  1.00  0.00     0.210 C 
ENDBRANCH  10  20
BRANCH   1  22
HETATM   22  O1  UNL     1      25.674  -0.416  54.255  1.00  0.00    -0.353 OA
HETATM   23  C1  UNL     1      24.932  -0.950  55.298  1.00  0.00     0.210 C 
ENDBRANCH   1  22
TORSDOF 3
ENDMDL
MODEL 5
REMARK VINA RESULT:      -7.5      2.664      6.651
REMARK  3 active torsions:
REMARK  status: ('A' for Active; 'I' for Inactive)
REMARK    1  A    between atoms: O1_2  and  C2_3 
REMARK    2  A    between atoms: C6_9  and  N3_10 
REMARK    3  A    between atoms: C16_21  and  O3_22 
ROOT
HETATM    1  C2  UNL     1      25.454   0.372  53.747  1.00  0.00     0.103 A 
HETATM    2  C3  UNL     1      24.607  -0.620  54.221  1.00  0.00     0.072 A 
HETATM    3  C4  UNL     1      23.218  -0.543  54.029  1.00  0.00     0.075 A 
HETATM    4  N1  UNL     1      22.383  -1.487  54.464  1.00  0.00    -0.241 NA
HETATM    5  C5  UNL     1      21.059  -1.359  54.236  1.00  0.00     0.236 A 
HETATM    6  N2  UNL     1      20.646  -0.261  53.563  1.00  0.00    -0.221 NA
HETATM    7  C6  UNL     1      21.463   0.705  53.114  1.00  0.00     0.169 A 
HETATM    8  C14 UNL     1      22.824   0.590  53.341  1.00  0.00     0.044 A 
HETATM    9  C15 UNL     1      23.623   1.582  52.862  1.00  0.00     0.057 A 
HETATM   10  C16 UNL     1      24.980   1.479  53.066  1.00  0.00     0.102 A 
ENDROOT
BRANCH   7  11
HETATM   11  N3  UNL     1      20.894   1.796  52.404  1.00  0.00    -0.202 N 
HETATM   12  O2  UNL     1      20.325   2.947  52.820  1.00  0.00    -0.267 OA
HETATM   13  C7  UNL     1      19.610   3.450  51.749  1.00  0.00     0.243 C 
HETATM   14  C8  UNL     1      20.123   2.782  50.523  1.00  0.00    -0.003 A 
HETATM   15  C9  UNL     1      19.881   3.099  49.203  1.00  0.00     0.012 A 
HETATM   16  C13 UNL     1      20.915   1.746  50.972  1.00  0.00     0.073 A 
HETATM   17  C10 UNL     1      20.470   2.329  48.217  1.00  0.00     0.001 A 
HETATM   18  C11 UNL     1      21.267   1.286  48.637  1.00  0.00     0.002 A 
HETATM   19  C12 UNL     1      21.491   0.992  49.965  1.00  0.00     0.033 A 
ENDBRANCH   7  11
BRANCH  10  20
HETATM   20  O3  UNL     1      26.017   2.309  52.701  1.00  0.00    -0.353 OA
HETATM   21  C17 UNL     1      26.414   2.406  51.353  1.00  0.00     0.210 C 
ENDBRANCH  10  20
BRANCH   1  22
HETATM   22  O1  UNL     1      26.787   0.117  54.035  1.00  0.00    -0.353 OA
HETATM   23  C1  UNL     1      27.575  -0.756  53.300  1.00  0.00     0.210 C 
ENDBRANCH   1  22
TORSDOF 3
ENDMDL
MODEL 6
REMARK VINA RESULT:      -7.5      2.461      6.821
REMARK  3 active torsions:
REMARK  status: ('A' for Active; 'I' for Inactive)
REMARK    1  A    between atoms: O1_2  and  C2_3 
REMARK    2  A    between atoms: C6_9  and  N3_10 
REMARK    3  A    between atoms: C16_21  and  O3_22 
ROOT
HETATM    1  C2  UNL     1      26.530   0.314  53.376  1.00  0.00     0.103 A 
HETATM    2  C3  UNL     1      27.172   1.133  52.458  1.00  0.00     0.072 A 
HETATM    3  C4  UNL     1      26.461   2.092  51.718  1.00  0.00     0.075 A 
HETATM    4  N1  UNL     1      27.054   2.900  50.839  1.00  0.00    -0.241 NA
HETATM    5  C5  UNL     1      26.316   3.810  50.170  1.00  0.00     0.236 A 
HETATM    6  N2  UNL     1      24.990   3.854  50.435  1.00  0.00    -0.221 NA
HETATM    7  C6  UNL     1      24.367   3.054  51.314  1.00  0.00     0.169 A 
HETATM    8  C14 UNL     1      25.110   2.113  52.008  1.00  0.00     0.044 A 
HETATM    9  C15 UNL     1      24.446   1.327  52.898  1.00  0.00     0.057 A 
HETATM   10  C16 UNL     1      25.169   0.396  53.609  1.00  0.00     0.102 A 
ENDROOT
BRANCH   7  11
HETATM   11  N3  UNL     1      22.969   3.222  51.509  1.00  0.00    -0.202 N 
HETATM   12  O2  UNL     1      22.262   4.012  52.343  1.00  0.00    -0.267 OA
HETATM   13  C7  UNL     1      20.979   3.500  52.387  1.00  0.00     0.243 C 
HETATM   14  C8  UNL     1      20.814   2.619  51.200  1.00  0.00    -0.003 A 
HETATM   15  C9  UNL     1      19.659   2.061  50.694  1.00  0.00     0.012 A 
HETATM   16  C13 UNL     1      22.082   2.459  50.682  1.00  0.00     0.073 A 
HETATM   17  C10 UNL     1      19.746   1.263  49.568  1.00  0.00     0.001 A 
HETATM   18  C11 UNL     1      21.002   1.085  49.029  1.00  0.00     0.002 A 
HETATM   19  C12 UNL     1      22.140   1.657  49.557  1.00  0.00     0.033 A 
ENDBRANCH   7  11
BRANCH  10  20
HETATM   20  O3  UNL     1      24.780  -0.519  54.562  1.00  0.00    -0.353 OA
HETATM   21  C17 UNL     1      23.444  -0.964  54.622  1.00  0.00     0.210 C 
ENDBRANCH  10  20
BRANCH   1  22
HETATM   22  O1  UNL     1      27.399  -0.567  54.004  1.00  0.00    -0.353 OA
HETATM   23  C1  UNL     1      28.574  -0.169  54.625  1.00  0.00     0.210 C 
ENDBRANCH   1  22
TORSDOF 3
ENDMDL
MODEL 7
REMARK VINA RESULT:      -7.4      2.166      6.053
REMARK  3 active torsions:
REMARK  status: ('A' for Active; 'I' for Inactive)
REMARK    1  A    between atoms: O1_2  and  C2_3 
REMARK    2  A    between atoms: C6_9  and  N3_10 
REMARK    3  A    between atoms: C16_21  and  O3_22 
ROOT
HETATM    1  C2  UNL     1      25.522   0.436  54.043  1.00  0.00     0.103 A 
HETATM    2  C3  UNL     1      24.268   0.141  53.526  1.00  0.00     0.072 A 
HETATM    3  C4  UNL     1      23.768   0.818  52.402  1.00  0.00     0.075 A 
HETATM    4  N1  UNL     1      22.572   0.547  51.879  1.00  0.00    -0.241 NA
HETATM    5  C5  UNL     1      22.155   1.224  50.789  1.00  0.00     0.236 A 
HETATM    6  N2  UNL     1      22.990   2.157  50.276  1.00  0.00    -0.221 NA
HETATM    7  C6  UNL     1      24.199   2.451  50.782  1.00  0.00     0.169 A 
HETATM    8  C14 UNL     1      24.641   1.766  51.902  1.00  0.00     0.044 A 
HETATM    9  C15 UNL     1      25.875   2.083  52.380  1.00  0.00     0.057 A 
HETATM   10  C16 UNL     1      26.338   1.403  53.483  1.00  0.00     0.102 A 
ENDROOT
BRANCH   7  11
HETATM   11  N3  UNL     1      24.982   3.442  50.131  1.00  0.00    -0.202 N 
HETATM   12  O2  UNL     1      25.995   3.354  49.244  1.00  0.00    -0.267 OA
HETATM   13  C7  UNL     1      26.633   4.580  49.243  1.00  0.00     0.243 C 
HETATM   14  C8  UNL     1      25.697   5.566  49.846  1.00  0.00    -0.003 A 
HETATM   15  C9  UNL     1      25.789   6.941  49.868  1.00  0.00     0.012 A 
HETATM   16  C13 UNL     1      24.681   4.816  50.402  1.00  0.00     0.073 A 
HETATM   17  C10 UNL     1      24.791   7.664  50.497  1.00  0.00     0.001 A 
HETATM   18  C11 UNL     1      23.763   6.940  51.061  1.00  0.00     0.002 A 
HETATM   19  C12 UNL     1      23.697   5.563  51.024  1.00  0.00     0.033 A 
ENDBRANCH   7  11
BRANCH  10  20
HETATM   20  O3  UNL     1      27.524   1.502  54.177  1.00  0.00    -0.353 OA
HETATM   21  C17 UNL     1      28.619   2.197  53.626  1.00  0.00     0.210 C 
ENDBRANCH  10  20
BRANCH   1  22
HETATM   22  O1  UNL     1      25.836  -0.336  55.152  1.00  0.00    -0.353 OA
HETATM   23  C1  UNL     1      24.932  -1.182  55.777  1.00  0.00     0.210 C 
ENDBRANCH   1  22
TORSDOF 3
ENDMDL
MODEL 8
REMARK VINA RESULT:      -7.3      2.527      6.372
REMARK  3 active torsions:
REMARK  status: ('A' for Active; 'I' for Inactive)
REMARK    1  A    between atoms: O1_2  and  C2_3 
REMARK    2  A    between atoms: C6_9  and  N3_10 
REMARK    3  A    between atoms: C16_21  and  O3_22 
ROOT
HETATM    1  C2  UNL     1      27.403   1.149  53.248  1.00  0.00     0.103 A 
HETATM    2  C3  UNL     1      26.992   0.307  54.272  1.00  0.00     0.072 A 
HETATM    3  C4  UNL     1      25.661  -0.132  54.361  1.00  0.00     0.075 A 
HETATM    4  N1  UNL     1      25.242  -0.949  55.327  1.00  0.00    -0.241 NA
HETATM    5  C5  UNL     1      23.952  -1.345  55.348  1.00  0.00     0.236 A 
HETATM    6  N2  UNL     1      23.141  -0.884  54.369  1.00  0.00    -0.221 NA
HETATM    7  C6  UNL     1      23.535  -0.061  53.385  1.00  0.00     0.169 A 
HETATM    8  C14 UNL     1      24.856   0.357  53.349  1.00  0.00     0.044 A 
HETATM    9  C15 UNL     1      25.222   1.182  52.331  1.00  0.00     0.057 A 
HETATM   10  C16 UNL     1      26.533   1.596  52.269  1.00  0.00     0.102 A 
ENDROOT
BRANCH   7  11
HETATM   11  N3  UNL     1      22.581   0.332  52.407  1.00  0.00    -0.202 N 
HETATM   12  O2  UNL     1      22.704   0.999  51.241  1.00  0.00    -0.267 OA
HETATM   13  C7  UNL     1      21.440   1.439  50.896  1.00  0.00     0.243 C 
HETATM   14  C8  UNL     1      20.464   0.635  51.679  1.00  0.00    -0.003 A 
HETATM   15  C9  UNL     1      19.096   0.552  51.527  1.00  0.00     0.012 A 
HETATM   16  C13 UNL     1      21.213  -0.038  52.623  1.00  0.00     0.073 A 
HETATM   17  C10 UNL     1      18.382  -0.269  52.382  1.00  0.00     0.001 A 
HETATM   18  C11 UNL     1      19.105  -0.953  53.335  1.00  0.00     0.002 A 
HETATM   19  C12 UNL     1      20.475  -0.850  53.463  1.00  0.00     0.033 A 
ENDBRANCH   7  11
BRANCH  10  20
HETATM   20  O3  UNL     1      27.184   2.413  51.372  1.00  0.00    -0.353 OA
HETATM   21  C17 UNL     1      26.457   3.151  50.418  1.00  0.00     0.210 C 
ENDBRANCH  10  20
BRANCH   1  22
HETATM   22  O1  UNL     1      28.750   1.471  53.331  1.00  0.00    -0.353 OA
HETATM   23  C1  UNL     1      29.729   0.571  53.725  1.00  0.00     0.210 C 
ENDBRANCH   1  22
TORSDOF 3
ENDMDL
MODEL 9
REMARK VINA RESULT:      -7.1      3.083      4.299
REMARK  3 active torsions:
REMARK  status: ('A' for Active; 'I' for Inactive)
REMARK    1  A    between atoms: O1_2  and  C2_3 
REMARK    2  A    between atoms: C6_9  and  N3_10 
REMARK    3  A    between atoms: C16_21  and  O3_22 
ROOT
HETATM    1  C2  UNL     1      19.302   0.820  50.587  1.00  0.00     0.103 A 
HETATM    2  C3  UNL     1      19.149   0.010  51.704  1.00  0.00     0.072 A 
HETATM    3  C4  UNL     1      20.174  -0.118  52.654  1.00  0.00     0.075 A 
HETATM    4  N1  UNL     1      20.049  -0.879  53.741  1.00  0.00    -0.241 NA
HETATM    5  C5  UNL     1      21.068  -0.949  54.624  1.00  0.00     0.236 A 
HETATM    6  N2  UNL     1      22.179  -0.227  54.353  1.00  0.00    -0.221 NA
HETATM    7  C6  UNL     1      22.333   0.547  53.267  1.00  0.00     0.169 A 
HETATM    8  C14 UNL     1      21.298   0.628  52.350  1.00  0.00     0.044 A 
HETATM    9  C15 UNL     1      21.485   1.431  51.267  1.00  0.00     0.057 A 
HETATM   10  C16 UNL     1      20.462   1.537  50.352  1.00  0.00     0.102 A 
ENDROOT
BRANCH   7  11
HETATM   11  N3  UNL     1      23.548   1.267  53.116  1.00  0.00    -0.202 N 
HETATM   12  O2  UNL     1      23.818   2.589  53.085  1.00  0.00    -0.267 OA
HETATM   13  C7  UNL     1      25.078   2.728  52.536  1.00  0.00     0.243 C 
HETATM   14  C8  UNL     1      25.752   1.406  52.636  1.00  0.00    -0.003 A 
HETATM   15  C9  UNL     1      27.079   1.095  52.426  1.00  0.00     0.012 A 
HETATM   16  C13 UNL     1      24.761   0.514  52.991  1.00  0.00     0.073 A 
HETATM   17  C10 UNL     1      27.485  -0.218  52.575  1.00  0.00     0.001 A 
HETATM   18  C11 UNL     1      26.515  -1.131  52.929  1.00  0.00     0.002 A 
HETATM   19  C12 UNL     1      25.194  -0.792  53.133  1.00  0.00     0.033 A 
ENDBRANCH   7  11
BRANCH  10  20
HETATM   20  O3  UNL     1      20.362   2.260  49.184  1.00  0.00    -0.353 OA
HETATM   21  C17 UNL     1      21.255   2.026  48.120  1.00  0.00     0.210 C 
ENDBRANCH  10  20
BRANCH   1  22
HETATM   22  O1  UNL     1      18.183   0.815  49.767  1.00  0.00    -0.353 OA
HETATM   23  C1  UNL     1      17.095  -0.022  49.963  1.00  0.00     0.210 C 
ENDBRANCH   1  22
TORSDOF 3
ENDMDL
