MODEL 1
REMARK VINA RESULT:      -7.6      0.000      0.000
REMARK  4 active torsions:
REMARK  status: ('A' for Active; 'I' for Inactive)
REMARK    1  A    between atoms: C2_2  and  C3_3 
REMARK    2  A    between atoms: C4_4  and  C5_5 
REMARK    3  A    between atoms: C5_5  and  C6_6 
REMARK    4  A    between atoms: C12_15  and  C13_16 
ROOT
HETATM    1  C6  UNL     1      24.348   3.522  49.822  1.00  0.00     0.039 A 
HETATM    2  C7  UNL     1      23.979   2.556  48.912  1.00  0.00     0.040 A 
HETATM    3  C8  UNL     1      22.631   2.586  48.974  1.00  0.00    -0.018 A 
HETATM    4  C9  UNL     1      22.159   3.526  49.862  1.00  0.00     0.129 A 
HETATM    5  N1  UNL     1      23.289   4.098  50.394  1.00  0.00    -0.251 N 
HETATM    6  N2  UNL     1      22.890   4.992  51.432  1.00  0.00    -0.168 NA
HETATM    7  C10 UNL     1      21.904   4.583  52.279  1.00  0.00     0.825 C 
HETATM    8  N3  UNL     1      21.267   3.287  52.148  1.00  0.00     0.054 NA
HETATM    9  C11 UNL     1      19.999   3.058  52.461  1.00  0.00     0.265 C 
HETATM   10  C12 UNL     1      19.896   1.591  52.117  1.00  0.00     0.144 C 
HETATM   11  N4  UNL     1      19.853   1.407  50.651  1.00  0.00    -0.401 N 
HETATM   12  C19 UNL     1      20.293   1.478  49.296  1.00  0.00     0.127 C 
HETATM   13  C20 UNL     1      21.352   1.919  48.575  1.00  0.00     0.013 C 
HETATM   14  H18 UNL     1      18.981   0.920  50.236  1.00  0.00     0.154 HD
ENDROOT
BRANCH  10  15
HETATM   15  C13 UNL     1      20.928   0.782  52.776  1.00  0.00    -0.034 A 
HETATM   16  C14 UNL     1      22.143   0.384  52.280  1.00  0.00     0.009 A 
HETATM   17  C15 UNL     1      23.052  -0.382  52.978  1.00  0.00     0.001 A 
HETATM   18  C16 UNL     1      22.761  -0.797  54.259  1.00  0.00     0.000 A 
HETATM   19  C17 UNL     1      21.566  -0.450  54.849  1.00  0.00     0.001 A 
HETATM   20  C18 UNL     1      20.714   0.318  54.083  1.00  0.00     0.009 A 
ENDBRANCH  10  15
BRANCH   1  21
HETATM   21  C5  UNL     1      25.745   3.887  50.137  1.00  0.00     0.086 C 
BRANCH  21  22
HETATM   22  C4  UNL     1      26.551   2.799  50.698  1.00  0.00    -0.021 C 
HETATM   23  C3  UNL     1      26.070   2.068  51.691  1.00  0.00    -0.008 C 
BRANCH  23  24
HETATM   24  C2  UNL     1      26.694   0.939  52.401  1.00  0.00    -0.027 C 
HETATM   25  C1  UNL     1      26.692  -0.341  52.061  1.00  0.00     0.031 C 
ENDBRANCH  23  24
ENDBRANCH  21  22
ENDBRANCH   1  21
TORSDOF 4
ENDMDL
MODEL 2
REMARK VINA RESULT:      -7.5      1.267      5.073
REMARK  4 active torsions:
REMARK  status: ('A' for Active; 'I' for Inactive)
REMARK    1  A    between atoms: C2_2  and  C3_3 
REMARK    2  A    between atoms: C4_4  and  C5_5 
REMARK    3  A    between atoms: C5_5  and  C6_6 
REMARK    4  A    between atoms: C12_15  and  C13_16 
ROOT
HETATM    1  C6  UNL     1      20.092   2.112  51.398  1.00  0.00     0.039 A 
HETATM    2  C7  UNL     1      20.274   2.930  52.490  1.00  0.00     0.040 A 
HETATM    3  C8  UNL     1      21.172   3.833  52.041  1.00  0.00    -0.018 A 
HETATM    4  C9  UNL     1      21.536   3.617  50.732  1.00  0.00     0.129 A 
HETATM    5  N1  UNL     1      20.832   2.498  50.357  1.00  0.00    -0.251 N 
HETATM    6  N2  UNL     1      21.258   2.120  49.049  1.00  0.00    -0.168 NA
HETATM    7  C10 UNL     1      22.592   2.175  48.775  1.00  0.00     0.825 C 
HETATM    8  N3  UNL     1      23.563   2.601  49.763  1.00  0.00     0.054 NA
HETATM    9  C11 UNL     1      24.681   3.247  49.463  1.00  0.00     0.265 C 
HETATM   10  C12 UNL     1      25.265   3.434  50.843  1.00  0.00     0.144 C 
HETATM   11  N4  UNL     1      24.530   4.487  51.575  1.00  0.00    -0.401 N 
HETATM   12  C19 UNL     1      23.420   5.146  52.184  1.00  0.00     0.127 C 
HETATM   13  C20 UNL     1      22.096   4.954  52.402  1.00  0.00     0.013 C 
HETATM   14  H18 UNL     1      25.092   5.349  51.906  1.00  0.00     0.154 HD
ENDROOT
BRANCH  10  15
HETATM   15  C13 UNL     1      25.373   2.175  51.588  1.00  0.00    -0.034 A 
HETATM   16  C14 UNL     1      24.471   1.621  52.459  1.00  0.00     0.009 A 
HETATM   17  C15 UNL     1      24.662   0.425  53.117  1.00  0.00     0.001 A 
HETATM   18  C16 UNL     1      25.821  -0.293  52.916  1.00  0.00     0.000 A 
HETATM   19  C17 UNL     1      26.791   0.177  52.059  1.00  0.00     0.001 A 
HETATM   20  C18 UNL     1      26.521   1.379  51.441  1.00  0.00     0.009 A 
ENDBRANCH  10  15
BRANCH   1  21
HETATM   21  C5  UNL     1      19.189   0.942  51.368  1.00  0.00     0.086 C 
BRANCH  21  22
HETATM   22  C4  UNL     1      19.383  -0.010  52.466  1.00  0.00    -0.021 C 
HETATM   23  C3  UNL     1      20.608  -0.336  52.845  1.00  0.00    -0.008 C 
BRANCH  23  24
HETATM   24  C2  UNL     1      21.037  -1.258  53.910  1.00  0.00    -0.027 C 
HETATM   25  C1  UNL     1      21.844  -1.010  54.930  1.00  0.00     0.031 C 
ENDBRANCH  23  24
ENDBRANCH  21  22
ENDBRANCH   1  21
TORSDOF 4
ENDMDL
MODEL 3
REMARK VINA RESULT:      -7.2      1.589      2.528
REMARK  4 active torsions:
REMARK  status: ('A' for Active; 'I' for Inactive)
REMARK    1  A    between atoms: C2_2  and  C3_3 
REMARK    2  A    between atoms: C4_4  and  C5_5 
REMARK    3  A    between atoms: C5_5  and  C6_6 
REMARK    4  A    between atoms: C12_15  and  C13_16 
ROOT
HETATM    1  C6  UNL     1      24.062   4.205  49.745  1.00  0.00     0.039 A 
HETATM    2  C7  UNL     1      24.016   3.188  48.817  1.00  0.00     0.040 A 
HETATM    3  C8  UNL     1      22.740   2.756  48.910  1.00  0.00    -0.018 A 
HETATM    4  C9  UNL     1      22.004   3.462  49.834  1.00  0.00     0.129 A 
HETATM    5  N1  UNL     1      22.889   4.375  50.356  1.00  0.00    -0.251 N 
HETATM    6  N2  UNL     1      22.241   5.060  51.427  1.00  0.00    -0.168 NA
HETATM    7  C10 UNL     1      21.478   4.325  52.284  1.00  0.00     0.825 C 
HETATM    8  N3  UNL     1      21.316   2.892  52.132  1.00  0.00     0.054 NA
HETATM    9  C11 UNL     1      20.212   2.240  52.466  1.00  0.00     0.265 C 
HETATM   10  C12 UNL     1      20.603   0.832  52.085  1.00  0.00     0.144 C 
HETATM   11  N4  UNL     1      20.580   0.671  50.615  1.00  0.00    -0.401 N 
HETATM   12  C19 UNL     1      20.928   0.913  49.253  1.00  0.00     0.127 C 
HETATM   13  C20 UNL     1      21.752   1.701  48.521  1.00  0.00     0.013 C 
HETATM   14  H18 UNL     1      19.914  -0.076  50.206  1.00  0.00     0.154 HD
ENDROOT
BRANCH  10  15
HETATM   15  C13 UNL     1      21.867   0.410  52.697  1.00  0.00    -0.034 A 
HETATM   16  C14 UNL     1      23.146   0.700  52.296  1.00  0.00     0.009 A 
HETATM   17  C15 UNL     1      24.281   0.254  52.939  1.00  0.00     0.001 A 
HETATM   18  C16 UNL     1      24.169  -0.537  54.061  1.00  0.00     0.000 A 
HETATM   19  C17 UNL     1      22.927  -0.885  54.546  1.00  0.00     0.001 A 
HETATM   20  C18 UNL     1      21.845  -0.397  53.845  1.00  0.00     0.009 A 
ENDBRANCH  10  15
BRANCH   1  21
HETATM   21  C5  UNL     1      25.261   5.017  50.039  1.00  0.00     0.086 C 
BRANCH  21  22
HETATM   22  C4  UNL     1      26.477   4.592  49.341  1.00  0.00    -0.021 C 
HETATM   23  C3  UNL     1      27.335   5.499  48.902  1.00  0.00    -0.008 C 
BRANCH  23  24
HETATM   24  C2  UNL     1      28.606   5.305  48.184  1.00  0.00    -0.027 C 
HETATM   25  C1  UNL     1      29.471   6.227  47.791  1.00  0.00     0.031 C 
ENDBRANCH  23  24
ENDBRANCH  21  22
ENDBRANCH   1  21
TORSDOF 4
ENDMDL
MODEL 4
REMARK VINA RESULT:      -7.2      2.464      5.793
REMARK  4 active torsions:
REMARK  status: ('A' for Active; 'I' for Inactive)
REMARK    1  A    between atoms: C2_2  and  C3_3 
REMARK    2  A    between atoms: C4_4  and  C5_5 
REMARK    3  A    between atoms: C5_5  and  C6_6 
REMARK    4  A    between atoms: C12_15  and  C13_16 
ROOT
HETATM    1  C6  UNL     1      24.350   1.611  52.269  1.00  0.00     0.039 A 
HETATM    2  C7  UNL     1      24.592   2.606  53.189  1.00  0.00     0.040 A 
HETATM    3  C8  UNL     1      23.801   3.612  52.757  1.00  0.00    -0.018 A 
HETATM    4  C9  UNL     1      23.081   3.278  51.633  1.00  0.00     0.129 A 
HETATM    5  N1  UNL     1      23.469   1.992  51.342  1.00  0.00    -0.251 N 
HETATM    6  N2  UNL     1      22.871   1.615  50.103  1.00  0.00    -0.168 NA
HETATM    7  C10 UNL     1      22.857   2.536  49.098  1.00  0.00     0.825 C 
HETATM    8  N3  UNL     1      23.424   3.860  49.261  1.00  0.00     0.054 NA
HETATM    9  C11 UNL     1      22.950   4.940  48.656  1.00  0.00     0.265 C 
HETATM   10  C12 UNL     1      23.895   5.989  49.195  1.00  0.00     0.144 C 
HETATM   11  N4  UNL     1      23.570   6.300  50.603  1.00  0.00    -0.401 N 
HETATM   12  C19 UNL     1      23.368   6.067  51.996  1.00  0.00     0.127 C 
HETATM   13  C20 UNL     1      23.438   5.057  52.897  1.00  0.00     0.013 C 
HETATM   14  H18 UNL     1      23.305   7.321  50.839  1.00  0.00     0.154 HD
ENDROOT
BRANCH  10  15
HETATM   15  C13 UNL     1      25.304   5.641  48.985  1.00  0.00    -0.034 A 
HETATM   16  C14 UNL     1      25.956   4.484  49.326  1.00  0.00     0.009 A 
HETATM   17  C15 UNL     1      27.293   4.247  49.088  1.00  0.00     0.001 A 
HETATM   18  C16 UNL     1      28.062   5.209  48.472  1.00  0.00     0.000 A 
HETATM   19  C17 UNL     1      27.502   6.408  48.089  1.00  0.00     0.001 A 
HETATM   20  C18 UNL     1      26.160   6.564  48.363  1.00  0.00     0.009 A 
ENDBRANCH  10  15
BRANCH   1  21
HETATM   21  C5  UNL     1      24.985   0.277  52.291  1.00  0.00     0.086 C 
BRANCH  21  22
HETATM   22  C4  UNL     1      26.450   0.294  52.258  1.00  0.00    -0.021 C 
HETATM   23  C3  UNL     1      27.137  -0.130  53.308  1.00  0.00    -0.008 C 
BRANCH  23  24
HETATM   24  C2  UNL     1      28.595  -0.203  53.497  1.00  0.00    -0.027 C 
HETATM   25  C1  UNL     1      29.378  -1.267  53.409  1.00  0.00     0.031 C 
ENDBRANCH  23  24
ENDBRANCH  21  22
ENDBRANCH   1  21
TORSDOF 4
ENDMDL
MODEL 5
REMARK VINA RESULT:      -6.9      2.621      4.821
REMARK  4 active torsions:
REMARK  status: ('A' for Active; 'I' for Inactive)
REMARK    1  A    between atoms: C2_2  and  C3_3 
REMARK    2  A    between atoms: C4_4  and  C5_5 
REMARK    3  A    between atoms: C5_5  and  C6_6 
REMARK    4  A    between atoms: C12_15  and  C13_16 
ROOT
HETATM    1  C6  UNL     1      25.717   1.396  51.953  1.00  0.00     0.039 A 
HETATM    2  C7  UNL     1      26.486   1.513  50.817  1.00  0.00     0.040 A 
HETATM    3  C8  UNL     1      26.432   2.836  50.553  1.00  0.00    -0.018 A 
HETATM    4  C9  UNL     1      25.682   3.532  51.473  1.00  0.00     0.129 A 
HETATM    5  N1  UNL     1      25.231   2.574  52.349  1.00  0.00    -0.251 N 
HETATM    6  N2  UNL     1      24.326   3.194  53.261  1.00  0.00    -0.168 NA
HETATM    7  C10 UNL     1      23.433   4.093  52.759  1.00  0.00     0.825 C 
HETATM    8  N3  UNL     1      23.386   4.424  51.348  1.00  0.00     0.054 NA
HETATM    9  C11 UNL     1      23.048   5.619  50.886  1.00  0.00     0.265 C 
HETATM   10  C12 UNL     1      23.187   5.384  49.400  1.00  0.00     0.144 C 
HETATM   11  N4  UNL     1      24.615   5.339  49.018  1.00  0.00    -0.401 N 
HETATM   12  C19 UNL     1      25.966   4.881  49.005  1.00  0.00     0.127 C 
HETATM   13  C20 UNL     1      26.739   3.923  49.571  1.00  0.00     0.013 C 
HETATM   14  H18 UNL     1      24.961   6.067  48.298  1.00  0.00     0.154 HD
ENDROOT
BRANCH  10  15
HETATM   15  C13 UNL     1      22.423   4.222  48.937  1.00  0.00    -0.034 A 
HETATM   16  C14 UNL     1      22.895   3.014  48.494  1.00  0.00     0.009 A 
HETATM   17  C15 UNL     1      22.094   1.974  48.074  1.00  0.00     0.001 A 
HETATM   18  C16 UNL     1      20.723   2.115  48.083  1.00  0.00     0.000 A 
HETATM   19  C17 UNL     1      20.148   3.292  48.510  1.00  0.00     0.001 A 
HETATM   20  C18 UNL     1      21.020   4.280  48.914  1.00  0.00     0.009 A 
ENDBRANCH  10  15
BRANCH   1  21
HETATM   21  C5  UNL     1      25.451   0.125  52.658  1.00  0.00     0.086 C 
BRANCH  21  22
HETATM   22  C4  UNL     1      26.550  -0.843  52.614  1.00  0.00    -0.021 C 
HETATM   23  C3  UNL     1      27.686  -0.577  53.239  1.00  0.00    -0.008 C 
BRANCH  23  24
HETATM   24  C2  UNL     1      28.910  -1.391  53.330  1.00  0.00    -0.027 C 
HETATM   25  C1  UNL     1      30.109  -1.020  53.753  1.00  0.00     0.031 C 
ENDBRANCH  23  24
ENDBRANCH  21  22
ENDBRANCH   1  21
TORSDOF 4
ENDMDL
MODEL 6
REMARK VINA RESULT:      -6.8      1.842      5.412
REMARK  4 active torsions:
REMARK  status: ('A' for Active; 'I' for Inactive)
REMARK    1  A    between atoms: C2_2  and  C3_3 
REMARK    2  A    between atoms: C4_4  and  C5_5 
REMARK    3  A    between atoms: C5_5  and  C6_6 
REMARK    4  A    between atoms: C12_15  and  C13_16 
ROOT
HETATM    1  C6  UNL     1      19.955   2.168  50.692  1.00  0.00     0.039 A 
HETATM    2  C7  UNL     1      19.943   2.863  51.881  1.00  0.00     0.040 A 
HETATM    3  C8  UNL     1      20.911   3.787  51.696  1.00  0.00    -0.018 A 
HETATM    4  C9  UNL     1      21.501   3.699  50.456  1.00  0.00     0.129 A 
HETATM    5  N1  UNL     1      20.870   2.642  49.846  1.00  0.00    -0.251 N 
HETATM    6  N2  UNL     1      21.521   2.393  48.601  1.00  0.00    -0.168 NA
HETATM    7  C10 UNL     1      22.882   2.445  48.573  1.00  0.00     0.825 C 
HETATM    8  N3  UNL     1      23.664   2.742  49.757  1.00  0.00     0.054 NA
HETATM    9  C11 UNL     1      24.820   3.389  49.729  1.00  0.00     0.265 C 
HETATM   10  C12 UNL     1      25.150   3.418  51.203  1.00  0.00     0.144 C 
HETATM   11  N4  UNL     1      24.302   4.406  51.902  1.00  0.00    -0.401 N 
HETATM   12  C19 UNL     1      23.104   5.024  52.372  1.00  0.00     0.127 C 
HETATM   13  C20 UNL     1      21.762   4.841  52.331  1.00  0.00     0.013 C 
HETATM   14  H18 UNL     1      24.800   5.216  52.417  1.00  0.00     0.154 HD
ENDROOT
BRANCH  10  15
HETATM   15  C13 UNL     1      25.118   2.086  51.816  1.00  0.00    -0.034 A 
HETATM   16  C14 UNL     1      26.079   1.109  51.780  1.00  0.00     0.009 A 
HETATM   17  C15 UNL     1      25.958  -0.122  52.390  1.00  0.00     0.001 A 
HETATM   18  C16 UNL     1      24.813  -0.432  53.091  1.00  0.00     0.000 A 
HETATM   19  C17 UNL     1      23.787   0.483  53.187  1.00  0.00     0.001 A 
HETATM   20  C18 UNL     1      23.989   1.688  52.550  1.00  0.00     0.009 A 
ENDBRANCH  10  15
BRANCH   1  21
HETATM   21  C5  UNL     1      19.067   1.028  50.380  1.00  0.00     0.086 C 
BRANCH  21  22
HETATM   22  C4  UNL     1      18.921   0.050  51.460  1.00  0.00    -0.021 C 
HETATM   23  C3  UNL     1      17.725  -0.436  51.751  1.00  0.00    -0.008 C 
BRANCH  23  24
HETATM   24  C2  UNL     1      17.345  -1.417  52.782  1.00  0.00    -0.027 C 
HETATM   25  C1  UNL     1      18.122  -2.001  53.680  1.00  0.00     0.031 C 
ENDBRANCH  23  24
ENDBRANCH  21  22
ENDBRANCH   1  21
TORSDOF 4
ENDMDL
MODEL 7
REMARK VINA RESULT:      -6.8      2.136      6.234
REMARK  4 active torsions:
REMARK  status: ('A' for Active; 'I' for Inactive)
REMARK    1  A    between atoms: C2_2  and  C3_3 
REMARK    2  A    between atoms: C4_4  and  C5_5 
REMARK    3  A    between atoms: C5_5  and  C6_6 
REMARK    4  A    between atoms: C12_15  and  C13_16 
ROOT
HETATM    1  C6  UNL     1      20.255   0.968  51.901  1.00  0.00     0.039 A 
HETATM    2  C7  UNL     1      21.304   0.106  51.671  1.00  0.00     0.040 A 
HETATM    3  C8  UNL     1      22.382   0.854  51.993  1.00  0.00    -0.018 A 
HETATM    4  C9  UNL     1      22.044   2.118  52.418  1.00  0.00     0.129 A 
HETATM    5  N1  UNL     1      20.673   2.158  52.334  1.00  0.00    -0.251 N 
HETATM    6  N2  UNL     1      20.247   3.488  52.626  1.00  0.00    -0.168 NA
HETATM    7  C10 UNL     1      20.964   4.517  52.093  1.00  0.00     0.825 C 
HETATM    8  N3  UNL     1      22.125   4.291  51.255  1.00  0.00     0.054 NA
HETATM    9  C11 UNL     1      23.170   5.105  51.215  1.00  0.00     0.265 C 
HETATM   10  C12 UNL     1      24.040   4.380  50.215  1.00  0.00     0.144 C 
HETATM   11  N4  UNL     1      24.650   3.185  50.836  1.00  0.00    -0.401 N 
HETATM   12  C19 UNL     1      24.707   1.918  51.490  1.00  0.00     0.127 C 
HETATM   13  C20 UNL     1      23.874   0.962  51.966  1.00  0.00     0.013 C 
HETATM   14  H18 UNL     1      25.730   3.135  50.865  1.00  0.00     0.154 HD
ENDROOT
BRANCH  10  15
HETATM   15  C13 UNL     1      23.340   4.092  48.959  1.00  0.00    -0.034 A 
HETATM   16  C14 UNL     1      22.891   4.976  48.013  1.00  0.00     0.009 A 
HETATM   17  C15 UNL     1      22.237   4.608  46.856  1.00  0.00     0.001 A 
HETATM   18  C16 UNL     1      21.998   3.277  46.595  1.00  0.00     0.000 A 
HETATM   19  C17 UNL     1      22.409   2.308  47.484  1.00  0.00     0.001 A 
HETATM   20  C18 UNL     1      23.056   2.761  48.614  1.00  0.00     0.009 A 
ENDBRANCH  10  15
BRANCH   1  21
HETATM   21  C5  UNL     1      18.831   0.628  51.694  1.00  0.00     0.086 C 
BRANCH  21  22
HETATM   22  C4  UNL     1      18.484  -0.764  51.988  1.00  0.00    -0.021 C 
HETATM   23  C3  UNL     1      18.298  -1.146  53.242  1.00  0.00    -0.008 C 
BRANCH  23  24
HETATM   24  C2  UNL     1      17.946  -2.476  53.766  1.00  0.00    -0.027 C 
HETATM   25  C1  UNL     1      17.024  -3.314  53.318  1.00  0.00     0.031 C 
ENDBRANCH  23  24
ENDBRANCH  21  22
ENDBRANCH   1  21
TORSDOF 4
ENDMDL
MODEL 8
REMARK VINA RESULT:      -6.7      6.768      9.547
REMARK  4 active torsions:
REMARK  status: ('A' for Active; 'I' for Inactive)
REMARK    1  A    between atoms: C2_2  and  C3_3 
REMARK    2  A    between atoms: C4_4  and  C5_5 
REMARK    3  A    between atoms: C5_5  and  C6_6 
REMARK    4  A    between atoms: C12_15  and  C13_16 
ROOT
HETATM    1  C6  UNL     1      31.780   7.674  47.865  1.00  0.00     0.039 A 
HETATM    2  C7  UNL     1      31.531   7.270  46.573  1.00  0.00     0.040 A 
HETATM    3  C8  UNL     1      30.496   8.057  46.208  1.00  0.00    -0.018 A 
HETATM    4  C9  UNL     1      30.111   8.925  47.203  1.00  0.00     0.129 A 
HETATM    5  N1  UNL     1      30.949   8.643  48.254  1.00  0.00    -0.251 N 
HETATM    6  N2  UNL     1      30.525   9.407  49.381  1.00  0.00    -0.168 NA
HETATM    7  C10 UNL     1      29.187   9.499  49.620  1.00  0.00     0.825 C 
HETATM    8  N3  UNL     1      28.208   8.850  48.770  1.00  0.00     0.054 NA
HETATM    9  C11 UNL     1      26.998   9.339  48.538  1.00  0.00     0.265 C 
HETATM   10  C12 UNL     1      26.453   8.283  47.605  1.00  0.00     0.144 C 
HETATM   11  N4  UNL     1      27.062   8.415  46.265  1.00  0.00    -0.401 N 
HETATM   12  C19 UNL     1      28.093   8.455  45.279  1.00  0.00     0.127 C 
HETATM   13  C20 UNL     1      29.438   8.325  45.183  1.00  0.00     0.013 C 
HETATM   14  H18 UNL     1      26.398   8.597  45.431  1.00  0.00     0.154 HD
ENDROOT
BRANCH  10  15
HETATM   15  C13 UNL     1      26.556   6.929  48.161  1.00  0.00    -0.034 A 
HETATM   16  C14 UNL     1      25.593   6.198  48.806  1.00  0.00     0.009 A 
HETATM   17  C15 UNL     1      25.785   4.925  49.299  1.00  0.00     0.001 A 
HETATM   18  C16 UNL     1      27.009   4.311  49.157  1.00  0.00     0.000 A 
HETATM   19  C17 UNL     1      28.045   4.961  48.523  1.00  0.00     0.001 A 
HETATM   20  C18 UNL     1      27.769   6.230  48.060  1.00  0.00     0.009 A 
ENDBRANCH  10  15
BRANCH   1  21
HETATM   21  C5  UNL     1      32.837   7.110  48.731  1.00  0.00     0.086 C 
BRANCH  21  22
HETATM   22  C4  UNL     1      33.143   5.698  48.484  1.00  0.00    -0.021 C 
HETATM   23  C3  UNL     1      34.396   5.322  48.280  1.00  0.00    -0.008 C 
BRANCH  23  24
HETATM   24  C2  UNL     1      34.932   3.976  48.017  1.00  0.00    -0.027 C 
HETATM   25  C1  UNL     1      34.740   3.214  46.951  1.00  0.00     0.031 C 
ENDBRANCH  23  24
ENDBRANCH  21  22
ENDBRANCH   1  21
TORSDOF 4
ENDMDL
MODEL 9
REMARK VINA RESULT:      -6.7      1.719      5.317
REMARK  4 active torsions:
REMARK  status: ('A' for Active; 'I' for Inactive)
REMARK    1  A    between atoms: C2_2  and  C3_3 
REMARK    2  A    between atoms: C4_4  and  C5_5 
REMARK    3  A    between atoms: C5_5  and  C6_6 
REMARK    4  A    between atoms: C12_15  and  C13_16 
ROOT
HETATM    1  C6  UNL     1      24.862   1.273  52.640  1.00  0.00     0.039 A 
HETATM    2  C7  UNL     1      25.794   1.003  51.663  1.00  0.00     0.040 A 
HETATM    3  C8  UNL     1      26.119   2.234  51.212  1.00  0.00    -0.018 A 
HETATM    4  C9  UNL     1      25.445   3.237  51.870  1.00  0.00     0.129 A 
HETATM    5  N1  UNL     1      24.640   2.582  52.770  1.00  0.00    -0.251 N 
HETATM    6  N2  UNL     1      23.800   3.546  53.402  1.00  0.00    -0.168 NA
HETATM    7  C10 UNL     1      23.250   4.519  52.621  1.00  0.00     0.825 C 
HETATM    8  N3  UNL     1      23.498   4.591  51.195  1.00  0.00     0.054 NA
HETATM    9  C11 UNL     1      23.548   5.728  50.516  1.00  0.00     0.265 C 
HETATM   10  C12 UNL     1      23.840   5.203  49.129  1.00  0.00     0.144 C 
HETATM   11  N4  UNL     1      25.248   4.765  49.031  1.00  0.00    -0.401 N 
HETATM   12  C19 UNL     1      26.425   4.017  49.335  1.00  0.00     0.127 C 
HETATM   13  C20 UNL     1      26.835   3.026  50.163  1.00  0.00     0.013 C 
HETATM   14  H18 UNL     1      25.872   5.253  48.294  1.00  0.00     0.154 HD
ENDROOT
BRANCH  10  15
HETATM   15  C13 UNL     1      22.880   4.182  48.698  1.00  0.00    -0.034 A 
HETATM   16  C14 UNL     1      23.067   2.828  48.594  1.00  0.00     0.009 A 
HETATM   17  C15 UNL     1      22.100   1.941  48.174  1.00  0.00     0.001 A 
HETATM   18  C16 UNL     1      20.849   2.402  47.825  1.00  0.00     0.000 A 
HETATM   19  C17 UNL     1      20.559   3.747  47.895  1.00  0.00     0.001 A 
HETATM   20  C18 UNL     1      21.582   4.565  48.325  1.00  0.00     0.009 A 
ENDBRANCH  10  15
BRANCH   1  21
HETATM   21  C5  UNL     1      24.179   0.245  53.453  1.00  0.00     0.086 C 
BRANCH  21  22
HETATM   22  C4  UNL     1      22.732   0.156  53.241  1.00  0.00    -0.021 C 
HETATM   23  C3  UNL     1      22.236   0.293  52.022  1.00  0.00    -0.008 C 
BRANCH  23  24
HETATM   24  C2  UNL     1      20.833   0.241  51.578  1.00  0.00    -0.027 C 
HETATM   25  C1  UNL     1      20.036   1.252  51.268  1.00  0.00     0.031 C 
ENDBRANCH  23  24
ENDBRANCH  21  22
ENDBRANCH   1  21
TORSDOF 4
ENDMDL
