MODEL 1
REMARK VINA RESULT:      -8.5      0.000      0.000
REMARK  4 active torsions:
REMARK  status: ('A' for Active; 'I' for Inactive)
REMARK    1  A    between atoms: C5_5  and  C6_6 
REMARK    2  A    between atoms: C6_6  and  N1_8 
REMARK    3  A    between atoms: C9_10  and  N2_11 
REMARK    4  A    between atoms: C12_15  and  C13_16 
ROOT
HETATM    1  C1  UNL     1      24.094   2.572  53.072  1.00  0.00     0.050 C 
HETATM    2  C2  UNL     1      25.061   1.462  52.986  1.00  0.00    -0.033 A 
HETATM    3  C3  UNL     1      26.326   1.798  52.562  1.00  0.00     0.010 A 
HETATM    4  C4  UNL     1      27.322   0.865  52.475  1.00  0.00     0.010 A 
HETATM    5  C5  UNL     1      27.029  -0.418  52.821  1.00  0.00    -0.024 A 
HETATM    6  C8  UNL     1      25.768  -0.708  53.235  1.00  0.00     0.041 A 
HETATM    7  C9  UNL     1      24.700   0.188  53.348  1.00  0.00     0.066 A 
ENDROOT
BRANCH   7   8
HETATM    8  N2  UNL     1      23.454  -0.300  53.739  1.00  0.00    -0.227 N 
HETATM    9  C10 UNL     1      23.114  -1.089  54.846  1.00  0.00     0.229 A 
HETATM   10  N3  UNL     1      21.940  -1.540  55.115  1.00  0.00    -0.277 NA
HETATM   11  C11 UNL     1      20.804  -1.253  54.247  1.00  0.00     0.212 A 
HETATM   12  C12 UNL     1      21.193  -0.421  53.096  1.00  0.00     0.086 A 
HETATM   13  N5  UNL     1      22.384  -0.005  52.887  1.00  0.00    -0.168 NA
BRANCH  12  14
HETATM   14  C13 UNL     1      20.111  -0.090  52.186  1.00  0.00     0.009 A 
HETATM   15  C14 UNL     1      18.788  -0.421  52.376  1.00  0.00     0.016 A 
HETATM   16  C15 UNL     1      17.734  -0.128  51.540  1.00  0.00     0.020 A 
HETATM   17  C16 UNL     1      18.071   0.585  50.382  1.00  0.00     0.116 A 
HETATM   18  N4  UNL     1      19.344   0.941  50.135  1.00  0.00    -0.272 NA
HETATM   19  C17 UNL     1      20.299   0.618  50.992  1.00  0.00     0.129 A 
ENDBRANCH  12  14
ENDBRANCH   7   8
BRANCH   5  20
HETATM   20  C6  UNL     1      28.110  -1.421  52.725  1.00  0.00     0.246 C 
HETATM   21  C7  UNL     1      29.275  -1.108  53.630  1.00  0.00     0.047 C 
BRANCH  20  22
HETATM   22  N1  UNL     1      27.566  -2.715  53.116  1.00  0.00     0.086 N 
HETATM   23  H10 UNL     1      28.246  -3.441  52.804  1.00  0.00     0.313 HD
HETATM   24  H11 UNL     1      26.609  -2.879  52.744  1.00  0.00     0.313 HD
ENDBRANCH  20  22
ENDBRANCH   5  20
TORSDOF 4
ENDMDL
MODEL 2
REMARK VINA RESULT:      -8.5      1.263      7.489
REMARK  4 active torsions:
REMARK  status: ('A' for Active; 'I' for Inactive)
REMARK    1  A    between atoms: C5_5  and  C6_6 
REMARK    2  A    between atoms: C6_6  and  N1_8 
REMARK    3  A    between atoms: C9_10  and  N2_11 
REMARK    4  A    between atoms: C12_15  and  C13_16 
ROOT
HETATM    1  C1  UNL     1      22.979  -1.263  55.333  1.00  0.00     0.050 C 
HETATM    2  C2  UNL     1      22.041  -0.802  54.292  1.00  0.00    -0.033 A 
HETATM    3  C3  UNL     1      20.785  -1.364  54.322  1.00  0.00     0.010 A 
HETATM    4  C4  UNL     1      19.815  -0.992  53.432  1.00  0.00     0.010 A 
HETATM    5  C5  UNL     1      20.124  -0.044  52.506  1.00  0.00    -0.024 A 
HETATM    6  C8  UNL     1      21.376   0.486  52.511  1.00  0.00     0.041 A 
HETATM    7  C9  UNL     1      22.418   0.157  53.385  1.00  0.00     0.066 A 
ENDROOT
BRANCH   7   8
HETATM    8  N2  UNL     1      23.659   0.766  53.206  1.00  0.00    -0.227 N 
HETATM    9  C10 UNL     1      23.963   2.109  52.945  1.00  0.00     0.229 A 
HETATM   10  N3  UNL     1      25.139   2.588  52.746  1.00  0.00    -0.277 NA
HETATM   11  C11 UNL     1      26.319   1.730  52.779  1.00  0.00     0.212 A 
HETATM   12  C12 UNL     1      25.967   0.328  53.057  1.00  0.00     0.086 A 
HETATM   13  N5  UNL     1      24.770  -0.083  53.245  1.00  0.00    -0.168 NA
BRANCH  12  14
HETATM   14  C13 UNL     1      27.092  -0.587  53.109  1.00  0.00     0.009 A 
HETATM   15  C14 UNL     1      28.366  -0.254  53.513  1.00  0.00     0.016 A 
HETATM   16  C15 UNL     1      29.459  -1.089  53.577  1.00  0.00     0.020 A 
HETATM   17  C16 UNL     1      29.223  -2.412  53.183  1.00  0.00     0.116 A 
HETATM   18  N4  UNL     1      28.002  -2.806  52.778  1.00  0.00    -0.272 NA
HETATM   19  C17 UNL     1      27.004  -1.938  52.746  1.00  0.00     0.129 A 
ENDBRANCH  12  14
ENDBRANCH   7   8
BRANCH   5  20
HETATM   20  C6  UNL     1      19.072   0.352  51.548  1.00  0.00     0.246 C 
HETATM   21  C7  UNL     1      17.771  -0.376  51.781  1.00  0.00     0.047 C 
BRANCH  20  22
HETATM   22  N1  UNL     1      18.828   1.779  51.704  1.00  0.00     0.086 N 
HETATM   23  H10 UNL     1      19.115   2.036  52.673  1.00  0.00     0.313 HD
HETATM   24  H11 UNL     1      17.844   2.045  51.496  1.00  0.00     0.313 HD
ENDBRANCH  20  22
ENDBRANCH   5  20
TORSDOF 4
ENDMDL
MODEL 3
REMARK VINA RESULT:      -8.5      1.760      7.135
REMARK  4 active torsions:
REMARK  status: ('A' for Active; 'I' for Inactive)
REMARK    1  A    between atoms: C5_5  and  C6_6 
REMARK    2  A    between atoms: C6_6  and  N1_8 
REMARK    3  A    between atoms: C9_10  and  N2_11 
REMARK    4  A    between atoms: C12_15  and  C13_16 
ROOT
HETATM    1  C1  UNL     1      23.013   1.981  49.855  1.00  0.00     0.050 C 
HETATM    2  C2  UNL     1      22.170   1.360  50.894  1.00  0.00    -0.033 A 
HETATM    3  C3  UNL     1      20.896   1.014  50.507  1.00  0.00     0.010 A 
HETATM    4  C4  UNL     1      20.029   0.399  51.368  1.00  0.00     0.010 A 
HETATM    5  C5  UNL     1      20.462   0.134  52.631  1.00  0.00    -0.024 A 
HETATM    6  C8  UNL     1      21.727   0.491  52.973  1.00  0.00     0.041 A 
HETATM    7  C9  UNL     1      22.668   1.122  52.152  1.00  0.00     0.066 A 
ENDROOT
BRANCH   7   8
HETATM    8  N2  UNL     1      23.906   1.465  52.691  1.00  0.00    -0.227 N 
HETATM    9  C10 UNL     1      24.345   2.695  53.199  1.00  0.00     0.229 A 
HETATM   10  N3  UNL     1      25.527   2.947  53.641  1.00  0.00    -0.277 NA
HETATM   11  C11 UNL     1      26.563   1.920  53.653  1.00  0.00     0.212 A 
HETATM   12  C12 UNL     1      26.070   0.641  53.115  1.00  0.00     0.086 A 
HETATM   13  N5  UNL     1      24.877   0.459  52.690  1.00  0.00    -0.168 NA
BRANCH  12  14
HETATM   14  C13 UNL     1      27.046  -0.433  53.098  1.00  0.00     0.009 A 
HETATM   15  C14 UNL     1      28.364  -0.311  53.479  1.00  0.00     0.016 A 
HETATM   16  C15 UNL     1      29.320  -1.302  53.477  1.00  0.00     0.020 A 
HETATM   17  C16 UNL     1      28.879  -2.556  53.038  1.00  0.00     0.116 A 
HETATM   18  N4  UNL     1      27.605  -2.745  52.652  1.00  0.00    -0.272 NA
HETATM   19  C17 UNL     1      26.748  -1.738  52.684  1.00  0.00     0.129 A 
ENDBRANCH  12  14
ENDBRANCH   7   8
BRANCH   5  20
HETATM   20  C6  UNL     1      19.521  -0.531  53.556  1.00  0.00     0.246 C 
HETATM   21  C7  UNL     1      18.315  -1.099  52.849  1.00  0.00     0.047 C 
BRANCH  20  22
HETATM   22  N1  UNL     1      20.223  -1.628  54.209  1.00  0.00     0.086 N 
HETATM   23  H10 UNL     1      20.813  -2.089  53.485  1.00  0.00     0.313 HD
HETATM   24  H11 UNL     1      19.578  -2.294  54.681  1.00  0.00     0.313 HD
ENDBRANCH  20  22
ENDBRANCH   5  20
TORSDOF 4
ENDMDL
MODEL 4
REMARK VINA RESULT:      -8.3      3.969      6.308
REMARK  4 active torsions:
REMARK  status: ('A' for Active; 'I' for Inactive)
REMARK    1  A    between atoms: C5_5  and  C6_6 
REMARK    2  A    between atoms: C6_6  and  N1_8 
REMARK    3  A    between atoms: C9_10  and  N2_11 
REMARK    4  A    between atoms: C12_15  and  C13_16 
ROOT
HETATM    1  C1  UNL     1      23.364  -0.222  53.220  1.00  0.00     0.050 C 
HETATM    2  C2  UNL     1      24.764   0.198  53.422  1.00  0.00    -0.033 A 
HETATM    3  C3  UNL     1      25.437  -0.424  54.448  1.00  0.00     0.010 A 
HETATM    4  C4  UNL     1      26.750  -0.147  54.712  1.00  0.00     0.010 A 
HETATM    5  C5  UNL     1      27.382   0.768  53.928  1.00  0.00    -0.024 A 
HETATM    6  C8  UNL     1      26.682   1.359  52.926  1.00  0.00     0.041 A 
HETATM    7  C9  UNL     1      25.342   1.130  52.596  1.00  0.00     0.066 A 
ENDROOT
BRANCH   7   8
HETATM    8  N2  UNL     1      24.769   1.872  51.564  1.00  0.00    -0.227 N 
HETATM    9  C10 UNL     1      23.514   1.730  50.955  1.00  0.00     0.229 A 
HETATM   10  N3  UNL     1      23.073   2.430  49.971  1.00  0.00    -0.277 NA
HETATM   11  C11 UNL     1      23.882   3.487  49.374  1.00  0.00     0.212 A 
HETATM   12  C12 UNL     1      25.191   3.613  50.037  1.00  0.00     0.086 A 
HETATM   13  N5  UNL     1      25.569   2.880  51.015  1.00  0.00    -0.168 NA
BRANCH  12  14
HETATM   14  C13 UNL     1      26.052   4.650  49.499  1.00  0.00     0.009 A 
HETATM   15  C14 UNL     1      27.290   4.437  48.931  1.00  0.00     0.016 A 
HETATM   16  C15 UNL     1      28.136   5.390  48.412  1.00  0.00     0.020 A 
HETATM   17  C16 UNL     1      27.665   6.708  48.480  1.00  0.00     0.116 A 
HETATM   18  N4  UNL     1      26.466   6.986  49.021  1.00  0.00    -0.272 NA
HETATM   19  C17 UNL     1      25.713   6.009  49.499  1.00  0.00     0.129 A 
ENDBRANCH  12  14
ENDBRANCH   7   8
BRANCH   5  20
HETATM   20  C6  UNL     1      28.800   1.062  54.220  1.00  0.00     0.246 C 
HETATM   21  C7  UNL     1      29.740   0.045  53.621  1.00  0.00     0.047 C 
BRANCH  20  22
HETATM   22  N1  UNL     1      29.121   2.365  53.652  1.00  0.00     0.086 N 
HETATM   23  H10 UNL     1      28.368   3.022  53.947  1.00  0.00     0.313 HD
HETATM   24  H11 UNL     1      29.243   2.336  52.620  1.00  0.00     0.313 HD
ENDBRANCH  20  22
ENDBRANCH   5  20
TORSDOF 4
ENDMDL
MODEL 5
REMARK VINA RESULT:      -8.2      2.796      6.713
REMARK  4 active torsions:
REMARK  status: ('A' for Active; 'I' for Inactive)
REMARK    1  A    between atoms: C5_5  and  C6_6 
REMARK    2  A    between atoms: C6_6  and  N1_8 
REMARK    3  A    between atoms: C9_10  and  N2_11 
REMARK    4  A    between atoms: C12_15  and  C13_16 
ROOT
HETATM    1  C1  UNL     1      21.499   0.876  50.241  1.00  0.00     0.050 C 
HETATM    2  C2  UNL     1      22.621   1.826  50.113  1.00  0.00    -0.033 A 
HETATM    3  C3  UNL     1      22.544   2.710  49.063  1.00  0.00     0.010 A 
HETATM    4  C4  UNL     1      23.505   3.662  48.859  1.00  0.00     0.010 A 
HETATM    5  C5  UNL     1      24.549   3.715  49.729  1.00  0.00    -0.024 A 
HETATM    6  C8  UNL     1      24.588   2.824  50.753  1.00  0.00     0.041 A 
HETATM    7  C9  UNL     1      23.648   1.824  51.026  1.00  0.00     0.066 A 
ENDROOT
BRANCH   7   8
HETATM    8  N2  UNL     1      23.879   0.959  52.094  1.00  0.00    -0.227 N 
HETATM    9  C10 UNL     1      23.008   0.550  53.113  1.00  0.00     0.229 A 
HETATM   10  N3  UNL     1      23.311  -0.220  54.097  1.00  0.00    -0.277 NA
HETATM   11  C11 UNL     1      24.657  -0.763  54.243  1.00  0.00     0.212 A 
HETATM   12  C12 UNL     1      25.547  -0.317  53.157  1.00  0.00     0.086 A 
HETATM   13  N5  UNL     1      25.178   0.454  52.205  1.00  0.00    -0.168 NA
BRANCH  12  14
HETATM   14  C13 UNL     1      26.905  -0.822  53.233  1.00  0.00     0.009 A 
HETATM   15  C14 UNL     1      28.010  -0.075  53.581  1.00  0.00     0.016 A 
HETATM   16  C15 UNL     1      29.311  -0.513  53.664  1.00  0.00     0.020 A 
HETATM   17  C16 UNL     1      29.507  -1.865  53.357  1.00  0.00     0.116 A 
HETATM   18  N4  UNL     1      28.473  -2.652  53.010  1.00  0.00    -0.272 NA
HETATM   19  C17 UNL     1      27.250  -2.150  52.954  1.00  0.00     0.129 A 
ENDBRANCH  12  14
ENDBRANCH   7   8
BRANCH   5  20
HETATM   20  C6  UNL     1      25.583   4.746  49.503  1.00  0.00     0.246 C 
HETATM   21  C7  UNL     1      25.215   6.080  50.105  1.00  0.00     0.047 C 
BRANCH  20  22
HETATM   22  N1  UNL     1      26.821   4.294  50.123  1.00  0.00     0.086 N 
HETATM   23  H10 UNL     1      26.837   4.677  51.092  1.00  0.00     0.313 HD
HETATM   24  H11 UNL     1      27.666   4.558  49.577  1.00  0.00     0.313 HD
ENDBRANCH  20  22
ENDBRANCH   5  20
TORSDOF 4
ENDMDL
MODEL 6
REMARK VINA RESULT:      -8.1      3.280      6.994
REMARK  4 active torsions:
REMARK  status: ('A' for Active; 'I' for Inactive)
REMARK    1  A    between atoms: C5_5  and  C6_6 
REMARK    2  A    between atoms: C6_6  and  N1_8 
REMARK    3  A    between atoms: C9_10  and  N2_11 
REMARK    4  A    between atoms: C12_15  and  C13_16 
ROOT
HETATM    1  C1  UNL     1      22.127   1.718  48.775  1.00  0.00     0.050 C 
HETATM    2  C2  UNL     1      22.747   2.903  49.398  1.00  0.00    -0.033 A 
HETATM    3  C3  UNL     1      22.781   4.041  48.626  1.00  0.00     0.010 A 
HETATM    4  C4  UNL     1      23.297   5.213  49.104  1.00  0.00     0.010 A 
HETATM    5  C5  UNL     1      23.782   5.228  50.376  1.00  0.00    -0.024 A 
HETATM    6  C8  UNL     1      23.729   4.083  51.105  1.00  0.00     0.041 A 
HETATM    7  C9  UNL     1      23.220   2.850  50.687  1.00  0.00     0.066 A 
ENDROOT
BRANCH   7   8
HETATM    8  N2  UNL     1      23.298   1.762  51.555  1.00  0.00    -0.227 N 
HETATM    9  C10 UNL     1      22.273   0.951  52.061  1.00  0.00     0.229 A 
HETATM   10  N3  UNL     1      22.422  -0.012  52.900  1.00  0.00    -0.277 NA
HETATM   11  C11 UNL     1      23.739  -0.362  53.422  1.00  0.00     0.212 A 
HETATM   12  C12 UNL     1      24.793   0.506  52.870  1.00  0.00     0.086 A 
HETATM   13  N5  UNL     1      24.575   1.451  52.035  1.00  0.00    -0.168 NA
BRANCH  12  14
HETATM   14  C13 UNL     1      26.135   0.216  53.341  1.00  0.00     0.009 A 
HETATM   15  C14 UNL     1      27.033  -0.616  52.709  1.00  0.00     0.016 A 
HETATM   16  C15 UNL     1      28.311  -0.918  53.121  1.00  0.00     0.020 A 
HETATM   17  C16 UNL     1      28.716  -0.302  54.312  1.00  0.00     0.116 A 
HETATM   18  N4  UNL     1      27.889   0.522  54.980  1.00  0.00    -0.272 NA
HETATM   19  C17 UNL     1      26.674   0.760  54.514  1.00  0.00     0.129 A 
ENDBRANCH  12  14
ENDBRANCH   7   8
BRANCH   5  20
HETATM   20  C6  UNL     1      24.338   6.499  50.886  1.00  0.00     0.246 C 
HETATM   21  C7  UNL     1      23.530   7.699  50.460  1.00  0.00     0.047 C 
BRANCH  20  22
HETATM   22  N1  UNL     1      24.337   6.444  52.342  1.00  0.00     0.086 N 
HETATM   23  H10 UNL     1      23.481   5.924  52.629  1.00  0.00     0.313 HD
HETATM   24  H11 UNL     1      24.397   7.386  52.780  1.00  0.00     0.313 HD
ENDBRANCH  20  22
ENDBRANCH   5  20
TORSDOF 4
ENDMDL
MODEL 7
REMARK VINA RESULT:      -8.0      3.698      6.380
REMARK  4 active torsions:
REMARK  status: ('A' for Active; 'I' for Inactive)
REMARK    1  A    between atoms: C5_5  and  C6_6 
REMARK    2  A    between atoms: C6_6  and  N1_8 
REMARK    3  A    between atoms: C9_10  and  N2_11 
REMARK    4  A    between atoms: C12_15  and  C13_16 
ROOT
HETATM    1  C1  UNL     1      20.551   1.638  52.856  1.00  0.00     0.050 C 
HETATM    2  C2  UNL     1      21.922   1.113  53.000  1.00  0.00    -0.033 A 
HETATM    3  C3  UNL     1      22.030  -0.151  53.532  1.00  0.00     0.010 A 
HETATM    4  C4  UNL     1      23.245  -0.761  53.682  1.00  0.00     0.010 A 
HETATM    5  C5  UNL     1      24.356  -0.082  53.289  1.00  0.00    -0.024 A 
HETATM    6  C8  UNL     1      24.206   1.164  52.769  1.00  0.00     0.041 A 
HETATM    7  C9  UNL     1      23.002   1.853  52.586  1.00  0.00     0.066 A 
ENDROOT
BRANCH   7   8
HETATM    8  N2  UNL     1      23.043   3.153  52.086  1.00  0.00    -0.227 N 
HETATM    9  C10 UNL     1      22.101   4.184  52.207  1.00  0.00     0.229 A 
HETATM   10  N3  UNL     1      22.191   5.351  51.675  1.00  0.00    -0.277 NA
HETATM   11  C11 UNL     1      23.342   5.721  50.858  1.00  0.00     0.212 A 
HETATM   12  C12 UNL     1      24.314   4.619  50.752  1.00  0.00     0.086 A 
HETATM   13  N5  UNL     1      24.161   3.478  51.310  1.00  0.00    -0.168 NA
BRANCH  12  14
HETATM   14  C13 UNL     1      25.491   4.915  49.957  1.00  0.00     0.009 A 
HETATM   15  C14 UNL     1      25.774   6.137  49.385  1.00  0.00     0.016 A 
HETATM   16  C15 UNL     1      26.876   6.458  48.626  1.00  0.00     0.020 A 
HETATM   17  C16 UNL     1      27.790   5.416  48.428  1.00  0.00     0.116 A 
HETATM   18  N4  UNL     1      27.575   4.198  48.958  1.00  0.00    -0.272 NA
HETATM   19  C17 UNL     1      26.489   3.973  49.677  1.00  0.00     0.129 A 
ENDBRANCH  12  14
ENDBRANCH   7   8
BRANCH   5  20
HETATM   20  C6  UNL     1      25.665  -0.747  53.455  1.00  0.00     0.246 C 
HETATM   21  C7  UNL     1      26.714  -0.208  52.514  1.00  0.00     0.047 C 
BRANCH  20  22
HETATM   22  N1  UNL     1      26.121  -0.522  54.820  1.00  0.00     0.086 N 
HETATM   23  H10 UNL     1      25.405   0.072  55.289  1.00  0.00     0.313 HD
HETATM   24  H11 UNL     1      27.074  -0.107  54.863  1.00  0.00     0.313 HD
ENDBRANCH  20  22
ENDBRANCH   5  20
TORSDOF 4
ENDMDL
MODEL 8
REMARK VINA RESULT:      -8.0      2.300      7.217
REMARK  4 active torsions:
REMARK  status: ('A' for Active; 'I' for Inactive)
REMARK    1  A    between atoms: C5_5  and  C6_6 
REMARK    2  A    between atoms: C6_6  and  N1_8 
REMARK    3  A    between atoms: C9_10  and  N2_11 
REMARK    4  A    between atoms: C12_15  and  C13_16 
ROOT
HETATM    1  C1  UNL     1      25.424   3.606  49.580  1.00  0.00     0.050 C 
HETATM    2  C2  UNL     1      24.154   2.873  49.740  1.00  0.00    -0.033 A 
HETATM    3  C3  UNL     1      23.277   2.951  48.683  1.00  0.00     0.010 A 
HETATM    4  C4  UNL     1      22.082   2.286  48.696  1.00  0.00     0.010 A 
HETATM    5  C5  UNL     1      21.777   1.538  49.791  1.00  0.00    -0.024 A 
HETATM    6  C8  UNL     1      22.670   1.488  50.814  1.00  0.00     0.041 A 
HETATM    7  C9  UNL     1      23.907   2.139  50.874  1.00  0.00     0.066 A 
ENDROOT
BRANCH   7   8
HETATM    8  N2  UNL     1      24.672   2.017  52.033  1.00  0.00    -0.227 N 
HETATM    9  C10 UNL     1      24.724   2.853  53.157  1.00  0.00     0.229 A 
HETATM   10  N3  UNL     1      25.496   2.697  54.174  1.00  0.00    -0.277 NA
HETATM   11  C11 UNL     1      26.430   1.578  54.248  1.00  0.00     0.212 A 
HETATM   12  C12 UNL     1      26.349   0.720  53.054  1.00  0.00     0.086 A 
HETATM   13  N5  UNL     1      25.556   0.934  52.074  1.00  0.00    -0.168 NA
BRANCH  12  14
HETATM   14  C13 UNL     1      27.249  -0.419  53.058  1.00  0.00     0.009 A 
HETATM   15  C14 UNL     1      28.572  -0.383  53.440  1.00  0.00     0.016 A 
HETATM   16  C15 UNL     1      29.457  -1.437  53.457  1.00  0.00     0.020 A 
HETATM   17  C16 UNL     1      28.931  -2.665  53.038  1.00  0.00     0.116 A 
HETATM   18  N4  UNL     1      27.647  -2.772  52.652  1.00  0.00    -0.272 NA
HETATM   19  C17 UNL     1      26.862  -1.707  52.665  1.00  0.00     0.129 A 
ENDBRANCH  12  14
ENDBRANCH   7   8
BRANCH   5  20
HETATM   20  C6  UNL     1      20.484   0.823  49.799  1.00  0.00     0.246 C 
HETATM   21  C7  UNL     1      19.937   0.627  51.191  1.00  0.00     0.047 C 
BRANCH  20  22
HETATM   22  N1  UNL     1      19.523   1.612  49.040  1.00  0.00     0.086 N 
HETATM   23  H10 UNL     1      18.614   1.562  49.548  1.00  0.00     0.313 HD
HETATM   24  H11 UNL     1      19.443   1.306  48.049  1.00  0.00     0.313 HD
ENDBRANCH  20  22
ENDBRANCH   5  20
TORSDOF 4
ENDMDL
MODEL 9
REMARK VINA RESULT:      -7.9      5.037      7.923
REMARK  4 active torsions:
REMARK  status: ('A' for Active; 'I' for Inactive)
REMARK    1  A    between atoms: C5_5  and  C6_6 
REMARK    2  A    between atoms: C6_6  and  N1_8 
REMARK    3  A    between atoms: C9_10  and  N2_11 
REMARK    4  A    between atoms: C12_15  and  C13_16 
ROOT
HETATM    1  C1  UNL     1      24.027   6.141  49.113  1.00  0.00     0.050 C 
HETATM    2  C2  UNL     1      25.468   5.965  48.854  1.00  0.00    -0.033 A 
HETATM    3  C3  UNL     1      26.077   6.968  48.136  1.00  0.00     0.010 A 
HETATM    4  C4  UNL     1      27.417   6.939  47.862  1.00  0.00     0.010 A 
HETATM    5  C5  UNL     1      28.141   5.882  48.321  1.00  0.00    -0.024 A 
HETATM    6  C8  UNL     1      27.502   4.912  49.025  1.00  0.00     0.041 A 
HETATM    7  C9  UNL     1      26.140   4.872  49.344  1.00  0.00     0.066 A 
ENDROOT
BRANCH   7   8
HETATM    8  N2  UNL     1      25.645   3.765  50.031  1.00  0.00    -0.227 N 
HETATM    9  C10 UNL     1      24.357   3.212  50.017  1.00  0.00     0.229 A 
HETATM   10  N3  UNL     1      23.962   2.210  50.719  1.00  0.00    -0.277 NA
HETATM   11  C11 UNL     1      24.869   1.526  51.636  1.00  0.00     0.212 A 
HETATM   12  C12 UNL     1      26.212   2.129  51.625  1.00  0.00     0.086 A 
HETATM   13  N5  UNL     1      26.539   3.131  50.899  1.00  0.00    -0.168 NA
BRANCH  12  14
HETATM   14  C13 UNL     1      27.173   1.499  52.512  1.00  0.00     0.009 A 
HETATM   15  C14 UNL     1      28.112   2.168  53.266  1.00  0.00     0.016 A 
HETATM   16  C15 UNL     1      29.040   1.609  54.116  1.00  0.00     0.020 A 
HETATM   17  C16 UNL     1      29.003   0.212  54.206  1.00  0.00     0.116 A 
HETATM   18  N4  UNL     1      28.111  -0.503  53.497  1.00  0.00    -0.272 NA
HETATM   19  C17 UNL     1      27.253   0.113  52.701  1.00  0.00     0.129 A 
ENDBRANCH  12  14
ENDBRANCH   7   8
BRANCH   5  20
HETATM   20  C6  UNL     1      29.588   5.857  48.021  1.00  0.00     0.246 C 
HETATM   21  C7  UNL     1      30.006   6.961  47.082  1.00  0.00     0.047 C 
BRANCH  20  22
HETATM   22  N1  UNL     1      30.315   6.025  49.271  1.00  0.00     0.086 N 
HETATM   23  H10 UNL     1      31.135   5.383  49.239  1.00  0.00     0.313 HD
HETATM   24  H11 UNL     1      29.719   5.868  50.109  1.00  0.00     0.313 HD
ENDBRANCH  20  22
ENDBRANCH   5  20
TORSDOF 4
ENDMDL
