MODEL 1
REMARK VINA RESULT:      -7.0      0.000      0.000
REMARK  6 active torsions:
REMARK  status: ('A' for Active; 'I' for Inactive)
REMARK    1  A    between atoms: C2_2  and  C3_4 
REMARK    2  A    between atoms: C3_4  and  C4_5 
REMARK    3  A    between atoms: C8_10  and  C9_11 
REMARK    4  A    between atoms: C14_17  and  O3_18 
REMARK    5  A    between atoms: C15_19  and  O4_20 
REMARK    6  A    between atoms: O4_20  and  C16_21 
ROOT
HETATM    1  C4  UNL     1      22.863   2.634  49.199  1.00  0.00    -0.046 C 
HETATM    2  C5  UNL     1      23.894   3.386  48.839  1.00  0.00    -0.019 C 
HETATM    3  C6  UNL     1      24.947   4.220  49.448  1.00  0.00     0.054 C 
HETATM    4  C7  UNL     1      24.738   4.608  50.865  1.00  0.00     0.172 C 
HETATM    5  O2  UNL     1      23.818   4.040  51.610  1.00  0.00    -0.382 OA
HETATM    6  C8  UNL     1      23.423   2.771  51.651  1.00  0.00     0.161 C 
HETATM    7  C15 UNL     1      22.433   2.393  50.572  1.00  0.00     0.181 C 
ENDROOT
BRANCH   6   8
HETATM    8  C9  UNL     1      24.376   1.706  52.058  1.00  0.00     0.050 C 
HETATM    9  C10 UNL     1      24.008   0.877  53.256  1.00  0.00     0.040 C 
HETATM   10  C11 UNL     1      25.164  -0.033  53.576  1.00  0.00     0.272 C 
HETATM   11  N1  UNL     1      26.088  -0.196  52.479  1.00  0.00     0.086 N 
HETATM   12  C12 UNL     1      26.963  -1.308  52.621  1.00  0.00     0.310 C 
HETATM   13  C13 UNL     1      26.752   1.046  52.141  1.00  0.00     0.303 C 
HETATM   14  C14 UNL     1      25.799   2.217  52.336  1.00  0.00     0.153 C 
BRANCH  14  15
HETATM   15  O3  UNL     1      25.859   2.544  53.686  1.00  0.00    -0.393 OA
HETATM   16  H23 UNL     1      26.301   1.873  54.234  1.00  0.00     0.210 HD
ENDBRANCH  14  15
ENDBRANCH   6   8
BRANCH   7  17
HETATM   17  O4  UNL     1      21.190   2.967  50.758  1.00  0.00    -0.364 OA
BRANCH  17  18
HETATM   18  C16 UNL     1      20.473   2.565  51.849  1.00  0.00     0.191 C 
HETATM   19  C17 UNL     1      19.110   3.212  51.678  1.00  0.00     0.022 C 
HETATM   20  C18 UNL     1      18.549   2.973  50.506  1.00  0.00    -0.027 C 
HETATM   21  C19 UNL     1      18.685   1.764  49.993  1.00  0.00     0.013 C 
HETATM   22  C20 UNL     1      19.311   0.717  50.830  1.00  0.00     0.023 C 
HETATM   23  C21 UNL     1      20.202   1.111  51.757  1.00  0.00     0.044 C 
HETATM   24 CL1  UNL     1      20.811  -0.304  52.636  1.00  0.00    -0.086 Cl
ENDBRANCH  17  18
ENDBRANCH   7  17
BRANCH   1  25
HETATM   25  C3  UNL     1      22.011   1.928  48.203  1.00  0.00     0.114 C 
BRANCH  25  26
HETATM   26  C2  UNL     1      21.485   2.959  47.261  1.00  0.00     0.127 C 
HETATM   27  C1  UNL     1      20.324   3.870  47.378  1.00  0.00     0.091 C 
HETATM   28  O1  UNL     1      22.053   3.154  46.175  1.00  0.00    -0.298 OA
ENDBRANCH  25  26
ENDBRANCH   1  25
TORSDOF 6
ENDMDL
MODEL 2
REMARK VINA RESULT:      -6.9      2.683      6.299
REMARK  6 active torsions:
REMARK  status: ('A' for Active; 'I' for Inactive)
REMARK    1  A    between atoms: C2_2  and  C3_4 
REMARK    2  A    between atoms: C3_4  and  C4_5 
REMARK    3  A    between atoms: C8_10  and  C9_11 
REMARK    4  A    between atoms: C14_17  and  O3_18 
REMARK    5  A    between atoms: C15_19  and  O4_20 
REMARK    6  A    between atoms: O4_20  and  C16_21 
ROOT
HETATM    1  C4  UNL     1      22.097   0.823  52.211  1.00  0.00    -0.046 C 
HETATM    2  C5  UNL     1      20.821   1.115  52.423  1.00  0.00    -0.019 C 
HETATM    3  C6  UNL     1      19.919   2.282  52.435  1.00  0.00     0.054 C 
HETATM    4  C7  UNL     1      20.571   3.613  52.484  1.00  0.00     0.172 C 
HETATM    5  O2  UNL     1      21.859   3.763  52.268  1.00  0.00    -0.382 OA
HETATM    6  C8  UNL     1      22.652   3.142  51.400  1.00  0.00     0.161 C 
HETATM    7  C15 UNL     1      23.136   1.785  51.859  1.00  0.00     0.181 C 
ENDROOT
BRANCH   6   8
HETATM    8  C9  UNL     1      22.415   3.285  49.939  1.00  0.00     0.050 C 
HETATM    9  C10 UNL     1      22.991   2.226  49.044  1.00  0.00     0.040 C 
HETATM   10  C11 UNL     1      22.761   2.638  47.614  1.00  0.00     0.272 C 
HETATM   11  N1  UNL     1      21.733   3.640  47.463  1.00  0.00     0.086 N 
HETATM   12  C12 UNL     1      21.247   3.776  46.132  1.00  0.00     0.310 C 
HETATM   13  C13 UNL     1      22.101   4.892  48.093  1.00  0.00     0.303 C 
HETATM   14  C14 UNL     1      22.904   4.623  49.359  1.00  0.00     0.153 C 
BRANCH  14  15
HETATM   15  O3  UNL     1      24.219   4.433  48.949  1.00  0.00    -0.393 OA
HETATM   16  H23 UNL     1      24.583   5.178  48.440  1.00  0.00     0.210 HD
ENDBRANCH  14  15
ENDBRANCH   6   8
BRANCH   7  17
HETATM   17  O4  UNL     1      24.044   1.862  52.899  1.00  0.00    -0.364 OA
BRANCH  17  18
HETATM   18  C16 UNL     1      25.200   2.552  52.667  1.00  0.00     0.191 C 
HETATM   19  C17 UNL     1      26.041   2.329  53.912  1.00  0.00     0.022 C 
HETATM   20  C18 UNL     1      26.189   1.056  54.234  1.00  0.00    -0.027 C 
HETATM   21  C19 UNL     1      26.363   0.189  53.254  1.00  0.00     0.013 C 
HETATM   22  C20 UNL     1      26.543   0.713  51.882  1.00  0.00     0.023 C 
HETATM   23  C21 UNL     1      25.965   1.891  51.585  1.00  0.00     0.044 C 
HETATM   24 CL1  UNL     1      26.318   2.318  49.900  1.00  0.00    -0.086 Cl
ENDBRANCH  17  18
ENDBRANCH   7  17
BRANCH   1  25
HETATM   25  C3  UNL     1      22.619  -0.568  52.310  1.00  0.00     0.114 C 
BRANCH  25  26
HETATM   26  C2  UNL     1      22.372  -1.036  53.705  1.00  0.00     0.127 C 
HETATM   27  C1  UNL     1      21.204  -1.724  54.299  1.00  0.00     0.091 C 
HETATM   28  O1  UNL     1      23.236  -0.862  54.579  1.00  0.00    -0.298 OA
ENDBRANCH  25  26
ENDBRANCH   1  25
TORSDOF 6
ENDMDL
MODEL 3
REMARK VINA RESULT:      -6.7      7.387      9.286
REMARK  6 active torsions:
REMARK  status: ('A' for Active; 'I' for Inactive)
REMARK    1  A    between atoms: C2_2  and  C3_4 
REMARK    2  A    between atoms: C3_4  and  C4_5 
REMARK    3  A    between atoms: C8_10  and  C9_11 
REMARK    4  A    between atoms: C14_17  and  O3_18 
REMARK    5  A    between atoms: C15_19  and  O4_20 
REMARK    6  A    between atoms: O4_20  and  C16_21 
ROOT
HETATM    1  C4  UNL     1      29.131   8.820  46.320  1.00  0.00    -0.046 C 
HETATM    2  C5  UNL     1      30.107   9.615  45.905  1.00  0.00    -0.019 C 
HETATM    3  C6  UNL     1      31.379  10.184  46.387  1.00  0.00     0.054 C 
HETATM    4  C7  UNL     1      31.614  10.118  47.850  1.00  0.00     0.172 C 
HETATM    5  O2  UNL     1      30.870   9.374  48.638  1.00  0.00    -0.382 OA
HETATM    6  C8  UNL     1      30.351   8.168  48.425  1.00  0.00     0.161 C 
HETATM    7  C15 UNL     1      29.066   8.176  47.628  1.00  0.00     0.181 C 
ENDROOT
BRANCH   6   8
HETATM    8  C9  UNL     1      31.243   7.000  48.205  1.00  0.00     0.050 C 
HETATM    9  C10 UNL     1      30.604   5.731  47.717  1.00  0.00     0.040 C 
HETATM   10  C11 UNL     1      31.652   4.649  47.701  1.00  0.00     0.272 C 
HETATM   11  N1  UNL     1      33.002   5.157  47.724  1.00  0.00     0.086 N 
HETATM   12  C12 UNL     1      33.986   4.202  47.346  1.00  0.00     0.310 C 
HETATM   13  C13 UNL     1      33.296   5.857  48.958  1.00  0.00     0.303 C 
HETATM   14  C14 UNL     1      32.058   6.597  49.446  1.00  0.00     0.153 C 
BRANCH  14  15
HETATM   15  O3  UNL     1      31.300   5.665  50.146  1.00  0.00    -0.393 OA
HETATM   16  H23 UNL     1      30.409   5.530  49.782  1.00  0.00     0.210 HD
ENDBRANCH  14  15
ENDBRANCH   6   8
BRANCH   7  17
HETATM   17  O4  UNL     1      28.000   8.703  48.332  1.00  0.00    -0.364 OA
BRANCH  17  18
HETATM   18  C16 UNL     1      27.473   7.936  49.333  1.00  0.00     0.191 C 
HETATM   19  C17 UNL     1      26.345   8.773  49.910  1.00  0.00     0.022 C 
HETATM   20  C18 UNL     1      25.484   9.203  49.006  1.00  0.00    -0.027 C 
HETATM   21  C19 UNL     1      25.152   8.379  48.030  1.00  0.00     0.013 C 
HETATM   22  C20 UNL     1      25.636   6.983  48.100  1.00  0.00     0.023 C 
HETATM   23  C21 UNL     1      26.792   6.757  48.749  1.00  0.00     0.044 C 
HETATM   24 CL1  UNL     1      27.167   5.024  48.710  1.00  0.00    -0.086 Cl
ENDBRANCH  17  18
ENDBRANCH   7  17
BRANCH   1  25
HETATM   25  C3  UNL     1      27.960   8.487  45.463  1.00  0.00     0.114 C 
BRANCH  25  26
HETATM   26  C2  UNL     1      27.351   9.777  45.025  1.00  0.00     0.127 C 
HETATM   27  C1  UNL     1      26.727  10.865  45.812  1.00  0.00     0.091 C 
HETATM   28  O1  UNL     1      27.318  10.071  43.820  1.00  0.00    -0.298 OA
ENDBRANCH  25  26
ENDBRANCH   1  25
TORSDOF 6
ENDMDL
MODEL 4
REMARK VINA RESULT:      -6.7      2.749      5.903
REMARK  6 active torsions:
REMARK  status: ('A' for Active; 'I' for Inactive)
REMARK    1  A    between atoms: C2_2  and  C3_4 
REMARK    2  A    between atoms: C3_4  and  C4_5 
REMARK    3  A    between atoms: C8_10  and  C9_11 
REMARK    4  A    between atoms: C14_17  and  O3_18 
REMARK    5  A    between atoms: C15_19  and  O4_20 
REMARK    6  A    between atoms: O4_20  and  C16_21 
ROOT
HETATM    1  C4  UNL     1      23.563   3.174  49.966  1.00  0.00    -0.046 C 
HETATM    2  C5  UNL     1      23.397   3.065  48.655  1.00  0.00    -0.019 C 
HETATM    3  C6  UNL     1      22.583   2.314  47.681  1.00  0.00     0.054 C 
HETATM    4  C7  UNL     1      21.883   1.114  48.200  1.00  0.00     0.172 C 
HETATM    5  O2  UNL     1      21.776   0.876  49.488  1.00  0.00    -0.382 OA
HETATM    6  C8  UNL     1      21.574   1.723  50.493  1.00  0.00     0.161 C 
HETATM    7  C15 UNL     1      22.822   2.425  50.976  1.00  0.00     0.181 C 
ENDROOT
BRANCH   6   8
HETATM    8  C9  UNL     1      20.317   2.514  50.561  1.00  0.00     0.050 C 
HETATM    9  C10 UNL     1      20.439   4.006  50.438  1.00  0.00     0.040 C 
HETATM   10  C11 UNL     1      19.081   4.613  50.674  1.00  0.00     0.272 C 
HETATM   11  N1  UNL     1      17.997   3.671  50.528  1.00  0.00     0.086 N 
HETATM   12  C12 UNL     1      16.719   4.279  50.384  1.00  0.00     0.310 C 
HETATM   13  C13 UNL     1      18.050   2.625  51.527  1.00  0.00     0.303 C 
HETATM   14  C14 UNL     1      19.499   2.274  51.840  1.00  0.00     0.153 C 
BRANCH  14  15
HETATM   15  O3  UNL     1      19.928   3.204  52.779  1.00  0.00    -0.393 OA
HETATM   16  H23 UNL     1      20.064   2.831  53.668  1.00  0.00     0.210 HD
ENDBRANCH  14  15
ENDBRANCH   6   8
BRANCH   7  17
HETATM   17  O4  UNL     1      23.695   1.580  51.634  1.00  0.00    -0.364 OA
BRANCH  17  18
HETATM   18  C16 UNL     1      23.870   1.783  52.973  1.00  0.00     0.191 C 
HETATM   19  C17 UNL     1      22.961   0.767  53.642  1.00  0.00     0.022 C 
HETATM   20  C18 UNL     1      23.148  -0.472  53.223  1.00  0.00    -0.027 C 
HETATM   21  C19 UNL     1      24.387  -0.865  52.994  1.00  0.00     0.013 C 
HETATM   22  C20 UNL     1      25.489   0.046  53.375  1.00  0.00     0.023 C 
HETATM   23  C21 UNL     1      25.236   1.367  53.366  1.00  0.00     0.044 C 
HETATM   24 CL1  UNL     1      26.691   2.254  53.857  1.00  0.00    -0.086 Cl
ENDBRANCH  17  18
ENDBRANCH   7  17
BRANCH   1  25
HETATM   25  C3  UNL     1      24.556   4.109  50.564  1.00  0.00     0.114 C 
BRANCH  25  26
HETATM   26  C2  UNL     1      25.892   3.756  50.002  1.00  0.00     0.127 C 
HETATM   27  C1  UNL     1      26.772   4.495  49.069  1.00  0.00     0.091 C 
HETATM   28  O1  UNL     1      26.432   2.683  50.314  1.00  0.00    -0.298 OA
ENDBRANCH  25  26
ENDBRANCH   1  25
TORSDOF 6
ENDMDL
MODEL 5
REMARK VINA RESULT:      -6.6      1.917      2.563
REMARK  6 active torsions:
REMARK  status: ('A' for Active; 'I' for Inactive)
REMARK    1  A    between atoms: C2_2  and  C3_4 
REMARK    2  A    between atoms: C3_4  and  C4_5 
REMARK    3  A    between atoms: C8_10  and  C9_11 
REMARK    4  A    between atoms: C14_17  and  O3_18 
REMARK    5  A    between atoms: C15_19  and  O4_20 
REMARK    6  A    between atoms: O4_20  and  C16_21 
ROOT
HETATM    1  C4  UNL     1      22.858   2.844  50.015  1.00  0.00    -0.046 C 
HETATM    2  C5  UNL     1      23.160   4.125  49.859  1.00  0.00    -0.019 C 
HETATM    3  C6  UNL     1      23.529   5.302  50.667  1.00  0.00     0.054 C 
HETATM    4  C7  UNL     1      23.271   5.203  52.125  1.00  0.00     0.172 C 
HETATM    5  O2  UNL     1      22.980   4.058  52.701  1.00  0.00    -0.382 OA
HETATM    6  C8  UNL     1      23.460   2.841  52.461  1.00  0.00     0.161 C 
HETATM    7  C15 UNL     1      22.811   2.137  51.291  1.00  0.00     0.181 C 
ENDROOT
BRANCH   6   8
HETATM    8  C9  UNL     1      24.903   2.554  52.672  1.00  0.00     0.050 C 
HETATM    9  C10 UNL     1      25.768   2.449  51.449  1.00  0.00     0.040 C 
HETATM   10  C11 UNL     1      27.145   2.015  51.878  1.00  0.00     0.272 C 
HETATM   11  N1  UNL     1      27.401   2.225  53.283  1.00  0.00     0.086 N 
HETATM   12  C12 UNL     1      28.779   2.172  53.634  1.00  0.00     0.310 C 
HETATM   13  C13 UNL     1      26.543   1.409  54.118  1.00  0.00     0.303 C 
HETATM   14  C14 UNL     1      25.170   1.269  53.474  1.00  0.00     0.153 C 
BRANCH  14  15
HETATM   15  O3  UNL     1      25.277   0.230  52.556  1.00  0.00    -0.393 OA
HETATM   16  H23 UNL     1      24.711   0.339  51.772  1.00  0.00     0.210 HD
ENDBRANCH  14  15
ENDBRANCH   6   8
BRANCH   7  17
HETATM   17  O4  UNL     1      21.506   1.761  51.546  1.00  0.00    -0.364 OA
BRANCH  17  18
HETATM   18  C16 UNL     1      21.149   0.484  51.218  1.00  0.00     0.191 C 
HETATM   19  C17 UNL     1      21.828  -0.388  52.259  1.00  0.00     0.022 C 
HETATM   20  C18 UNL     1      21.576  -0.026  53.504  1.00  0.00    -0.027 C 
HETATM   21  C19 UNL     1      20.352   0.375  53.793  1.00  0.00     0.013 C 
HETATM   22  C20 UNL     1      19.309   0.239  52.752  1.00  0.00     0.023 C 
HETATM   23  C21 UNL     1      19.702   0.292  51.467  1.00  0.00     0.044 C 
HETATM   24 CL1  UNL     1      18.293   0.103  50.407  1.00  0.00    -0.086 Cl
ENDBRANCH  17  18
ENDBRANCH   7  17
BRANCH   1  25
HETATM   25  C3  UNL     1      22.527   1.960  48.863  1.00  0.00     0.114 C 
BRANCH  25  26
HETATM   26  C2  UNL     1      21.445   2.633  48.086  1.00  0.00     0.127 C 
HETATM   27  C1  UNL     1      21.501   3.409  46.827  1.00  0.00     0.091 C 
HETATM   28  O1  UNL     1      20.272   2.585  48.488  1.00  0.00    -0.298 OA
ENDBRANCH  25  26
ENDBRANCH   1  25
TORSDOF 6
ENDMDL
MODEL 6
REMARK VINA RESULT:      -6.6     10.402     13.223
REMARK  6 active torsions:
REMARK  status: ('A' for Active; 'I' for Inactive)
REMARK    1  A    between atoms: C2_2  and  C3_4 
REMARK    2  A    between atoms: C3_4  and  C4_5 
REMARK    3  A    between atoms: C8_10  and  C9_11 
REMARK    4  A    between atoms: C14_17  and  O3_18 
REMARK    5  A    between atoms: C15_19  and  O4_20 
REMARK    6  A    between atoms: O4_20  and  C16_21 
ROOT
HETATM    1  C4  UNL     1      33.678   6.412  47.793  1.00  0.00    -0.046 C 
HETATM    2  C5  UNL     1      34.427   5.342  48.019  1.00  0.00    -0.019 C 
HETATM    3  C6  UNL     1      34.655   3.991  47.473  1.00  0.00     0.054 C 
HETATM    4  C7  UNL     1      33.615   3.473  46.550  1.00  0.00     0.172 C 
HETATM    5  O2  UNL     1      32.687   4.254  46.043  1.00  0.00    -0.382 OA
HETATM    6  C8  UNL     1      32.774   5.512  45.622  1.00  0.00     0.161 C 
HETATM    7  C15 UNL     1      32.694   6.544  46.724  1.00  0.00     0.181 C 
ENDROOT
BRANCH   6   8
HETATM    8  C9  UNL     1      33.655   5.855  44.475  1.00  0.00     0.050 C 
HETATM    9  C10 UNL     1      33.985   7.307  44.273  1.00  0.00     0.040 C 
HETATM   10  C11 UNL     1      34.759   7.443  42.989  1.00  0.00     0.272 C 
HETATM   11  N1  UNL     1      35.338   6.202  42.532  1.00  0.00     0.086 N 
HETATM   12  C12 UNL     1      36.355   6.364  41.551  1.00  0.00     0.310 C 
HETATM   13  C13 UNL     1      34.324   5.227  42.184  1.00  0.00     0.303 C 
HETATM   14  C14 UNL     1      33.127   5.363  43.117  1.00  0.00     0.153 C 
BRANCH  14  15
HETATM   15  O3  UNL     1      32.340   6.381  42.591  1.00  0.00    -0.393 OA
HETATM   16  H23 UNL     1      32.277   7.165  43.164  1.00  0.00     0.210 HD
ENDBRANCH  14  15
ENDBRANCH   6   8
BRANCH   7  17
HETATM   17  O4  UNL     1      31.434   6.636  47.285  1.00  0.00    -0.364 OA
BRANCH  17  18
HETATM   18  C16 UNL     1      30.468   7.262  46.549  1.00  0.00     0.191 C 
HETATM   19  C17 UNL     1      29.227   7.219  47.423  1.00  0.00     0.022 C 
HETATM   20  C18 UNL     1      29.415   7.693  48.641  1.00  0.00    -0.027 C 
HETATM   21  C19 UNL     1      30.181   8.759  48.775  1.00  0.00     0.013 C 
HETATM   22  C20 UNL     1      30.642   9.447  47.549  1.00  0.00     0.023 C 
HETATM   23  C21 UNL     1      30.786   8.705  46.437  1.00  0.00     0.044 C 
HETATM   24 CL1  UNL     1      31.339   9.734  45.103  1.00  0.00    -0.086 Cl
ENDBRANCH  17  18
ENDBRANCH   7  17
BRANCH   1  25
HETATM   25  C3  UNL     1      33.770   7.636  48.637  1.00  0.00     0.114 C 
BRANCH  25  26
HETATM   26  C2  UNL     1      34.666   8.596  47.928  1.00  0.00     0.127 C 
HETATM   27  C1  UNL     1      34.347   9.774  47.091  1.00  0.00     0.091 C 
HETATM   28  O1  UNL     1      35.898   8.461  47.998  1.00  0.00    -0.298 OA
ENDBRANCH  25  26
ENDBRANCH   1  25
TORSDOF 6
ENDMDL
MODEL 7
REMARK VINA RESULT:      -6.5      8.850     10.878
REMARK  6 active torsions:
REMARK  status: ('A' for Active; 'I' for Inactive)
REMARK    1  A    between atoms: C2_2  and  C3_4 
REMARK    2  A    between atoms: C3_4  and  C4_5 
REMARK    3  A    between atoms: C8_10  and  C9_11 
REMARK    4  A    between atoms: C14_17  and  O3_18 
REMARK    5  A    between atoms: C15_19  and  O4_20 
REMARK    6  A    between atoms: O4_20  and  C16_21 
ROOT
HETATM    1  C4  UNL     1      31.153   8.819  45.710  1.00  0.00    -0.046 C 
HETATM    2  C5  UNL     1      32.256   9.413  45.279  1.00  0.00    -0.019 C 
HETATM    3  C6  UNL     1      33.638   9.681  45.720  1.00  0.00     0.054 C 
HETATM    4  C7  UNL     1      33.911   9.496  47.166  1.00  0.00     0.172 C 
HETATM    5  O2  UNL     1      33.060   8.884  47.959  1.00  0.00    -0.382 OA
HETATM    6  C8  UNL     1      32.292   7.824  47.724  1.00  0.00     0.161 C 
HETATM    7  C15 UNL     1      31.006   8.138  46.993  1.00  0.00     0.181 C 
ENDROOT
BRANCH   6   8
HETATM    8  C9  UNL     1      32.910   6.509  47.414  1.00  0.00     0.050 C 
HETATM    9  C10 UNL     1      32.077   5.525  46.644  1.00  0.00     0.040 C 
HETATM   10  C11 UNL     1      32.833   4.224  46.565  1.00  0.00     0.272 C 
HETATM   11  N1  UNL     1      34.244   4.362  46.835  1.00  0.00     0.086 N 
HETATM   12  C12 UNL     1      35.024   3.249  46.417  1.00  0.00     0.310 C 
HETATM   13  C13 UNL     1      34.495   4.788  48.197  1.00  0.00     0.303 C 
HETATM   14  C14 UNL     1      33.403   5.745  48.654  1.00  0.00     0.153 C 
BRANCH  14  15
HETATM   15  O3  UNL     1      32.349   4.951  49.090  1.00  0.00    -0.393 OA
HETATM   16  H23 UNL     1      32.141   4.212  48.492  1.00  0.00     0.210 HD
ENDBRANCH  14  15
ENDBRANCH   6   8
BRANCH   7  17
HETATM   17  O4  UNL     1      30.103   8.840  47.769  1.00  0.00    -0.364 OA
BRANCH  17  18
HETATM   18  C16 UNL     1      29.509   8.164  48.797  1.00  0.00     0.191 C 
HETATM   19  C17 UNL     1      28.523   9.154  49.393  1.00  0.00     0.022 C 
HETATM   20  C18 UNL     1      27.700   9.687  48.508  1.00  0.00    -0.027 C 
HETATM   21  C19 UNL     1      27.230   8.903  47.555  1.00  0.00     0.013 C 
HETATM   22  C20 UNL     1      27.522   7.454  47.635  1.00  0.00     0.023 C 
HETATM   23  C21 UNL     1      28.656   7.082  48.254  1.00  0.00     0.044 C 
HETATM   24 CL1  UNL     1      28.791   5.313  48.233  1.00  0.00    -0.086 Cl
ENDBRANCH  17  18
ENDBRANCH   7  17
BRANCH   1  25
HETATM   25  C3  UNL     1      29.905   8.778  44.899  1.00  0.00     0.114 C 
BRANCH  25  26
HETATM   26  C2  UNL     1      29.549  10.189  44.564  1.00  0.00     0.127 C 
HETATM   27  C1  UNL     1      29.163  11.319  45.438  1.00  0.00     0.091 C 
HETATM   28  O1  UNL     1      29.551  10.565  43.381  1.00  0.00    -0.298 OA
ENDBRANCH  25  26
ENDBRANCH   1  25
TORSDOF 6
ENDMDL
MODEL 8
REMARK VINA RESULT:      -6.4      3.078      4.530
REMARK  6 active torsions:
REMARK  status: ('A' for Active; 'I' for Inactive)
REMARK    1  A    between atoms: C2_2  and  C3_4 
REMARK    2  A    between atoms: C3_4  and  C4_5 
REMARK    3  A    between atoms: C8_10  and  C9_11 
REMARK    4  A    between atoms: C14_17  and  O3_18 
REMARK    5  A    between atoms: C15_19  and  O4_20 
REMARK    6  A    between atoms: O4_20  and  C16_21 
ROOT
HETATM    1  C4  UNL     1      20.665   4.552  48.712  1.00  0.00    -0.046 C 
HETATM    2  C5  UNL     1      20.172   5.659  48.177  1.00  0.00    -0.019 C 
HETATM    3  C6  UNL     1      20.077   7.103  48.461  1.00  0.00     0.054 C 
HETATM    4  C7  UNL     1      20.365   7.516  49.856  1.00  0.00     0.172 C 
HETATM    5  O2  UNL     1      20.921   6.697  50.721  1.00  0.00    -0.382 OA
HETATM    6  C8  UNL     1      21.878   5.792  50.538  1.00  0.00     0.161 C 
HETATM    7  C15 UNL     1      21.390   4.476  49.976  1.00  0.00     0.181 C 
ENDROOT
BRANCH   6   8
HETATM    8  C9  UNL     1      23.235   6.218  50.106  1.00  0.00     0.050 C 
HETATM    9  C10 UNL     1      24.312   5.171  50.095  1.00  0.00     0.040 C 
HETATM   10  C11 UNL     1      25.621   5.841  49.769  1.00  0.00     0.272 C 
HETATM   11  N1  UNL     1      25.466   7.138  49.156  1.00  0.00     0.086 N 
HETATM   12  C12 UNL     1      26.641   7.620  48.517  1.00  0.00     0.310 C 
HETATM   13  C13 UNL     1      24.842   8.090  50.053  1.00  0.00     0.303 C 
HETATM   14  C14 UNL     1      23.809   7.387  50.924  1.00  0.00     0.153 C 
BRANCH  14  15
HETATM   15  O3  UNL     1      24.513   6.833  51.988  1.00  0.00    -0.393 OA
HETATM   16  H23 UNL     1      24.630   7.440  52.739  1.00  0.00     0.210 HD
ENDBRANCH  14  15
ENDBRANCH   6   8
BRANCH   7  17
HETATM   17  O4  UNL     1      20.637   3.751  50.881  1.00  0.00    -0.364 OA
BRANCH  17  18
HETATM   18  C16 UNL     1      21.312   3.099  51.873  1.00  0.00     0.191 C 
HETATM   19  C17 UNL     1      20.237   2.364  52.655  1.00  0.00     0.022 C 
HETATM   20  C18 UNL     1      19.453   1.610  51.904  1.00  0.00    -0.027 C 
HETATM   21  C19 UNL     1      20.010   0.939  50.913  1.00  0.00     0.013 C 
HETATM   22  C20 UNL     1      21.486   0.945  50.808  1.00  0.00     0.023 C 
HETATM   23  C21 UNL     1      22.139   2.019  51.285  1.00  0.00     0.044 C 
HETATM   24 CL1  UNL     1      23.884   1.804  51.057  1.00  0.00    -0.086 Cl
ENDBRANCH  17  18
ENDBRANCH   7  17
BRANCH   1  25
HETATM   25  C3  UNL     1      20.529   3.223  48.053  1.00  0.00     0.114 C 
BRANCH  25  26
HETATM   26  C2  UNL     1      21.724   3.037  47.180  1.00  0.00     0.127 C 
HETATM   27  C1  UNL     1      22.039   3.594  45.845  1.00  0.00     0.091 C 
HETATM   28  O1  UNL     1      22.660   2.314  47.556  1.00  0.00    -0.298 OA
ENDBRANCH  25  26
ENDBRANCH   1  25
TORSDOF 6
ENDMDL
MODEL 9
REMARK VINA RESULT:      -6.3      2.313      3.716
REMARK  6 active torsions:
REMARK  status: ('A' for Active; 'I' for Inactive)
REMARK    1  A    between atoms: C2_2  and  C3_4 
REMARK    2  A    between atoms: C3_4  and  C4_5 
REMARK    3  A    between atoms: C8_10  and  C9_11 
REMARK    4  A    between atoms: C14_17  and  O3_18 
REMARK    5  A    between atoms: C15_19  and  O4_20 
REMARK    6  A    between atoms: O4_20  and  C16_21 
ROOT
HETATM    1  C4  UNL     1      23.994   4.736  50.029  1.00  0.00    -0.046 C 
HETATM    2  C5  UNL     1      23.977   5.396  51.178  1.00  0.00    -0.019 C 
HETATM    3  C6  UNL     1      23.497   5.234  52.563  1.00  0.00     0.054 C 
HETATM    4  C7  UNL     1      22.501   4.158  52.790  1.00  0.00     0.172 C 
HETATM    5  O2  UNL     1      22.255   3.240  51.883  1.00  0.00    -0.382 OA
HETATM    6  C8  UNL     1      23.090   2.621  51.053  1.00  0.00     0.161 C 
HETATM    7  C15 UNL     1      23.428   3.409  49.809  1.00  0.00     0.181 C 
ENDROOT
BRANCH   6   8
HETATM    8  C9  UNL     1      24.176   1.762  51.593  1.00  0.00     0.050 C 
HETATM    9  C10 UNL     1      23.972   1.176  52.960  1.00  0.00     0.040 C 
HETATM   10  C11 UNL     1      25.238   0.468  53.366  1.00  0.00     0.272 C 
HETATM   11  N1  UNL     1      26.107   0.163  52.255  1.00  0.00     0.086 N 
HETATM   12  C12 UNL     1      27.107  -0.805  52.551  1.00  0.00     0.310 C 
HETATM   13  C13 UNL     1      26.611   1.362  51.617  1.00  0.00     0.303 C 
HETATM   14  C14 UNL     1      25.548   2.453  51.644  1.00  0.00     0.153 C 
BRANCH  14  15
HETATM   15  O3  UNL     1      25.652   3.063  52.889  1.00  0.00    -0.393 OA
HETATM   16  H23 UNL     1      25.938   2.463  53.598  1.00  0.00     0.210 HD
ENDBRANCH  14  15
ENDBRANCH   6   8
BRANCH   7  17
HETATM   17  O4  UNL     1      22.364   3.518  48.934  1.00  0.00    -0.364 OA
BRANCH  17  18
HETATM   18  C16 UNL     1      22.344   2.665  47.867  1.00  0.00     0.191 C 
HETATM   19  C17 UNL     1      21.512   1.482  48.331  1.00  0.00     0.022 C 
HETATM   20  C18 UNL     1      20.330   1.819  48.816  1.00  0.00    -0.027 C 
HETATM   21  C19 UNL     1      19.671   2.790  48.212  1.00  0.00     0.013 C 
HETATM   22  C20 UNL     1      20.218   3.322  46.945  1.00  0.00     0.023 C 
HETATM   23  C21 UNL     1      21.550   3.262  46.768  1.00  0.00     0.044 C 
HETATM   24 CL1  UNL     1      21.972   3.948  45.188  1.00  0.00    -0.086 Cl
ENDBRANCH  17  18
ENDBRANCH   7  17
BRANCH   1  25
HETATM   25  C3  UNL     1      24.620   5.299  48.800  1.00  0.00     0.114 C 
BRANCH  25  26
HETATM   26  C2  UNL     1      26.088   5.392  49.054  1.00  0.00     0.127 C 
HETATM   27  C1  UNL     1      27.130   4.342  49.078  1.00  0.00     0.091 C 
HETATM   28  O1  UNL     1      26.607   6.494  49.292  1.00  0.00    -0.298 OA
ENDBRANCH  25  26
ENDBRANCH   1  25
TORSDOF 6
ENDMDL
