MODEL 1
REMARK VINA RESULT:      -9.4      0.000      0.000
REMARK  5 active torsions:
REMARK  status: ('A' for Active; 'I' for Inactive)
REMARK    1  A    between atoms: O1_2  and  C2_3 
REMARK    2  A    between atoms: C6_9  and  N3_10 
REMARK    3  A    between atoms: N3_10  and  C8_12 
REMARK    4  A    between atoms: C11_15  and  N4_16 
REMARK       I    between atoms: N4_16  and  C12_17 
REMARK       I    between atoms: C12_17  and  N5_19 
REMARK    5  A    between atoms: C23_31  and  O3_32 
ROOT
HETATM    1  C8  UNL     1      23.941   3.821  51.000  1.00  0.00     0.018 A 
HETATM    2  C9  UNL     1      24.340   3.262  49.853  1.00  0.00     0.027 A 
HETATM    3  C10 UNL     1      25.357   4.088  49.215  1.00  0.00     0.027 A 
HETATM    4  C11 UNL     1      25.550   5.139  49.999  1.00  0.00     0.019 A 
HETATM    5  C20 UNL     1      24.693   5.087  51.193  1.00  0.00     0.114 A 
ENDROOT
BRANCH   1   6
HETATM    6  N3  UNL     1      22.952   3.262  51.870  1.00  0.00    -0.339 N 
HETATM    7  C7  UNL     1      21.851   4.119  52.283  1.00  0.00     0.158 C 
BRANCH   6   8
HETATM    8  C6  UNL     1      23.057   1.918  52.304  1.00  0.00     0.143 A 
HETATM    9  N2  UNL     1      21.992   1.125  52.019  1.00  0.00    -0.223 NA
HETATM   10  C5  UNL     1      21.975  -0.173  52.382  1.00  0.00     0.236 A 
HETATM   11  N1  UNL     1      23.007  -0.730  53.037  1.00  0.00    -0.241 NA
HETATM   12  C4  UNL     1      24.092   0.009  53.347  1.00  0.00     0.075 A 
HETATM   13  C3  UNL     1      25.198  -0.477  54.017  1.00  0.00     0.072 A 
HETATM   14  C21 UNL     1      24.113   1.339  52.978  1.00  0.00     0.042 A 
HETATM   15  C2  UNL     1      26.257   0.359  54.288  1.00  0.00     0.103 A 
HETATM   16  C23 UNL     1      26.290   1.691  53.924  1.00  0.00     0.102 A 
HETATM   17  C22 UNL     1      25.177   2.170  53.251  1.00  0.00     0.057 A 
BRANCH  15  18
HETATM   18  O1  UNL     1      27.358  -0.144  54.961  1.00  0.00    -0.353 OA
HETATM   19  C1  UNL     1      28.463  -0.718  54.276  1.00  0.00     0.210 C 
ENDBRANCH  15  18
BRANCH  16  20
HETATM   20  O3  UNL     1      27.382   2.462  54.227  1.00  0.00    -0.353 OA
HETATM   21  C24 UNL     1      28.475   2.575  53.335  1.00  0.00     0.210 C 
ENDBRANCH  16  20
ENDBRANCH   6   8
ENDBRANCH   1   6
BRANCH   4  22
HETATM   22  N4  UNL     1      26.498   6.134  49.632  1.00  0.00    -0.312 N 
HETATM   23  C12 UNL     1      26.344   7.559  49.673  1.00  0.00     0.325 C 
HETATM   24  O2  UNL     1      25.366   8.244  50.032  1.00  0.00    -0.247 OA
HETATM   25  N5  UNL     1      27.428   8.384  49.257  1.00  0.00    -0.299 N 
HETATM   26  C13 UNL     1      27.052   9.790  49.383  1.00  0.00     0.158 C 
HETATM   27  C19 UNL     1      28.734   7.978  48.773  1.00  0.00     0.283 C 
HETATM   28  C14 UNL     1      28.025  10.656  48.643  1.00  0.00    -0.004 C 
HETATM   29  C15 UNL     1      29.306  10.309  48.560  1.00  0.00    -0.078 C 
HETATM   30  C16 UNL     1      30.284  11.169  47.823  1.00  0.00     0.043 C 
HETATM   31  C17 UNL     1      29.725   9.039  49.223  1.00  0.00     0.064 C 
HETATM   32  C18 UNL     1      31.100   8.601  48.776  1.00  0.00     0.019 C 
HETATM   33  F1  UNL     1      28.680   7.975  47.400  1.00  0.00    -0.226 F 
HETATM   34  H11 UNL     1      27.433   5.767  49.286  1.00  0.00     0.170 HD
ENDBRANCH   4  22
TORSDOF 5
ENDMDL
MODEL 2
REMARK VINA RESULT:      -9.3      1.351      1.804
REMARK  5 active torsions:
REMARK  status: ('A' for Active; 'I' for Inactive)
REMARK    1  A    between atoms: O1_2  and  C2_3 
REMARK    2  A    between atoms: C6_9  and  N3_10 
REMARK    3  A    between atoms: N3_10  and  C8_12 
REMARK    4  A    between atoms: C11_15  and  N4_16 
REMARK       I    between atoms: N4_16  and  C12_17 
REMARK       I    between atoms: C12_17  and  N5_19 
REMARK    5  A    between atoms: C23_31  and  O3_32 
ROOT
HETATM    1  C8  UNL     1      23.844   3.744  50.957  1.00  0.00     0.018 A 
HETATM    2  C9  UNL     1      24.058   3.176  49.766  1.00  0.00     0.027 A 
HETATM    3  C10 UNL     1      25.027   3.953  49.003  1.00  0.00     0.027 A 
HETATM    4  C11 UNL     1      25.379   4.983  49.758  1.00  0.00     0.019 A 
HETATM    5  C20 UNL     1      24.683   4.964  51.054  1.00  0.00     0.114 A 
ENDROOT
BRANCH   1   6
HETATM    6  N3  UNL     1      22.947   3.230  51.947  1.00  0.00    -0.339 N 
HETATM    7  C7  UNL     1      21.933   4.130  52.475  1.00  0.00     0.158 C 
BRANCH   6   8
HETATM    8  C6  UNL     1      23.058   1.889  52.387  1.00  0.00     0.143 A 
HETATM    9  N2  UNL     1      21.982   1.098  52.136  1.00  0.00    -0.223 NA
HETATM   10  C5  UNL     1      21.969  -0.197  52.507  1.00  0.00     0.236 A 
HETATM   11  N1  UNL     1      23.017  -0.754  53.138  1.00  0.00    -0.241 NA
HETATM   12  C4  UNL     1      24.113  -0.018  53.414  1.00  0.00     0.075 A 
HETATM   13  C3  UNL     1      25.234  -0.506  54.057  1.00  0.00     0.072 A 
HETATM   14  C21 UNL     1      24.130   1.309  53.036  1.00  0.00     0.042 A 
HETATM   15  C2  UNL     1      26.304   0.327  54.293  1.00  0.00     0.103 A 
HETATM   16  C23 UNL     1      26.333   1.657  53.920  1.00  0.00     0.102 A 
HETATM   17  C22 UNL     1      25.204   2.137  53.274  1.00  0.00     0.057 A 
BRANCH  15  18
HETATM   18  O1  UNL     1      27.420  -0.176  54.940  1.00  0.00    -0.353 OA
HETATM   19  C1  UNL     1      28.514  -0.738  54.227  1.00  0.00     0.210 C 
ENDBRANCH  15  18
BRANCH  16  20
HETATM   20  O3  UNL     1      27.436   2.426  54.189  1.00  0.00    -0.353 OA
HETATM   21  C24 UNL     1      28.491   2.551  53.255  1.00  0.00     0.210 C 
ENDBRANCH  16  20
ENDBRANCH   6   8
ENDBRANCH   1   6
BRANCH   4  22
HETATM   22  N4  UNL     1      26.324   5.929  49.274  1.00  0.00    -0.312 N 
HETATM   23  C12 UNL     1      27.617   5.677  48.709  1.00  0.00     0.325 C 
HETATM   24  O2  UNL     1      28.202   4.593  48.512  1.00  0.00    -0.247 OA
HETATM   25  N5  UNL     1      28.413   6.778  48.283  1.00  0.00    -0.299 N 
HETATM   26  C13 UNL     1      29.679   6.291  47.743  1.00  0.00     0.158 C 
HETATM   27  C19 UNL     1      28.094   8.193  48.339  1.00  0.00     0.283 C 
HETATM   28  C14 UNL     1      30.656   7.419  47.610  1.00  0.00    -0.004 C 
HETATM   29  C15 UNL     1      30.232   8.646  47.322  1.00  0.00    -0.078 C 
HETATM   30  C16 UNL     1      31.201   9.777  47.187  1.00  0.00     0.043 C 
HETATM   31  C17 UNL     1      28.764   8.847  47.141  1.00  0.00     0.064 C 
HETATM   32  C18 UNL     1      28.394  10.313  47.153  1.00  0.00     0.019 C 
HETATM   33  F1  UNL     1      28.656   8.695  49.489  1.00  0.00    -0.226 F 
HETATM   34  H11 UNL     1      26.027   6.947  49.346  1.00  0.00     0.170 HD
ENDBRANCH   4  22
TORSDOF 5
ENDMDL
MODEL 3
REMARK VINA RESULT:      -9.3      1.849      2.697
REMARK  5 active torsions:
REMARK  status: ('A' for Active; 'I' for Inactive)
REMARK    1  A    between atoms: O1_2  and  C2_3 
REMARK    2  A    between atoms: C6_9  and  N3_10 
REMARK    3  A    between atoms: N3_10  and  C8_12 
REMARK    4  A    between atoms: C11_15  and  N4_16 
REMARK       I    between atoms: N4_16  and  C12_17 
REMARK       I    between atoms: C12_17  and  N5_19 
REMARK    5  A    between atoms: C23_31  and  O3_32 
ROOT
HETATM    1  C8  UNL     1      22.571   2.635  51.520  1.00  0.00     0.018 A 
HETATM    2  C9  UNL     1      22.404   3.723  52.280  1.00  0.00     0.027 A 
HETATM    3  C10 UNL     1      23.252   4.808  51.802  1.00  0.00     0.027 A 
HETATM    4  C11 UNL     1      23.919   4.346  50.754  1.00  0.00     0.019 A 
HETATM    5  C20 UNL     1      23.568   2.947  50.465  1.00  0.00     0.114 A 
ENDROOT
BRANCH   1   6
HETATM    6  N3  UNL     1      21.885   1.396  51.722  1.00  0.00    -0.339 N 
HETATM    7  C7  UNL     1      20.845   1.034  50.771  1.00  0.00     0.158 C 
BRANCH   6   8
HETATM    8  C6  UNL     1      22.219   0.564  52.818  1.00  0.00     0.143 A 
HETATM    9  N2  UNL     1      21.166   0.089  53.535  1.00  0.00    -0.223 NA
HETATM   10  C5  UNL     1      21.357  -0.713  54.601  1.00  0.00     0.236 A 
HETATM   11  N1  UNL     1      22.590  -1.074  54.994  1.00  0.00    -0.241 NA
HETATM   12  C4  UNL     1      23.672  -0.634  54.320  1.00  0.00     0.075 A 
HETATM   13  C3  UNL     1      24.975  -0.952  54.651  1.00  0.00     0.072 A 
HETATM   14  C21 UNL     1      23.482   0.189  53.228  1.00  0.00     0.042 A 
HETATM   15  C2  UNL     1      26.014  -0.451  53.900  1.00  0.00     0.103 A 
HETATM   16  C23 UNL     1      25.836   0.373  52.805  1.00  0.00     0.102 A 
HETATM   17  C22 UNL     1      24.525   0.686  52.480  1.00  0.00     0.057 A 
BRANCH  15  18
HETATM   18  O1  UNL     1      27.315  -0.779  54.244  1.00  0.00    -0.353 OA
HETATM   19  C1  UNL     1      28.111   0.063  55.067  1.00  0.00     0.210 C 
ENDBRANCH  15  18
BRANCH  16  20
HETATM   20  O3  UNL     1      26.921   0.833  52.104  1.00  0.00    -0.353 OA
HETATM   21  C24 UNL     1      27.364   2.170  52.228  1.00  0.00     0.210 C 
ENDBRANCH  16  20
ENDBRANCH   6   8
ENDBRANCH   1   6
BRANCH   4  22
HETATM   22  N4  UNL     1      24.836   5.189  50.067  1.00  0.00    -0.312 N 
HETATM   23  C12 UNL     1      26.102   4.836  49.495  1.00  0.00     0.325 C 
HETATM   24  O2  UNL     1      26.682   3.732  49.464  1.00  0.00    -0.247 OA
HETATM   25  N5  UNL     1      26.872   5.842  48.845  1.00  0.00    -0.299 N 
HETATM   26  C13 UNL     1      28.114   5.263  48.339  1.00  0.00     0.158 C 
HETATM   27  C19 UNL     1      26.550   7.246  48.665  1.00  0.00     0.283 C 
HETATM   28  C14 UNL     1      29.078   6.346  47.964  1.00  0.00    -0.004 C 
HETATM   29  C15 UNL     1      28.635   7.504  47.485  1.00  0.00    -0.078 C 
HETATM   30  C16 UNL     1      29.591   8.591  47.107  1.00  0.00     0.043 C 
HETATM   31  C17 UNL     1      27.160   7.676  47.341  1.00  0.00     0.064 C 
HETATM   32  C18 UNL     1      26.784   9.122  47.112  1.00  0.00     0.019 C 
HETATM   33  F1  UNL     1      27.163   7.941  49.681  1.00  0.00    -0.226 F 
HETATM   34  H11 UNL     1      24.538   6.205  49.973  1.00  0.00     0.170 HD
ENDBRANCH   4  22
TORSDOF 5
ENDMDL
MODEL 4
REMARK VINA RESULT:      -9.3      3.629      5.110
REMARK  5 active torsions:
REMARK  status: ('A' for Active; 'I' for Inactive)
REMARK    1  A    between atoms: O1_2  and  C2_3 
REMARK    2  A    between atoms: C6_9  and  N3_10 
REMARK    3  A    between atoms: N3_10  and  C8_12 
REMARK    4  A    between atoms: C11_15  and  N4_16 
REMARK       I    between atoms: N4_16  and  C12_17 
REMARK       I    between atoms: C12_17  and  N5_19 
REMARK    5  A    between atoms: C23_31  and  O3_32 
ROOT
HETATM    1  C8  UNL     1      25.750   5.893  49.206  1.00  0.00     0.018 A 
HETATM    2  C9  UNL     1      26.187   6.994  48.587  1.00  0.00     0.027 A 
HETATM    3  C10 UNL     1      27.543   6.791  48.092  1.00  0.00     0.027 A 
HETATM    4  C11 UNL     1      27.897   5.559  48.427  1.00  0.00     0.019 A 
HETATM    5  C20 UNL     1      26.822   4.867  49.154  1.00  0.00     0.114 A 
ENDROOT
BRANCH   1   6
HETATM    6  N3  UNL     1      24.457   5.763  49.805  1.00  0.00    -0.339 N 
HETATM    7  C7  UNL     1      23.994   6.848  50.657  1.00  0.00     0.158 C 
BRANCH   6   8
HETATM    8  C6  UNL     1      23.670   4.610  49.567  1.00  0.00     0.143 A 
HETATM    9  N2  UNL     1      22.955   4.617  48.411  1.00  0.00    -0.223 NA
HETATM   10  C5  UNL     1      22.168   3.576  48.075  1.00  0.00     0.236 A 
HETATM   11  N1  UNL     1      22.061   2.496  48.866  1.00  0.00    -0.241 NA
HETATM   12  C4  UNL     1      22.747   2.433  50.025  1.00  0.00     0.075 A 
HETATM   13  C3  UNL     1      22.698   1.364  50.900  1.00  0.00     0.072 A 
HETATM   14  C21 UNL     1      23.554   3.497  50.374  1.00  0.00     0.042 A 
HETATM   15  C2  UNL     1      23.437   1.396  52.061  1.00  0.00     0.103 A 
HETATM   16  C23 UNL     1      24.248   2.454  52.421  1.00  0.00     0.102 A 
HETATM   17  C22 UNL     1      24.291   3.522  51.537  1.00  0.00     0.057 A 
BRANCH  15  18
HETATM   18  O1  UNL     1      23.377   0.317  52.927  1.00  0.00    -0.353 OA
HETATM   19  C1  UNL     1      22.274  -0.579  52.940  1.00  0.00     0.210 C 
ENDBRANCH  15  18
BRANCH  16  20
HETATM   20  O3  UNL     1      24.956   2.414  53.594  1.00  0.00    -0.353 OA
HETATM   21  C24 UNL     1      26.321   2.045  53.618  1.00  0.00     0.210 C 
ENDBRANCH  16  20
ENDBRANCH   6   8
ENDBRANCH   1   6
BRANCH   4  22
HETATM   22  N4  UNL     1      29.185   5.068  48.074  1.00  0.00    -0.312 N 
HETATM   23  C12 UNL     1      30.457   5.696  48.280  1.00  0.00     0.325 C 
HETATM   24  O2  UNL     1      30.727   6.794  48.806  1.00  0.00    -0.247 OA
HETATM   25  N5  UNL     1      31.637   5.027  47.846  1.00  0.00    -0.299 N 
HETATM   26  C13 UNL     1      32.808   5.843  48.156  1.00  0.00     0.158 C 
HETATM   27  C19 UNL     1      31.751   3.737  47.192  1.00  0.00     0.283 C 
HETATM   28  C14 UNL     1      34.008   5.335  47.417  1.00  0.00    -0.004 C 
HETATM   29  C15 UNL     1      34.142   4.035  47.169  1.00  0.00    -0.078 C 
HETATM   30  C16 UNL     1      35.337   3.518  46.432  1.00  0.00     0.043 C 
HETATM   31  C17 UNL     1      33.064   3.122  47.648  1.00  0.00     0.064 C 
HETATM   32  C18 UNL     1      33.170   1.751  47.021  1.00  0.00     0.019 C 
HETATM   33  F1  UNL     1      31.817   3.967  45.838  1.00  0.00    -0.226 F 
HETATM   34  H11 UNL     1      29.195   4.118  47.597  1.00  0.00     0.170 HD
ENDBRANCH   4  22
TORSDOF 5
ENDMDL
MODEL 5
REMARK VINA RESULT:      -9.3      2.852      4.868
REMARK  5 active torsions:
REMARK  status: ('A' for Active; 'I' for Inactive)
REMARK    1  A    between atoms: O1_2  and  C2_3 
REMARK    2  A    between atoms: C6_9  and  N3_10 
REMARK    3  A    between atoms: N3_10  and  C8_12 
REMARK    4  A    between atoms: C11_15  and  N4_16 
REMARK       I    between atoms: N4_16  and  C12_17 
REMARK       I    between atoms: C12_17  and  N5_19 
REMARK    5  A    between atoms: C23_31  and  O3_32 
ROOT
HETATM    1  C8  UNL     1      26.348   0.511  52.611  1.00  0.00     0.018 A 
HETATM    2  C9  UNL     1      27.290   1.195  53.270  1.00  0.00     0.027 A 
HETATM    3  C10 UNL     1      27.519   2.485  52.630  1.00  0.00     0.027 A 
HETATM    4  C11 UNL     1      26.703   2.550  51.588  1.00  0.00     0.019 A 
HETATM    5  C20 UNL     1      25.887   1.332  51.464  1.00  0.00     0.114 A 
ENDROOT
BRANCH   1   6
HETATM    6  N3  UNL     1      25.890  -0.792  52.981  1.00  0.00    -0.339 N 
HETATM    7  C7  UNL     1      26.537  -1.939  52.362  1.00  0.00     0.158 C 
BRANCH   6   8
HETATM    8  C6  UNL     1      24.839  -0.942  53.919  1.00  0.00     0.143 A 
HETATM    9  N2  UNL     1      25.217  -1.326  55.166  1.00  0.00    -0.223 NA
HETATM   10  C5  UNL     1      24.307  -1.502  56.145  1.00  0.00     0.236 A 
HETATM   11  N1  UNL     1      22.997  -1.306  55.925  1.00  0.00    -0.241 NA
HETATM   12  C4  UNL     1      22.563  -0.924  54.706  1.00  0.00     0.075 A 
HETATM   13  C3  UNL     1      21.237  -0.700  54.389  1.00  0.00     0.072 A 
HETATM   14  C21 UNL     1      23.491  -0.744  53.701  1.00  0.00     0.042 A 
HETATM   15  C2  UNL     1      20.894  -0.313  53.113  1.00  0.00     0.103 A 
HETATM   16  C23 UNL     1      21.813  -0.129  52.099  1.00  0.00     0.102 A 
HETATM   17  C22 UNL     1      23.141  -0.356  52.427  1.00  0.00     0.057 A 
BRANCH  15  18
HETATM   18  O1  UNL     1      19.561  -0.092  52.811  1.00  0.00    -0.353 OA
HETATM   19  C1  UNL     1      18.535  -0.982  53.232  1.00  0.00     0.210 C 
ENDBRANCH  15  18
BRANCH  16  20
HETATM   20  O3  UNL     1      21.397   0.259  50.852  1.00  0.00    -0.353 OA
HETATM   21  C24 UNL     1      21.933   1.405  50.220  1.00  0.00     0.210 C 
ENDBRANCH  16  20
ENDBRANCH   6   8
ENDBRANCH   1   6
BRANCH   4  22
HETATM   22  N4  UNL     1      26.699   3.707  50.760  1.00  0.00    -0.312 N 
HETATM   23  C12 UNL     1      25.577   4.345  50.139  1.00  0.00     0.325 C 
HETATM   24  O2  UNL     1      24.367   4.044  50.179  1.00  0.00    -0.247 OA
HETATM   25  N5  UNL     1      25.794   5.504  49.340  1.00  0.00    -0.299 N 
HETATM   26  C13 UNL     1      24.520   5.985  48.812  1.00  0.00     0.158 C 
HETATM   27  C19 UNL     1      27.049   6.171  49.045  1.00  0.00     0.283 C 
HETATM   28  C14 UNL     1      24.753   6.975  47.712  1.00  0.00    -0.004 C 
HETATM   29  C15 UNL     1      25.812   7.779  47.745  1.00  0.00    -0.078 C 
HETATM   30  C16 UNL     1      26.052   8.772  46.652  1.00  0.00     0.043 C 
HETATM   31  C17 UNL     1      26.743   7.653  48.905  1.00  0.00     0.064 C 
HETATM   32  C18 UNL     1      28.050   8.370  48.655  1.00  0.00     0.019 C 
HETATM   33  F1  UNL     1      27.493   5.694  47.835  1.00  0.00    -0.226 F 
HETATM   34  H11 UNL     1      27.652   4.144  50.584  1.00  0.00     0.170 HD
ENDBRANCH   4  22
TORSDOF 5
ENDMDL
MODEL 6
REMARK VINA RESULT:      -9.3      3.606      9.388
REMARK  5 active torsions:
REMARK  status: ('A' for Active; 'I' for Inactive)
REMARK    1  A    between atoms: O1_2  and  C2_3 
REMARK    2  A    between atoms: C6_9  and  N3_10 
REMARK    3  A    between atoms: N3_10  and  C8_12 
REMARK    4  A    between atoms: C11_15  and  N4_16 
REMARK       I    between atoms: N4_16  and  C12_17 
REMARK       I    between atoms: C12_17  and  N5_19 
REMARK    5  A    between atoms: C23_31  and  O3_32 
ROOT
HETATM    1  C8  UNL     1      27.272   6.942  47.924  1.00  0.00     0.018 A 
HETATM    2  C9  UNL     1      26.021   7.413  47.887  1.00  0.00     0.027 A 
HETATM    3  C10 UNL     1      25.122   6.517  48.604  1.00  0.00     0.027 A 
HETATM    4  C11 UNL     1      25.858   5.515  49.062  1.00  0.00     0.019 A 
HETATM    5  C20 UNL     1      27.273   5.670  48.690  1.00  0.00     0.114 A 
ENDROOT
BRANCH   1   6
HETATM    6  N3  UNL     1      28.395   7.586  47.315  1.00  0.00    -0.339 N 
HETATM    7  C7  UNL     1      28.332   7.847  45.884  1.00  0.00     0.158 C 
BRANCH   6   8
HETATM    8  C6  UNL     1      29.522   7.948  48.092  1.00  0.00     0.143 A 
HETATM    9  N2  UNL     1      29.417   9.125  48.762  1.00  0.00    -0.223 NA
HETATM   10  C5  UNL     1      30.425   9.577  49.536  1.00  0.00     0.236 A 
HETATM   11  N1  UNL     1      31.567   8.882  49.672  1.00  0.00    -0.241 NA
HETATM   12  C4  UNL     1      31.727   7.706  49.031  1.00  0.00     0.075 A 
HETATM   13  C3  UNL     1      32.864   6.925  49.113  1.00  0.00     0.072 A 
HETATM   14  C21 UNL     1      30.698   7.241  48.238  1.00  0.00     0.042 A 
HETATM   15  C2  UNL     1      32.931   5.739  48.418  1.00  0.00     0.103 A 
HETATM   16  C23 UNL     1      31.908   5.263  47.621  1.00  0.00     0.102 A 
HETATM   17  C22 UNL     1      30.771   6.052  47.546  1.00  0.00     0.057 A 
BRANCH  15  18
HETATM   18  O1  UNL     1      34.077   4.968  48.510  1.00  0.00    -0.353 OA
HETATM   19  C1  UNL     1      35.299   5.491  49.013  1.00  0.00     0.210 C 
ENDBRANCH  15  18
BRANCH  16  20
HETATM   20  O3  UNL     1      32.047   4.070  46.959  1.00  0.00    -0.353 OA
HETATM   21  C24 UNL     1      32.610   4.009  45.663  1.00  0.00     0.210 C 
ENDBRANCH  16  20
ENDBRANCH   6   8
ENDBRANCH   1   6
BRANCH   4  22
HETATM   22  N4  UNL     1      25.250   4.470  49.811  1.00  0.00    -0.312 N 
HETATM   23  C12 UNL     1      25.892   3.445  50.580  1.00  0.00     0.325 C 
HETATM   24  O2  UNL     1      27.106   3.234  50.769  1.00  0.00    -0.247 OA
HETATM   25  N5  UNL     1      25.089   2.485  51.261  1.00  0.00    -0.299 N 
HETATM   26  C13 UNL     1      25.947   1.544  51.976  1.00  0.00     0.158 C 
HETATM   27  C19 UNL     1      23.641   2.385  51.295  1.00  0.00     0.283 C 
HETATM   28  C14 UNL     1      25.158   0.346  52.408  1.00  0.00    -0.004 C 
HETATM   29  C15 UNL     1      23.875   0.469  52.738  1.00  0.00    -0.078 C 
HETATM   30  C16 UNL     1      23.080  -0.722  53.171  1.00  0.00     0.043 C 
HETATM   31  C17 UNL     1      23.266   1.829  52.659  1.00  0.00     0.064 C 
HETATM   32  C18 UNL     1      21.757   1.773  52.732  1.00  0.00     0.019 C 
HETATM   33  F1  UNL     1      23.270   1.479  50.330  1.00  0.00    -0.226 F 
HETATM   34  H11 UNL     1      24.187   4.455  49.792  1.00  0.00     0.170 HD
ENDBRANCH   4  22
TORSDOF 5
ENDMDL
MODEL 7
REMARK VINA RESULT:      -9.2      3.291      9.415
REMARK  5 active torsions:
REMARK  status: ('A' for Active; 'I' for Inactive)
REMARK    1  A    between atoms: O1_2  and  C2_3 
REMARK    2  A    between atoms: C6_9  and  N3_10 
REMARK    3  A    between atoms: N3_10  and  C8_12 
REMARK    4  A    between atoms: C11_15  and  N4_16 
REMARK       I    between atoms: N4_16  and  C12_17 
REMARK       I    between atoms: C12_17  and  N5_19 
REMARK    5  A    between atoms: C23_31  and  O3_32 
ROOT
HETATM    1  C8  UNL     1      26.791   7.347  48.817  1.00  0.00     0.018 A 
HETATM    2  C9  UNL     1      26.000   7.969  49.697  1.00  0.00     0.027 A 
HETATM    3  C10 UNL     1      25.274   6.993  50.501  1.00  0.00     0.027 A 
HETATM    4  C11 UNL     1      25.647   5.793  50.083  1.00  0.00     0.019 A 
HETATM    5  C20 UNL     1      26.630   5.882  48.993  1.00  0.00     0.114 A 
ENDROOT
BRANCH   1   6
HETATM    6  N3  UNL     1      27.638   8.017  47.879  1.00  0.00    -0.339 N 
HETATM    7  C7  UNL     1      27.228   8.027  46.483  1.00  0.00     0.158 C 
BRANCH   6   8
HETATM    8  C6  UNL     1      28.832   8.643  48.312  1.00  0.00     0.143 A 
HETATM    9  N2  UNL     1      28.748   9.982  48.524  1.00  0.00    -0.223 NA
HETATM   10  C5  UNL     1      29.819  10.689  48.938  1.00  0.00     0.236 A 
HETATM   11  N1  UNL     1      31.006  10.098  49.154  1.00  0.00    -0.241 NA
HETATM   12  C4  UNL     1      31.149   8.771  48.960  1.00  0.00     0.075 A 
HETATM   13  C3  UNL     1      32.329   8.080  49.158  1.00  0.00     0.072 A 
HETATM   14  C21 UNL     1      30.055   8.044  48.536  1.00  0.00     0.042 A 
HETATM   15  C2  UNL     1      32.373   6.723  48.931  1.00  0.00     0.103 A 
HETATM   16  C23 UNL     1      31.286   5.984  48.507  1.00  0.00     0.102 A 
HETATM   17  C22 UNL     1      30.106   6.686  48.312  1.00  0.00     0.057 A 
BRANCH  15  18
HETATM   18  O1  UNL     1      33.563   6.045  49.133  1.00  0.00    -0.353 OA
HETATM   19  C1  UNL     1      34.723   6.308  48.355  1.00  0.00     0.210 C 
ENDBRANCH  15  18
BRANCH  16  20
HETATM   20  O3  UNL     1      31.406   4.634  48.302  1.00  0.00    -0.353 OA
HETATM   21  C24 UNL     1      31.728   4.108  47.030  1.00  0.00     0.210 C 
ENDBRANCH  16  20
ENDBRANCH   6   8
ENDBRANCH   1   6
BRANCH   4  22
HETATM   22  N4  UNL     1      25.099   4.627  50.689  1.00  0.00    -0.312 N 
HETATM   23  C12 UNL     1      24.060   3.777  50.188  1.00  0.00     0.325 C 
HETATM   24  O2  UNL     1      23.407   3.857  49.129  1.00  0.00    -0.247 OA
HETATM   25  N5  UNL     1      23.655   2.650  50.960  1.00  0.00    -0.299 N 
HETATM   26  C13 UNL     1      22.592   1.931  50.263  1.00  0.00     0.158 C 
HETATM   27  C19 UNL     1      24.166   2.210  52.245  1.00  0.00     0.283 C 
HETATM   28  C14 UNL     1      21.924   0.963  51.190  1.00  0.00    -0.004 C 
HETATM   29  C15 UNL     1      22.621   0.363  52.151  1.00  0.00    -0.078 C 
HETATM   30  C16 UNL     1      21.962  -0.605  53.081  1.00  0.00     0.043 C 
HETATM   31  C17 UNL     1      24.072   0.693  52.265  1.00  0.00     0.064 C 
HETATM   32  C18 UNL     1      24.654   0.215  53.576  1.00  0.00     0.019 C 
HETATM   33  F1  UNL     1      23.334   2.719  53.213  1.00  0.00    -0.226 F 
HETATM   34  H11 UNL     1      25.518   4.363  51.629  1.00  0.00     0.170 HD
ENDBRANCH   4  22
TORSDOF 5
ENDMDL
MODEL 8
REMARK VINA RESULT:      -9.0      3.318      9.815
REMARK  5 active torsions:
REMARK  status: ('A' for Active; 'I' for Inactive)
REMARK    1  A    between atoms: O1_2  and  C2_3 
REMARK    2  A    between atoms: C6_9  and  N3_10 
REMARK    3  A    between atoms: N3_10  and  C8_12 
REMARK    4  A    between atoms: C11_15  and  N4_16 
REMARK       I    between atoms: N4_16  and  C12_17 
REMARK       I    between atoms: C12_17  and  N5_19 
REMARK    5  A    between atoms: C23_31  and  O3_32 
ROOT
HETATM    1  C8  UNL     1      26.364   6.183  49.276  1.00  0.00     0.018 A 
HETATM    2  C9  UNL     1      26.958   5.093  48.779  1.00  0.00     0.027 A 
HETATM    3  C10 UNL     1      26.343   3.889  49.324  1.00  0.00     0.027 A 
HETATM    4  C11 UNL     1      25.381   4.283  50.145  1.00  0.00     0.019 A 
HETATM    5  C20 UNL     1      25.289   5.750  50.204  1.00  0.00     0.114 A 
ENDROOT
BRANCH   1   6
HETATM    6  N3  UNL     1      26.731   7.525  48.944  1.00  0.00    -0.339 N 
HETATM    7  C7  UNL     1      26.586   8.542  49.974  1.00  0.00     0.158 C 
BRANCH   6   8
HETATM    8  C6  UNL     1      27.216   7.835  47.650  1.00  0.00     0.143 A 
HETATM    9  N2  UNL     1      26.269   8.157  46.730  1.00  0.00    -0.223 NA
HETATM   10  C5  UNL     1      26.608   8.471  45.464  1.00  0.00     0.236 A 
HETATM   11  N1  UNL     1      27.890   8.478  45.065  1.00  0.00    -0.241 NA
HETATM   12  C4  UNL     1      28.874   8.166  45.934  1.00  0.00     0.075 A 
HETATM   13  C3  UNL     1      30.217   8.147  45.612  1.00  0.00     0.072 A 
HETATM   14  C21 UNL     1      28.531   7.843  47.231  1.00  0.00     0.042 A 
HETATM   15  C2  UNL     1      31.146   7.815  46.572  1.00  0.00     0.103 A 
HETATM   16  C23 UNL     1      30.816   7.490  47.873  1.00  0.00     0.102 A 
HETATM   17  C22 UNL     1      29.466   7.513  48.187  1.00  0.00     0.057 A 
BRANCH  15  18
HETATM   18  O1  UNL     1      32.489   7.800  46.233  1.00  0.00    -0.353 OA
HETATM   19  C1  UNL     1      33.079   6.710  45.537  1.00  0.00     0.210 C 
ENDBRANCH  15  18
BRANCH  16  20
HETATM   20  O3  UNL     1      31.798   7.170  48.775  1.00  0.00    -0.353 OA
HETATM   21  C24 UNL     1      32.070   5.826  49.121  1.00  0.00     0.210 C 
ENDBRANCH  16  20
ENDBRANCH   6   8
ENDBRANCH   1   6
BRANCH   4  22
HETATM   22  N4  UNL     1      24.594   3.319  50.834  1.00  0.00    -0.312 N 
HETATM   23  C12 UNL     1      25.033   2.320  51.762  1.00  0.00     0.325 C 
HETATM   24  O2  UNL     1      26.182   2.068  52.177  1.00  0.00    -0.247 OA
HETATM   25  N5  UNL     1      24.072   1.444  52.343  1.00  0.00    -0.299 N 
HETATM   26  C13 UNL     1      24.738   0.515  53.253  1.00  0.00     0.158 C 
HETATM   27  C19 UNL     1      22.637   1.410  52.124  1.00  0.00     0.283 C 
HETATM   28  C14 UNL     1      23.820  -0.615  53.606  1.00  0.00    -0.004 C 
HETATM   29  C15 UNL     1      22.508  -0.413  53.694  1.00  0.00    -0.078 C 
HETATM   30  C16 UNL     1      21.585  -1.536  54.047  1.00  0.00     0.043 C 
HETATM   31  C17 UNL     1      21.999   0.964  53.430  1.00  0.00     0.064 C 
HETATM   32  C18 UNL     1      20.500   0.980  53.235  1.00  0.00     0.019 C 
HETATM   33  F1  UNL     1      22.391   0.459  51.163  1.00  0.00    -0.226 F 
HETATM   34  H11 UNL     1      23.552   3.350  50.626  1.00  0.00     0.170 HD
ENDBRANCH   4  22
TORSDOF 5
ENDMDL
MODEL 9
REMARK VINA RESULT:      -8.8      1.936      2.778
REMARK  5 active torsions:
REMARK  status: ('A' for Active; 'I' for Inactive)
REMARK    1  A    between atoms: O1_2  and  C2_3 
REMARK    2  A    between atoms: C6_9  and  N3_10 
REMARK    3  A    between atoms: N3_10  and  C8_12 
REMARK    4  A    between atoms: C11_15  and  N4_16 
REMARK       I    between atoms: N4_16  and  C12_17 
REMARK       I    between atoms: C12_17  and  N5_19 
REMARK    5  A    between atoms: C23_31  and  O3_32 
ROOT
HETATM    1  C8  UNL     1      23.802   5.094  49.881  1.00  0.00     0.018 A 
HETATM    2  C9  UNL     1      23.752   5.937  50.917  1.00  0.00     0.027 A 
HETATM    3  C10 UNL     1      24.894   6.843  50.888  1.00  0.00     0.027 A 
HETATM    4  C11 UNL     1      25.615   6.522  49.825  1.00  0.00     0.019 A 
HETATM    5  C20 UNL     1      25.016   5.402  49.083  1.00  0.00     0.114 A 
ENDROOT
BRANCH   1   6
HETATM    6  N3  UNL     1      22.830   4.078  49.618  1.00  0.00    -0.339 N 
HETATM    7  C7  UNL     1      22.691   3.611  48.247  1.00  0.00     0.158 C 
BRANCH   6   8
HETATM    8  C6  UNL     1      22.036   3.558  50.669  1.00  0.00     0.143 A 
HETATM    9  N2  UNL     1      20.809   4.124  50.813  1.00  0.00    -0.223 NA
HETATM   10  C5  UNL     1      19.963   3.714  51.779  1.00  0.00     0.236 A 
HETATM   11  N1  UNL     1      20.299   2.732  52.632  1.00  0.00    -0.241 NA
HETATM   12  C4  UNL     1      21.504   2.133  52.537  1.00  0.00     0.075 A 
HETATM   13  C3  UNL     1      21.934   1.118  53.370  1.00  0.00     0.072 A 
HETATM   14  C21 UNL     1      22.374   2.551  51.551  1.00  0.00     0.042 A 
HETATM   15  C2  UNL     1      23.184   0.570  53.192  1.00  0.00     0.103 A 
HETATM   16  C23 UNL     1      24.063   0.979  52.209  1.00  0.00     0.102 A 
HETATM   17  C22 UNL     1      23.623   1.998  51.378  1.00  0.00     0.057 A 
BRANCH  15  18
HETATM   18  O1  UNL     1      23.601  -0.447  54.035  1.00  0.00    -0.353 OA
HETATM   19  C1  UNL     1      22.689  -1.173  54.847  1.00  0.00     0.210 C 
ENDBRANCH  15  18
BRANCH  16  20
HETATM   20  O3  UNL     1      25.294   0.385  52.092  1.00  0.00    -0.353 OA
HETATM   21  C24 UNL     1      26.474   1.053  52.492  1.00  0.00     0.210 C 
ENDBRANCH  16  20
ENDBRANCH   6   8
ENDBRANCH   1   6
BRANCH   4  22
HETATM   22  N4  UNL     1      26.807   7.241  49.531  1.00  0.00    -0.312 N 
HETATM   23  C12 UNL     1      27.008   8.660  49.542  1.00  0.00     0.325 C 
HETATM   24  O2  UNL     1      26.204   9.576  49.808  1.00  0.00    -0.247 OA
HETATM   25  N5  UNL     1      28.292   9.180  49.213  1.00  0.00    -0.299 N 
HETATM   26  C13 UNL     1      28.268  10.638  49.289  1.00  0.00     0.158 C 
HETATM   27  C19 UNL     1      29.492   8.449  48.847  1.00  0.00     0.283 C 
HETATM   28  C14 UNL     1      29.482  11.214  48.627  1.00  0.00    -0.004 C 
HETATM   29  C15 UNL     1      30.639  10.560  48.658  1.00  0.00    -0.078 C 
HETATM   30  C16 UNL     1      31.856  11.128  47.999  1.00  0.00     0.043 C 
HETATM   31  C17 UNL     1      30.675   9.248  49.369  1.00  0.00     0.064 C 
HETATM   32  C18 UNL     1      31.931   8.471  49.047  1.00  0.00     0.019 C 
HETATM   33  F1  UNL     1      29.550   8.416  47.474  1.00  0.00    -0.226 F 
HETATM   34  H11 UNL     1      27.647   6.644  49.270  1.00  0.00     0.170 HD
ENDBRANCH   4  22
TORSDOF 5
ENDMDL
