MODEL 1
REMARK VINA RESULT:      -8.5      0.000      0.000
REMARK  1 active torsions:
REMARK  status: ('A' for Active; 'I' for Inactive)
REMARK    1  A    between atoms: C3_3  and  N1_4 
ROOT
HETATM    1  C1  UNL     1      29.969  -1.049  53.774  1.00  0.00     0.014 C 
HETATM    2  C2  UNL     1      29.417   0.031  53.596  1.00  0.00    -0.096 C 
HETATM    3  C3  UNL     1      28.729   1.322  53.379  1.00  0.00     0.243 C 
ENDROOT
BRANCH   3   4
HETATM    4  N1  UNL     1      27.356   1.055  53.117  1.00  0.00    -0.270 N 
HETATM    5  C4  UNL     1      26.852   1.507  51.870  1.00  0.00     0.114 C 
HETATM    6  C5  UNL     1      26.107   2.352  51.236  1.00  0.00     0.035 C 
HETATM    7  C6  UNL     1      25.316   3.223  50.398  1.00  0.00     0.028 A 
HETATM    8  C7  UNL     1      26.041   4.295  49.950  1.00  0.00     0.133 A 
HETATM    9  C9  UNL     1      24.006   2.937  50.118  1.00  0.00     0.136 A 
HETATM   10  N2  UNL     1      25.444   5.218  49.128  1.00  0.00    -0.253 NA
HETATM   11  C8  UNL     1      24.157   4.925  48.860  1.00  0.00     0.234 A 
HETATM   12  N3  UNL     1      23.465   3.859  49.315  1.00  0.00    -0.224 NA
HETATM   13  N4  UNL     1      23.055   1.944  50.451  1.00  0.00    -0.371 N 
HETATM   14  C10 UNL     1      22.990   1.970  51.872  1.00  0.00     0.150 C 
HETATM   15  H8  UNL     1      22.569   1.376  49.724  1.00  0.00     0.161 HD
HETATM   16  C11 UNL     1      21.981   1.054  52.489  1.00  0.00     0.015 C 
HETATM   17  C12 UNL     1      22.094   0.018  53.360  1.00  0.00     0.052 C 
HETATM   18 CL1  UNL     1      20.379  -0.463  53.536  1.00  0.00    -0.086 Cl
HETATM   19  C13 UNL     1      23.558  -0.074  53.619  1.00  0.00     0.176 A 
HETATM   20  F1  UNL     1      22.794  -0.964  54.270  1.00  0.00    -0.373 F 
HETATM   21  C14 UNL     1      24.328  -0.873  54.384  1.00  0.00     0.217 A 
HETATM   22  C15 UNL     1      25.688  -0.357  54.113  1.00  0.00     0.149 C 
HETATM   23  N5  UNL     1      26.115   0.567  53.381  1.00  0.00    -0.186 NA
ENDBRANCH   3   4
TORSDOF 1
ENDMDL
MODEL 2
REMARK VINA RESULT:      -8.4      2.925      5.092
REMARK  1 active torsions:
REMARK  status: ('A' for Active; 'I' for Inactive)
REMARK    1  A    between atoms: C3_3  and  N1_4 
ROOT
HETATM    1  C1  UNL     1      29.689  -0.398  53.606  1.00  0.00     0.014 C 
HETATM    2  C2  UNL     1      28.568  -0.824  53.351  1.00  0.00    -0.096 C 
HETATM    3  C3  UNL     1      27.209  -1.317  53.036  1.00  0.00     0.243 C 
ENDROOT
BRANCH   3   4
HETATM    4  N1  UNL     1      26.421  -0.207  52.621  1.00  0.00    -0.270 N 
HETATM    5  C4  UNL     1      25.190  -0.017  53.301  1.00  0.00     0.114 C 
HETATM    6  C5  UNL     1      23.900  -0.081  53.259  1.00  0.00     0.035 C 
HETATM    7  C6  UNL     1      22.459  -0.101  53.358  1.00  0.00     0.028 A 
HETATM    8  C7  UNL     1      21.999  -1.292  53.854  1.00  0.00     0.133 A 
HETATM    9  C9  UNL     1      21.710   0.987  52.994  1.00  0.00     0.136 A 
HETATM   10  N2  UNL     1      20.649  -1.475  54.027  1.00  0.00    -0.253 NA
HETATM   11  C8  UNL     1      19.925  -0.399  53.665  1.00  0.00     0.234 A 
HETATM   12  N3  UNL     1      20.404   0.765  53.178  1.00  0.00    -0.224 NA
HETATM   13  N4  UNL     1      21.927   2.280  52.462  1.00  0.00    -0.371 N 
HETATM   14  C10 UNL     1      22.621   2.053  51.240  1.00  0.00     0.150 C 
HETATM   15  H8  UNL     1      21.603   3.142  52.950  1.00  0.00     0.161 HD
HETATM   16  C11 UNL     1      22.907   3.274  50.424  1.00  0.00     0.015 C 
HETATM   17  C12 UNL     1      24.065   3.839  49.992  1.00  0.00     0.052 C 
HETATM   18 CL1  UNL     1      23.434   5.249  49.088  1.00  0.00    -0.086 Cl
HETATM   19  C13 UNL     1      25.125   2.945  50.538  1.00  0.00     0.176 A 
HETATM   20  F1  UNL     1      25.558   3.987  49.812  1.00  0.00    -0.373 F 
HETATM   21  C14 UNL     1      26.470   2.936  50.473  1.00  0.00     0.217 A 
HETATM   22  C15 UNL     1      26.819   1.738  51.269  1.00  0.00     0.149 C 
HETATM   23  N5  UNL     1      26.122   0.896  51.884  1.00  0.00    -0.186 NA
ENDBRANCH   3   4
TORSDOF 1
ENDMDL
MODEL 3
REMARK VINA RESULT:      -8.3      1.636      4.986
REMARK  1 active torsions:
REMARK  status: ('A' for Active; 'I' for Inactive)
REMARK    1  A    between atoms: C3_3  and  N1_4 
ROOT
HETATM    1  C1  UNL     1      26.778   3.750  49.320  1.00  0.00     0.014 C 
HETATM    2  C2  UNL     1      25.785   4.150  49.917  1.00  0.00    -0.096 C 
HETATM    3  C3  UNL     1      24.586   4.611  50.651  1.00  0.00     0.243 C 
ENDROOT
BRANCH   3   4
HETATM    4  N1  UNL     1      24.151   3.554  51.499  1.00  0.00    -0.270 N 
HETATM    5  C4  UNL     1      25.061   3.134  52.503  1.00  0.00     0.114 C 
HETATM    6  C5  UNL     1      25.877   2.224  52.924  1.00  0.00     0.035 C 
HETATM    7  C6  UNL     1      26.814   1.299  53.517  1.00  0.00     0.028 A 
HETATM    8  C7  UNL     1      28.102   1.562  53.134  1.00  0.00     0.133 A 
HETATM    9  C9  UNL     1      26.390   0.309  54.364  1.00  0.00     0.136 A 
HETATM   10  N2  UNL     1      29.124   0.784  53.618  1.00  0.00    -0.253 NA
HETATM   11  C8  UNL     1      28.694  -0.185  54.450  1.00  0.00     0.234 A 
HETATM   12  N3  UNL     1      27.416  -0.424  54.812  1.00  0.00    -0.224 NA
HETATM   13  N4  UNL     1      25.168  -0.169  54.891  1.00  0.00    -0.371 N 
HETATM   14  C10 UNL     1      24.384  -0.488  53.747  1.00  0.00     0.150 C 
HETATM   15  H8  UNL     1      24.992  -0.229  55.917  1.00  0.00     0.161 HD
HETATM   16  C11 UNL     1      23.048  -1.101  54.030  1.00  0.00     0.015 C 
HETATM   17  C12 UNL     1      21.780  -0.711  53.738  1.00  0.00     0.052 C 
HETATM   18 CL1  UNL     1      20.842  -2.058  54.453  1.00  0.00    -0.086 Cl
HETATM   19  C13 UNL     1      21.959   0.580  53.018  1.00  0.00     0.176 A 
HETATM   20  F1  UNL     1      20.691   0.169  53.170  1.00  0.00    -0.373 F 
HETATM   21  C14 UNL     1      21.114   1.469  52.460  1.00  0.00     0.217 A 
HETATM   22  C15 UNL     1      22.037   2.503  51.941  1.00  0.00     0.149 C 
HETATM   23  N5  UNL     1      23.285   2.615  51.967  1.00  0.00    -0.186 NA
ENDBRANCH   3   4
TORSDOF 1
ENDMDL
MODEL 4
REMARK VINA RESULT:      -8.2      1.549      1.890
REMARK  1 active torsions:
REMARK  status: ('A' for Active; 'I' for Inactive)
REMARK    1  A    between atoms: C3_3  and  N1_4 
ROOT
HETATM    1  C1  UNL     1      28.622  -0.911  53.134  1.00  0.00     0.014 C 
HETATM    2  C2  UNL     1      27.829  -0.371  53.897  1.00  0.00    -0.096 C 
HETATM    3  C3  UNL     1      26.854   0.271  54.805  1.00  0.00     0.243 C 
ENDROOT
BRANCH   3   4
HETATM    4  N1  UNL     1      25.550   0.066  54.273  1.00  0.00    -0.270 N 
HETATM    5  C4  UNL     1      25.350   0.460  52.924  1.00  0.00     0.114 C 
HETATM    6  C5  UNL     1      24.814   1.301  52.102  1.00  0.00     0.035 C 
HETATM    7  C6  UNL     1      24.279   2.157  51.069  1.00  0.00     0.028 A 
HETATM    8  C7  UNL     1      25.154   3.153  50.728  1.00  0.00     0.133 A 
HETATM    9  C9  UNL     1      23.039   1.928  50.534  1.00  0.00     0.136 A 
HETATM   10  N2  UNL     1      24.809   4.051  49.748  1.00  0.00    -0.253 NA
HETATM   11  C8  UNL     1      23.588   3.814  49.230  1.00  0.00     0.234 A 
HETATM   12  N3  UNL     1      22.743   2.824  49.585  1.00  0.00    -0.224 NA
HETATM   13  N4  UNL     1      21.971   1.016  50.710  1.00  0.00    -0.371 N 
HETATM   14  C10 UNL     1      21.614   1.143  52.081  1.00  0.00     0.150 C 
HETATM   15  H8  UNL     1      21.609   0.429  49.929  1.00  0.00     0.161 HD
HETATM   16  C11 UNL     1      20.437   0.330  52.520  1.00  0.00     0.015 C 
HETATM   17  C12 UNL     1      20.293  -0.649  53.450  1.00  0.00     0.052 C 
HETATM   18 CL1  UNL     1      18.549  -1.018  53.283  1.00  0.00    -0.086 Cl
HETATM   19  C13 UNL     1      21.661  -0.807  54.018  1.00  0.00     0.176 A 
HETATM   20  F1  UNL     1      20.718  -1.606  54.540  1.00  0.00    -0.373 F 
HETATM   21  C14 UNL     1      22.197  -1.595  54.971  1.00  0.00     0.217 A 
HETATM   22  C15 UNL     1      23.617  -1.178  54.967  1.00  0.00     0.149 C 
HETATM   23  N5  UNL     1      24.250  -0.331  54.293  1.00  0.00    -0.186 NA
ENDBRANCH   3   4
TORSDOF 1
ENDMDL
MODEL 5
REMARK VINA RESULT:      -8.0      3.008      5.232
REMARK  1 active torsions:
REMARK  status: ('A' for Active; 'I' for Inactive)
REMARK    1  A    between atoms: C3_3  and  N1_4 
ROOT
HETATM    1  C1  UNL     1      27.987  -0.684  53.262  1.00  0.00     0.014 C 
HETATM    2  C2  UNL     1      27.720   0.512  53.262  1.00  0.00    -0.096 C 
HETATM    3  C3  UNL     1      27.377   1.951  53.252  1.00  0.00     0.243 C 
ENDROOT
BRANCH   3   4
HETATM    4  N1  UNL     1      26.159   2.112  52.535  1.00  0.00    -0.270 N 
HETATM    5  C4  UNL     1      24.970   1.757  53.224  1.00  0.00     0.114 C 
HETATM    6  C5  UNL     1      23.993   0.920  53.353  1.00  0.00     0.035 C 
HETATM    7  C6  UNL     1      22.850   0.076  53.613  1.00  0.00     0.028 A 
HETATM    8  C7  UNL     1      23.117  -0.863  54.573  1.00  0.00     0.133 A 
HETATM    9  C9  UNL     1      21.667   0.263  52.947  1.00  0.00     0.136 A 
HETATM   10  N2  UNL     1      22.131  -1.742  54.952  1.00  0.00    -0.253 NA
HETATM   11  C8  UNL     1      20.975  -1.546  54.290  1.00  0.00     0.234 A 
HETATM   12  N3  UNL     1      20.738  -0.611  53.346  1.00  0.00    -0.224 NA
HETATM   13  N4  UNL     1      21.153   1.115  51.941  1.00  0.00    -0.371 N 
HETATM   14  C10 UNL     1      22.020   0.923  50.829  1.00  0.00     0.150 C 
HETATM   15  H8  UNL     1      20.312   1.711  52.096  1.00  0.00     0.161 HD
HETATM   16  C11 UNL     1      21.645   1.661  49.583  1.00  0.00     0.015 C 
HETATM   17  C12 UNL     1      22.291   2.599  48.843  1.00  0.00     0.052 C 
HETATM   18 CL1  UNL     1      21.093   2.887  47.545  1.00  0.00    -0.086 Cl
HETATM   19  C13 UNL     1      23.577   2.803  49.566  1.00  0.00     0.176 A 
HETATM   20  F1  UNL     1      23.412   3.536  48.455  1.00  0.00    -0.373 F 
HETATM   21  C14 UNL     1      24.658   3.581  49.360  1.00  0.00     0.217 A 
HETATM   22  C15 UNL     1      25.523   3.234  50.509  1.00  0.00     0.149 C 
HETATM   23  N5  UNL     1      25.379   2.444  51.472  1.00  0.00    -0.186 NA
ENDBRANCH   3   4
TORSDOF 1
ENDMDL
MODEL 6
REMARK VINA RESULT:      -7.8      3.118      5.632
REMARK  1 active torsions:
REMARK  status: ('A' for Active; 'I' for Inactive)
REMARK    1  A    between atoms: C3_3  and  N1_4 
ROOT
HETATM    1  C1  UNL     1      17.843  -1.463  53.220  1.00  0.00     0.014 C 
HETATM    2  C2  UNL     1      18.320  -0.556  52.548  1.00  0.00    -0.096 C 
HETATM    3  C3  UNL     1      18.918   0.536  51.749  1.00  0.00     0.243 C 
ENDROOT
BRANCH   3   4
HETATM    4  N1  UNL     1      20.226   0.788  52.250  1.00  0.00    -0.270 N 
HETATM    5  C4  UNL     1      20.580   2.150  52.435  1.00  0.00     0.114 C 
HETATM    6  C5  UNL     1      21.277   3.160  52.030  1.00  0.00     0.035 C 
HETATM    7  C6  UNL     1      21.992   4.369  51.694  1.00  0.00     0.028 A 
HETATM    8  C7  UNL     1      21.273   5.169  50.847  1.00  0.00     0.133 A 
HETATM    9  C9  UNL     1      23.235   4.622  52.213  1.00  0.00     0.136 A 
HETATM   10  N2  UNL     1      21.802   6.368  50.436  1.00  0.00    -0.253 NA
HETATM   11  C8  UNL     1      23.023   6.604  50.954  1.00  0.00     0.234 A 
HETATM   12  N3  UNL     1      23.711   5.798  51.788  1.00  0.00    -0.224 NA
HETATM   13  N4  UNL     1      24.167   3.983  53.063  1.00  0.00    -0.371 N 
HETATM   14  C10 UNL     1      24.426   2.732  52.437  1.00  0.00     0.150 C 
HETATM   15  H8  UNL     1      24.519   4.430  53.937  1.00  0.00     0.161 HD
HETATM   16  C11 UNL     1      25.458   1.877  53.102  1.00  0.00     0.015 C 
HETATM   17  C12 UNL     1      25.408   0.633  53.645  1.00  0.00     0.052 C 
HETATM   18 CL1  UNL     1      27.103   0.434  54.186  1.00  0.00    -0.086 Cl
HETATM   19  C13 UNL     1      23.990   0.217  53.458  1.00  0.00     0.176 A 
HETATM   20  F1  UNL     1      24.785  -0.680  54.059  1.00  0.00    -0.373 F 
HETATM   21  C14 UNL     1      23.289  -0.892  53.762  1.00  0.00     0.217 A 
HETATM   22  C15 UNL     1      21.934  -0.557  53.269  1.00  0.00     0.149 C 
HETATM   23  N5  UNL     1      21.463   0.460  52.708  1.00  0.00    -0.186 NA
ENDBRANCH   3   4
TORSDOF 1
ENDMDL
MODEL 7
REMARK VINA RESULT:      -7.7      3.146      6.891
REMARK  1 active torsions:
REMARK  status: ('A' for Active; 'I' for Inactive)
REMARK    1  A    between atoms: C3_3  and  N1_4 
ROOT
HETATM    1  C1  UNL     1      22.077   4.439  46.635  1.00  0.00     0.014 C 
HETATM    2  C2  UNL     1      21.667   3.790  47.590  1.00  0.00    -0.096 C 
HETATM    3  C3  UNL     1      21.195   3.005  48.752  1.00  0.00     0.243 C 
ENDROOT
BRANCH   3   4
HETATM    4  N1  UNL     1      22.331   2.609  49.511  1.00  0.00    -0.270 N 
HETATM    5  C4  UNL     1      22.212   1.399  50.242  1.00  0.00     0.114 C 
HETATM    6  C5  UNL     1      22.090   0.828  51.395  1.00  0.00     0.035 C 
HETATM    7  C6  UNL     1      21.955   0.056  52.608  1.00  0.00     0.028 A 
HETATM    8  C7  UNL     1      20.642  -0.193  52.910  1.00  0.00     0.133 A 
HETATM    9  C9  UNL     1      23.056  -0.355  53.312  1.00  0.00     0.136 A 
HETATM   10  N2  UNL     1      20.333  -0.929  54.027  1.00  0.00    -0.253 NA
HETATM   11  C8  UNL     1      21.424  -1.327  54.709  1.00  0.00     0.234 A 
HETATM   12  N3  UNL     1      22.710  -1.068  54.389  1.00  0.00    -0.224 NA
HETATM   13  N4  UNL     1      24.462  -0.227  53.229  1.00  0.00    -0.371 N 
HETATM   14  C10 UNL     1      24.696   1.176  53.227  1.00  0.00     0.150 C 
HETATM   15  H8  UNL     1      25.093  -1.056  53.183  1.00  0.00     0.161 HD
HETATM   16  C11 UNL     1      26.133   1.592  53.226  1.00  0.00     0.015 C 
HETATM   17  C12 UNL     1      26.876   2.325  52.357  1.00  0.00     0.052 C 
HETATM   18 CL1  UNL     1      28.467   2.309  53.177  1.00  0.00    -0.086 Cl
HETATM   19  C13 UNL     1      25.915   2.677  51.274  1.00  0.00     0.176 A 
HETATM   20  F1  UNL     1      27.162   3.148  51.122  1.00  0.00    -0.373 F 
HETATM   21  C14 UNL     1      26.006   3.385  50.131  1.00  0.00     0.217 A 
HETATM   22  C15 UNL     1      24.635   3.285  49.585  1.00  0.00     0.149 C 
HETATM   23  N5  UNL     1      23.597   2.715  49.997  1.00  0.00    -0.186 NA
ENDBRANCH   3   4
TORSDOF 1
ENDMDL
MODEL 8
REMARK VINA RESULT:      -7.7      2.327      5.355
REMARK  1 active torsions:
REMARK  status: ('A' for Active; 'I' for Inactive)
REMARK    1  A    between atoms: C3_3  and  N1_4 
ROOT
HETATM    1  C1  UNL     1      25.345   5.142  49.302  1.00  0.00     0.014 C 
HETATM    2  C2  UNL     1      24.663   5.471  50.266  1.00  0.00    -0.096 C 
HETATM    3  C3  UNL     1      23.834   5.846  51.432  1.00  0.00     0.243 C 
ENDROOT
BRANCH   3   4
HETATM    4  N1  UNL     1      23.111   4.694  51.851  1.00  0.00    -0.270 N 
HETATM    5  C4  UNL     1      23.820   3.758  52.646  1.00  0.00     0.114 C 
HETATM    6  C5  UNL     1      24.382   2.596  52.722  1.00  0.00     0.035 C 
HETATM    7  C6  UNL     1      25.044   1.334  52.954  1.00  0.00     0.028 A 
HETATM    8  C7  UNL     1      26.386   1.406  52.694  1.00  0.00     0.133 A 
HETATM    9  C9  UNL     1      24.346   0.240  53.395  1.00  0.00     0.136 A 
HETATM   10  N2  UNL     1      27.172   0.295  52.876  1.00  0.00    -0.253 NA
HETATM   11  C8  UNL     1      26.474  -0.772  53.311  1.00  0.00     0.234 A 
HETATM   12  N3  UNL     1      25.148  -0.818  53.560  1.00  0.00    -0.224 NA
HETATM   13  N4  UNL     1      23.009  -0.093  53.715  1.00  0.00    -0.371 N 
HETATM   14  C10 UNL     1      22.276   0.189  52.529  1.00  0.00     0.150 C 
HETATM   15  H8  UNL     1      22.738  -0.458  54.653  1.00  0.00     0.161 HD
HETATM   16  C11 UNL     1      20.821  -0.156  52.572  1.00  0.00     0.015 C 
HETATM   17  C12 UNL     1      19.695   0.592  52.431  1.00  0.00     0.052 C 
HETATM   18 CL1  UNL     1      18.432  -0.661  52.621  1.00  0.00    -0.086 Cl
HETATM   19  C13 UNL     1      20.209   1.974  52.214  1.00  0.00     0.176 A 
HETATM   20  F1  UNL     1      18.874   1.840  52.205  1.00  0.00    -0.373 F 
HETATM   21  C14 UNL     1      19.625   3.170  52.002  1.00  0.00     0.217 A 
HETATM   22  C15 UNL     1      20.790   4.075  51.885  1.00  0.00     0.149 C 
HETATM   23  N5  UNL     1      22.027   3.880  51.954  1.00  0.00    -0.186 NA
ENDBRANCH   3   4
TORSDOF 1
ENDMDL
MODEL 9
REMARK VINA RESULT:      -7.7      3.046      6.403
REMARK  1 active torsions:
REMARK  status: ('A' for Active; 'I' for Inactive)
REMARK    1  A    between atoms: C3_3  and  N1_4 
ROOT
HETATM    1  C1  UNL     1      20.739   4.731  50.914  1.00  0.00     0.014 C 
HETATM    2  C2  UNL     1      21.666   4.317  50.228  1.00  0.00    -0.096 C 
HETATM    3  C3  UNL     1      22.792   3.802  49.418  1.00  0.00     0.243 C 
ENDROOT
BRANCH   3   4
HETATM    4  N1  UNL     1      23.569   2.937  50.238  1.00  0.00    -0.270 N 
HETATM    5  C4  UNL     1      22.961   1.712  50.617  1.00  0.00     0.114 C 
HETATM    6  C5  UNL     1      22.423   1.006  51.557  1.00  0.00     0.035 C 
HETATM    7  C6  UNL     1      21.804   0.105  52.500  1.00  0.00     0.028 A 
HETATM    8  C7  UNL     1      20.440   0.230  52.505  1.00  0.00     0.133 A 
HETATM    9  C9  UNL     1      22.557  -0.753  53.257  1.00  0.00     0.136 A 
HETATM   10  N2  UNL     1      19.691  -0.565  53.337  1.00  0.00    -0.253 NA
HETATM   11  C8  UNL     1      20.444  -1.404  54.075  1.00  0.00     0.234 A 
HETATM   12  N3  UNL     1      21.789  -1.507  54.052  1.00  0.00    -0.224 NA
HETATM   13  N4  UNL     1      23.925  -1.060  53.448  1.00  0.00    -0.371 N 
HETATM   14  C10 UNL     1      24.520   0.174  53.832  1.00  0.00     0.150 C 
HETATM   15  H8  UNL     1      24.303  -2.021  53.306  1.00  0.00     0.161 HD
HETATM   16  C11 UNL     1      25.974   0.111  54.177  1.00  0.00     0.015 C 
HETATM   17  C12 UNL     1      27.069   0.721  53.653  1.00  0.00     0.052 C 
HETATM   18 CL1  UNL     1      28.359   0.055  54.701  1.00  0.00    -0.086 Cl
HETATM   19  C13 UNL     1      26.521   1.550  52.544  1.00  0.00     0.176 A 
HETATM   20  F1  UNL     1      27.848   1.625  52.726  1.00  0.00    -0.373 F 
HETATM   21  C14 UNL     1      27.065   2.392  51.643  1.00  0.00     0.217 A 
HETATM   22  C15 UNL     1      25.885   2.830  50.865  1.00  0.00     0.149 C 
HETATM   23  N5  UNL     1      24.665   2.548  50.942  1.00  0.00    -0.186 NA
ENDBRANCH   3   4
TORSDOF 1
ENDMDL
