MODEL 1
REMARK VINA RESULT:      -9.1      0.000      0.000
REMARK  3 active torsions:
REMARK  status: ('A' for Active; 'I' for Inactive)
REMARK    1  A    between atoms: N2_5  and  C4_6 
REMARK    2  A    between atoms: C7_9  and  N3_10 
REMARK       I    between atoms: N3_10  and  C8_11 
REMARK    3  A    between atoms: C8_11  and  C9_13 
ROOT
HETATM    1  N3  UNL     1      25.033   5.784  49.345  1.00  0.00    -0.326 N 
HETATM    2  C8  UNL     1      24.935   4.716  50.253  1.00  0.00     0.235 C 
HETATM    3  O1  UNL     1      26.061   4.164  50.505  1.00  0.00    -0.272 OA
HETATM    4  H10 UNL     1      24.154   6.277  49.098  1.00  0.00     0.169 HD
ENDROOT
BRANCH   2   5
HETATM    5  C9  UNL     1      23.760   4.196  50.908  1.00  0.00     0.186 C 
HETATM    6  C10 UNL     1      24.076   3.489  52.240  1.00  0.00     0.373 A 
HETATM    7  O2  UNL     1      24.340   3.205  53.428  1.00  0.00    -0.145 OA
HETATM    8  N4  UNL     1      24.170   2.053  52.475  1.00  0.00     0.109 N 
HETATM    9  C11 UNL     1      24.262   0.624  52.707  1.00  0.00     0.237 C 
HETATM   10  H12 UNL     1      24.213   1.683  51.462  1.00  0.00     0.328 HD
HETATM   11  C12 UNL     1      23.008   0.062  52.773  1.00  0.00     0.020 C 
HETATM   12  C13 UNL     1      21.643   0.575  52.687  1.00  0.00     0.148 C 
HETATM   13  N5  UNL     1      20.866   0.351  51.522  1.00  0.00    -0.386 N 
HETATM   14  C14 UNL     1      21.482   1.170  50.503  1.00  0.00     0.028 A 
HETATM   15  H17 UNL     1      20.055  -0.142  51.092  1.00  0.00     0.160 HD
HETATM   16  C15 UNL     1      21.533   0.954  49.139  1.00  0.00     0.029 A 
HETATM   17  C19 UNL     1      22.215   2.272  50.775  1.00  0.00     0.037 A 
HETATM   18  C16 UNL     1      22.250   1.795  48.310  1.00  0.00     0.003 A 
HETATM   19  C17 UNL     1      22.956   2.887  48.770  1.00  0.00     0.008 A 
HETATM   20  C18 UNL     1      22.977   3.197  50.113  1.00  0.00    -0.038 A 
ENDBRANCH   2   5
BRANCH   1  21
HETATM   21  C7  UNL     1      26.416   5.945  48.951  1.00  0.00     0.034 A 
HETATM   22  C6  UNL     1      26.940   7.231  48.873  1.00  0.00     0.032 A 
HETATM   23  C5  UNL     1      28.242   7.483  48.509  1.00  0.00     0.031 A 
HETATM   24  C4  UNL     1      29.067   6.430  48.209  1.00  0.00     0.030 A 
HETATM   25  C21 UNL     1      28.571   5.153  48.280  1.00  0.00     0.031 A 
HETATM   26  C20 UNL     1      27.264   4.890  48.645  1.00  0.00     0.032 A 
BRANCH  24  27
HETATM   27  N2  UNL     1      30.432   6.634  47.831  1.00  0.00    -0.378 N 
HETATM   28  C3  UNL     1      31.155   7.902  47.752  1.00  0.00     0.153 C 
HETATM   29  C2  UNL     1      32.431   7.711  48.546  1.00  0.00     0.291 C 
HETATM   30  N1  UNL     1      33.281   6.704  47.937  1.00  0.00     0.087 N 
HETATM   31  C1  UNL     1      33.917   5.839  48.912  1.00  0.00     0.310 C 
HETATM   32  C23 UNL     1      32.560   5.932  46.943  1.00  0.00     0.291 C 
HETATM   33  C22 UNL     1      31.225   5.454  47.469  1.00  0.00     0.153 C 
ENDBRANCH  24  27
ENDBRANCH   1  21
TORSDOF 3
ENDMDL
MODEL 2
REMARK VINA RESULT:      -9.0      5.979      8.229
REMARK  3 active torsions:
REMARK  status: ('A' for Active; 'I' for Inactive)
REMARK    1  A    between atoms: N2_5  and  C4_6 
REMARK    2  A    between atoms: C7_9  and  N3_10 
REMARK       I    between atoms: N3_10  and  C8_11 
REMARK    3  A    between atoms: C8_11  and  C9_13 
ROOT
HETATM    1  N3  UNL     1      20.481   1.420  52.472  1.00  0.00    -0.326 N 
HETATM    2  C8  UNL     1      20.128   0.852  51.236  1.00  0.00     0.235 C 
HETATM    3  O1  UNL     1      21.076   0.181  50.701  1.00  0.00    -0.272 OA
HETATM    4  H10 UNL     1      19.755   1.978  52.960  1.00  0.00     0.169 HD
ENDROOT
BRANCH   2   5
HETATM    5  C9  UNL     1      18.872   0.934  50.534  1.00  0.00     0.186 C 
HETATM    6  C10 UNL     1      18.363   2.380  50.373  1.00  0.00     0.373 A 
HETATM    7  O2  UNL     1      18.152   3.556  50.010  1.00  0.00    -0.145 OA
HETATM    8  N4  UNL     1      17.335   3.044  51.165  1.00  0.00     0.109 N 
HETATM    9  C11 UNL     1      16.311   3.705  51.952  1.00  0.00     0.237 C 
HETATM   10  H12 UNL     1      17.241   2.361  51.994  1.00  0.00     0.328 HD
HETATM   11  C12 UNL     1      15.058   3.283  51.570  1.00  0.00     0.020 C 
HETATM   12  C13 UNL     1      14.545   2.362  50.558  1.00  0.00     0.148 C 
HETATM   13  N5  UNL     1      14.039   1.092  50.937  1.00  0.00    -0.386 N 
HETATM   14  C14 UNL     1      15.200   0.343  51.360  1.00  0.00     0.028 A 
HETATM   15  H17 UNL     1      13.204   0.479  51.039  1.00  0.00     0.160 HD
HETATM   16  C15 UNL     1      15.277  -0.665  52.302  1.00  0.00     0.029 A 
HETATM   17  C19 UNL     1      16.455   0.609  50.935  1.00  0.00     0.037 A 
HETATM   18  C16 UNL     1      16.493  -1.216  52.658  1.00  0.00     0.003 A 
HETATM   19  C17 UNL     1      17.694  -0.810  52.116  1.00  0.00     0.008 A 
HETATM   20  C18 UNL     1      17.737   0.190  51.168  1.00  0.00    -0.038 A 
ENDBRANCH   2   5
BRANCH   1  21
HETATM   21  C7  UNL     1      21.850   1.070  52.780  1.00  0.00     0.034 A 
HETATM   22  C6  UNL     1      22.094  -0.107  53.480  1.00  0.00     0.032 A 
HETATM   23  C5  UNL     1      23.362  -0.523  53.818  1.00  0.00     0.031 A 
HETATM   24  C4  UNL     1      24.436   0.247  53.453  1.00  0.00     0.030 A 
HETATM   25  C21 UNL     1      24.218   1.412  52.761  1.00  0.00     0.031 A 
HETATM   26  C20 UNL     1      22.948   1.837  52.418  1.00  0.00     0.032 A 
BRANCH  24  27
HETATM   27  N2  UNL     1      25.776  -0.141  53.771  1.00  0.00    -0.378 N 
HETATM   28  C3  UNL     1      26.542  -1.248  53.203  1.00  0.00     0.153 C 
HETATM   29  C2  UNL     1      27.866  -0.660  52.756  1.00  0.00     0.291 C 
HETATM   30  N1  UNL     1      28.626  -0.162  53.888  1.00  0.00     0.087 N 
HETATM   31  C1  UNL     1      29.297   1.092  53.608  1.00  0.00     0.310 C 
HETATM   32  C23 UNL     1      27.800  -0.060  55.078  1.00  0.00     0.291 C 
HETATM   33  C22 UNL     1      26.490   0.638  54.789  1.00  0.00     0.153 C 
ENDBRANCH  24  27
ENDBRANCH   1  21
TORSDOF 3
ENDMDL
MODEL 3
REMARK VINA RESULT:      -8.9      1.591      2.112
REMARK  3 active torsions:
REMARK  status: ('A' for Active; 'I' for Inactive)
REMARK    1  A    between atoms: N2_5  and  C4_6 
REMARK    2  A    between atoms: C7_9  and  N3_10 
REMARK       I    between atoms: N3_10  and  C8_11 
REMARK    3  A    between atoms: C8_11  and  C9_13 
ROOT
HETATM    1  N3  UNL     1      25.197   4.073  49.378  1.00  0.00    -0.326 N 
HETATM    2  C8  UNL     1      24.608   4.571  50.552  1.00  0.00     0.235 C 
HETATM    3  O1  UNL     1      25.044   5.727  50.883  1.00  0.00    -0.272 OA
HETATM    4  H10 UNL     1      24.886   3.137  49.054  1.00  0.00     0.169 HD
ENDROOT
BRANCH   2   5
HETATM    5  C9  UNL     1      23.608   3.957  51.389  1.00  0.00     0.186 C 
HETATM    6  C10 UNL     1      24.204   3.250  52.622  1.00  0.00     0.373 A 
HETATM    7  O2  UNL     1      24.695   2.965  53.735  1.00  0.00    -0.145 OA
HETATM    8  N4  UNL     1      24.435   1.821  52.793  1.00  0.00     0.109 N 
HETATM    9  C11 UNL     1      24.664   0.399  52.962  1.00  0.00     0.237 C 
HETATM   10  H12 UNL     1      24.321   1.473  51.778  1.00  0.00     0.328 HD
HETATM   11  C12 UNL     1      23.483  -0.254  53.232  1.00  0.00     0.020 C 
HETATM   12  C13 UNL     1      22.093   0.162  53.406  1.00  0.00     0.148 C 
HETATM   13  N5  UNL     1      21.137  -0.097  52.391  1.00  0.00    -0.386 N 
HETATM   14  C14 UNL     1      21.503   0.782  51.304  1.00  0.00     0.028 A 
HETATM   15  H17 UNL     1      20.297  -0.640  52.098  1.00  0.00     0.160 HD
HETATM   16  C15 UNL     1      21.323   0.594  49.947  1.00  0.00     0.029 A 
HETATM   17  C19 UNL     1      22.197   1.929  51.475  1.00  0.00     0.037 A 
HETATM   18  C16 UNL     1      21.822   1.499  49.030  1.00  0.00     0.003 A 
HETATM   19  C17 UNL     1      22.523   2.631  49.390  1.00  0.00     0.008 A 
HETATM   20  C18 UNL     1      22.763   2.918  50.717  1.00  0.00    -0.038 A 
ENDBRANCH   2   5
BRANCH   1  21
HETATM   21  C7  UNL     1      26.150   5.039  48.879  1.00  0.00     0.034 A 
HETATM   22  C6  UNL     1      27.494   4.684  48.832  1.00  0.00     0.032 A 
HETATM   23  C5  UNL     1      28.473   5.535  48.373  1.00  0.00     0.031 A 
HETATM   24  C4  UNL     1      28.120   6.787  47.940  1.00  0.00     0.030 A 
HETATM   25  C21 UNL     1      26.799   7.158  47.977  1.00  0.00     0.031 A 
HETATM   26  C20 UNL     1      25.809   6.309  48.437  1.00  0.00     0.032 A 
BRANCH  24  27
HETATM   27  N2  UNL     1      29.095   7.709  47.446  1.00  0.00    -0.378 N 
HETATM   28  C3  UNL     1      28.968   8.615  46.305  1.00  0.00     0.153 C 
HETATM   29  C2  UNL     1      29.365   9.988  46.810  1.00  0.00     0.291 C 
HETATM   30  N1  UNL     1      30.759  10.015  47.215  1.00  0.00     0.087 N 
HETATM   31  C1  UNL     1      30.980  10.782  48.426  1.00  0.00     0.310 C 
HETATM   32  C23 UNL     1      31.302   8.674  47.337  1.00  0.00     0.291 C 
HETATM   33  C22 UNL     1      30.388   7.774  48.137  1.00  0.00     0.153 C 
ENDBRANCH  24  27
ENDBRANCH   1  21
TORSDOF 3
ENDMDL
MODEL 4
REMARK VINA RESULT:      -8.9      2.042      9.526
REMARK  3 active torsions:
REMARK  status: ('A' for Active; 'I' for Inactive)
REMARK    1  A    between atoms: N2_5  and  C4_6 
REMARK    2  A    between atoms: C7_9  and  N3_10 
REMARK       I    between atoms: N3_10  and  C8_11 
REMARK    3  A    between atoms: C8_11  and  C9_13 
ROOT
HETATM    1  N3  UNL     1      26.124   5.352  50.028  1.00  0.00    -0.326 N 
HETATM    2  C8  UNL     1      27.060   4.978  49.049  1.00  0.00     0.235 C 
HETATM    3  O1  UNL     1      27.152   3.711  48.899  1.00  0.00    -0.272 OA
HETATM    4  H10 UNL     1      26.001   6.368  50.200  1.00  0.00     0.169 HD
ENDROOT
BRANCH   2   5
HETATM    5  C9  UNL     1      27.891   5.822  48.228  1.00  0.00     0.186 C 
HETATM    6  C10 UNL     1      29.366   5.375  48.202  1.00  0.00     0.373 A 
HETATM    7  O2  UNL     1      30.456   4.809  47.973  1.00  0.00    -0.145 OA
HETATM    8  N4  UNL     1      30.474   5.951  48.953  1.00  0.00     0.109 N 
HETATM    9  C11 UNL     1      31.577   6.525  49.701  1.00  0.00     0.237 C 
HETATM   10  H12 UNL     1      29.942   6.555  49.671  1.00  0.00     0.328 HD
HETATM   11  C12 UNL     1      31.986   7.708  49.131  1.00  0.00     0.020 C 
HETATM   12  C13 UNL     1      31.583   8.479  47.956  1.00  0.00     0.148 C 
HETATM   13  N5  UNL     1      30.837   9.676  48.108  1.00  0.00    -0.386 N 
HETATM   14  C14 UNL     1      29.533   9.245  48.556  1.00  0.00     0.028 A 
HETATM   15  H17 UNL     1      30.826  10.715  48.036  1.00  0.00     0.160 HD
HETATM   16  C15 UNL     1      28.633   9.917  49.362  1.00  0.00     0.029 A 
HETATM   17  C19 UNL     1      29.030   8.014  48.312  1.00  0.00     0.037 A 
HETATM   18  C16 UNL     1      27.460   9.317  49.776  1.00  0.00     0.003 A 
HETATM   19  C17 UNL     1      27.106   8.030  49.429  1.00  0.00     0.008 A 
HETATM   20  C18 UNL     1      27.929   7.265  48.630  1.00  0.00    -0.038 A 
ENDBRANCH   2   5
BRANCH   1  21
HETATM   21  C7  UNL     1      25.527   4.162  50.593  1.00  0.00     0.034 A 
HETATM   22  C6  UNL     1      26.354   3.239  51.224  1.00  0.00     0.032 A 
HETATM   23  C5  UNL     1      25.879   2.079  51.792  1.00  0.00     0.031 A 
HETATM   24  C4  UNL     1      24.535   1.813  51.739  1.00  0.00     0.030 A 
HETATM   25  C21 UNL     1      23.700   2.710  51.121  1.00  0.00     0.031 A 
HETATM   26  C20 UNL     1      24.170   3.878  50.548  1.00  0.00     0.032 A 
BRANCH  24  27
HETATM   27  N2  UNL     1      23.985   0.626  52.318  1.00  0.00    -0.378 N 
HETATM   28  C3  UNL     1      24.701  -0.435  53.024  1.00  0.00     0.153 C 
HETATM   29  C2  UNL     1      23.969  -0.638  54.336  1.00  0.00     0.291 C 
HETATM   30  N1  UNL     1      22.618  -1.119  54.113  1.00  0.00     0.087 N 
HETATM   31  C1  UNL     1      21.649  -0.508  55.003  1.00  0.00     0.310 C 
HETATM   32  C23 UNL     1      22.223  -0.968  52.725  1.00  0.00     0.291 C 
HETATM   33  C22 UNL     1      22.538   0.416  52.203  1.00  0.00     0.153 C 
ENDBRANCH  24  27
ENDBRANCH   1  21
TORSDOF 3
ENDMDL
MODEL 5
REMARK VINA RESULT:      -8.8      3.295      4.119
REMARK  3 active torsions:
REMARK  status: ('A' for Active; 'I' for Inactive)
REMARK    1  A    between atoms: N2_5  and  C4_6 
REMARK    2  A    between atoms: C7_9  and  N3_10 
REMARK       I    between atoms: N3_10  and  C8_11 
REMARK    3  A    between atoms: C8_11  and  C9_13 
ROOT
HETATM    1  N3  UNL     1      24.848   3.650  50.321  1.00  0.00    -0.326 N 
HETATM    2  C8  UNL     1      24.299   4.063  51.547  1.00  0.00     0.235 C 
HETATM    3  O1  UNL     1      24.112   5.326  51.615  1.00  0.00    -0.272 OA
HETATM    4  H10 UNL     1      25.025   2.635  50.201  1.00  0.00     0.169 HD
ENDROOT
BRANCH   2   5
HETATM    5  C9  UNL     1      23.936   3.259  52.687  1.00  0.00     0.186 C 
HETATM    6  C10 UNL     1      25.151   2.617  53.386  1.00  0.00     0.373 A 
HETATM    7  O2  UNL     1      26.162   2.377  54.079  1.00  0.00    -0.145 OA
HETATM    8  N4  UNL     1      25.616   1.242  53.257  1.00  0.00     0.109 N 
HETATM    9  C11 UNL     1      26.078  -0.127  53.129  1.00  0.00     0.237 C 
HETATM   10  H12 UNL     1      25.058   0.917  52.393  1.00  0.00     0.328 HD
HETATM   11  C12 UNL     1      25.282  -0.978  53.861  1.00  0.00     0.020 C 
HETATM   12  C13 UNL     1      24.122  -0.808  54.734  1.00  0.00     0.148 C 
HETATM   13  N5  UNL     1      22.830  -1.185  54.289  1.00  0.00    -0.386 N 
HETATM   14  C14 UNL     1      22.492  -0.218  53.271  1.00  0.00     0.028 A 
HETATM   15  H17 UNL     1      22.032  -1.850  54.380  1.00  0.00     0.160 HD
HETATM   16  C15 UNL     1      21.686  -0.383  52.160  1.00  0.00     0.029 A 
HETATM   17  C19 UNL     1      23.027   1.022  53.213  1.00  0.00     0.037 A 
HETATM   18  C16 UNL     1      21.543   0.625  51.227  1.00  0.00     0.003 A 
HETATM   19  C17 UNL     1      22.179   1.844  51.329  1.00  0.00     0.008 A 
HETATM   20  C18 UNL     1      23.009   2.119  52.395  1.00  0.00    -0.038 A 
ENDBRANCH   2   5
BRANCH   1  21
HETATM   21  C7  UNL     1      25.046   4.808  49.477  1.00  0.00     0.034 A 
HETATM   22  C6  UNL     1      26.343   5.266  49.273  1.00  0.00     0.032 A 
HETATM   23  C5  UNL     1      26.631   6.358  48.486  1.00  0.00     0.031 A 
HETATM   24  C4  UNL     1      25.604   7.029  47.873  1.00  0.00     0.030 A 
HETATM   25  C21 UNL     1      24.316   6.593  48.061  1.00  0.00     0.031 A 
HETATM   26  C20 UNL     1      24.019   5.497  48.850  1.00  0.00     0.032 A 
BRANCH  24  27
HETATM   27  N2  UNL     1      25.846   8.165  47.039  1.00  0.00    -0.378 N 
HETATM   28  C3  UNL     1      24.871   9.143  46.560  1.00  0.00     0.153 C 
HETATM   29  C2  UNL     1      25.439  10.507  46.900  1.00  0.00     0.291 C 
HETATM   30  N1  UNL     1      26.673  10.755  46.177  1.00  0.00     0.087 N 
HETATM   31  C1  UNL     1      27.676  11.421  46.987  1.00  0.00     0.310 C 
HETATM   32  C23 UNL     1      27.199   9.537  45.589  1.00  0.00     0.291 C 
HETATM   33  C22 UNL     1      27.222   8.401  46.588  1.00  0.00     0.153 C 
ENDBRANCH  24  27
ENDBRANCH   1  21
TORSDOF 3
ENDMDL
MODEL 6
REMARK VINA RESULT:      -8.7      2.437      3.706
REMARK  3 active torsions:
REMARK  status: ('A' for Active; 'I' for Inactive)
REMARK    1  A    between atoms: N2_5  and  C4_6 
REMARK    2  A    between atoms: C7_9  and  N3_10 
REMARK       I    between atoms: N3_10  and  C8_11 
REMARK    3  A    between atoms: C8_11  and  C9_13 
ROOT
HETATM    1  N3  UNL     1      25.022   3.291  50.146  1.00  0.00    -0.326 N 
HETATM    2  C8  UNL     1      23.796   3.203  49.465  1.00  0.00     0.235 C 
HETATM    3  O1  UNL     1      23.583   4.190  48.680  1.00  0.00    -0.272 OA
HETATM    4  H10 UNL     1      25.256   2.520  50.799  1.00  0.00     0.169 HD
ENDROOT
BRANCH   2   5
HETATM    5  C9  UNL     1      22.795   2.169  49.544  1.00  0.00     0.186 C 
HETATM    6  C10 UNL     1      21.371   2.684  49.255  1.00  0.00     0.373 A 
HETATM    7  O2  UNL     1      20.308   3.077  48.728  1.00  0.00    -0.145 OA
HETATM    8  N4  UNL     1      20.334   2.998  50.230  1.00  0.00     0.109 N 
HETATM    9  C11 UNL     1      19.302   3.310  51.201  1.00  0.00     0.237 C 
HETATM   10  H12 UNL     1      20.909   3.015  51.143  1.00  0.00     0.328 HD
HETATM   11  C12 UNL     1      18.725   2.158  51.682  1.00  0.00     0.020 C 
HETATM   12  C13 UNL     1      18.899   0.731  51.420  1.00  0.00     0.148 C 
HETATM   13  N5  UNL     1      19.561  -0.095  52.364  1.00  0.00    -0.386 N 
HETATM   14  C14 UNL     1      20.944   0.317  52.312  1.00  0.00     0.028 A 
HETATM   15  H17 UNL     1      19.478  -0.859  53.068  1.00  0.00     0.160 HD
HETATM   16  C15 UNL     1      21.889   0.292  53.320  1.00  0.00     0.029 A 
HETATM   17  C19 UNL     1      21.506   0.906  51.233  1.00  0.00     0.037 A 
HETATM   18  C16 UNL     1      23.152   0.816  53.126  1.00  0.00     0.003 A 
HETATM   19  C17 UNL     1      23.557   1.393  51.941  1.00  0.00     0.008 A 
HETATM   20  C18 UNL     1      22.696   1.475  50.867  1.00  0.00    -0.038 A 
ENDBRANCH   2   5
BRANCH   1  21
HETATM   21  C7  UNL     1      25.697   4.507  49.750  1.00  0.00     0.034 A 
HETATM   22  C6  UNL     1      26.847   4.406  48.973  1.00  0.00     0.032 A 
HETATM   23  C5  UNL     1      27.556   5.506  48.548  1.00  0.00     0.031 A 
HETATM   24  C4  UNL     1      27.120   6.758  48.897  1.00  0.00     0.030 A 
HETATM   25  C21 UNL     1      25.987   6.881  49.662  1.00  0.00     0.031 A 
HETATM   26  C20 UNL     1      25.269   5.781  50.094  1.00  0.00     0.032 A 
BRANCH  24  27
HETATM   27  N2  UNL     1      27.814   7.935  48.476  1.00  0.00    -0.378 N 
HETATM   28  C3  UNL     1      27.288   9.296  48.386  1.00  0.00     0.153 C 
HETATM   29  C2  UNL     1      28.267  10.178  49.135  1.00  0.00     0.291 C 
HETATM   30  N1  UNL     1      29.566  10.187  48.487  1.00  0.00     0.087 N 
HETATM   31  C1  UNL     1      30.667  10.150  49.430  1.00  0.00     0.310 C 
HETATM   32  C23 UNL     1      29.678   9.120  47.509  1.00  0.00     0.291 C 
HETATM   33  C22 UNL     1      29.218   7.795  48.075  1.00  0.00     0.153 C 
ENDBRANCH  24  27
ENDBRANCH   1  21
TORSDOF 3
ENDMDL
MODEL 7
REMARK VINA RESULT:      -8.7      2.252      9.820
REMARK  3 active torsions:
REMARK  status: ('A' for Active; 'I' for Inactive)
REMARK    1  A    between atoms: N2_5  and  C4_6 
REMARK    2  A    between atoms: C7_9  and  N3_10 
REMARK       I    between atoms: N3_10  and  C8_11 
REMARK    3  A    between atoms: C8_11  and  C9_13 
ROOT
HETATM    1  N3  UNL     1      27.017   4.969  49.649  1.00  0.00    -0.326 N 
HETATM    2  C8  UNL     1      26.997   5.857  48.561  1.00  0.00     0.235 C 
HETATM    3  O1  UNL     1      25.816   6.119  48.146  1.00  0.00    -0.272 OA
HETATM    4  H10 UNL     1      27.946   4.714  50.035  1.00  0.00     0.169 HD
ENDROOT
BRANCH   2   5
HETATM    5  C9  UNL     1      28.109   6.482  47.888  1.00  0.00     0.186 C 
HETATM    6  C10 UNL     1      29.425   5.693  48.037  1.00  0.00     0.373 A 
HETATM    7  O2  UNL     1      30.370   4.883  47.930  1.00  0.00    -0.145 OA
HETATM    8  N4  UNL     1      30.525   5.980  48.948  1.00  0.00     0.109 N 
HETATM    9  C11 UNL     1      31.621   6.267  49.855  1.00  0.00     0.237 C 
HETATM   10  H12 UNL     1      30.060   6.690  49.614  1.00  0.00     0.328 HD
HETATM   11  C12 UNL     1      32.373   7.321  49.389  1.00  0.00     0.020 C 
HETATM   12  C13 UNL     1      32.328   8.174  48.204  1.00  0.00     0.148 C 
HETATM   13  N5  UNL     1      31.874   9.514  48.303  1.00  0.00    -0.386 N 
HETATM   14  C14 UNL     1      30.456   9.406  48.561  1.00  0.00     0.028 A 
HETATM   15  H17 UNL     1      32.120  10.526  48.271  1.00  0.00     0.160 HD
HETATM   16  C15 UNL     1      29.641  10.270  49.268  1.00  0.00     0.029 A 
HETATM   17  C19 UNL     1      29.713   8.335  48.205  1.00  0.00     0.037 A 
HETATM   18  C16 UNL     1      28.314   9.967  49.502  1.00  0.00     0.003 A 
HETATM   19  C17 UNL     1      27.715   8.806  49.062  1.00  0.00     0.008 A 
HETATM   20  C18 UNL     1      28.434   7.870  48.347  1.00  0.00    -0.038 A 
ENDBRANCH   2   5
BRANCH   1  21
HETATM   21  C7  UNL     1      25.659   4.602  49.986  1.00  0.00     0.034 A 
HETATM   22  C6  UNL     1      25.147   3.411  49.482  1.00  0.00     0.032 A 
HETATM   23  C5  UNL     1      23.868   2.979  49.748  1.00  0.00     0.031 A 
HETATM   24  C4  UNL     1      23.056   3.746  50.543  1.00  0.00     0.030 A 
HETATM   25  C21 UNL     1      23.541   4.925  51.052  1.00  0.00     0.031 A 
HETATM   26  C20 UNL     1      24.824   5.366  50.789  1.00  0.00     0.032 A 
BRANCH  24  27
HETATM   27  N2  UNL     1      21.721   3.341  50.858  1.00  0.00    -0.378 N 
HETATM   28  C3  UNL     1      20.592   3.200  49.940  1.00  0.00     0.153 C 
HETATM   29  C2  UNL     1      20.018   1.819  50.186  1.00  0.00     0.291 C 
HETATM   30  N1  UNL     1      19.482   1.706  51.531  1.00  0.00     0.087 N 
HETATM   31  C1  UNL     1      19.773   0.427  52.148  1.00  0.00     0.310 C 
HETATM   32  C23 UNL     1      19.921   2.805  52.370  1.00  0.00     0.291 C 
HETATM   33  C22 UNL     1      21.413   3.031  52.258  1.00  0.00     0.153 C 
ENDBRANCH  24  27
ENDBRANCH   1  21
TORSDOF 3
ENDMDL
MODEL 8
REMARK VINA RESULT:      -8.4      2.668      3.971
REMARK  3 active torsions:
REMARK  status: ('A' for Active; 'I' for Inactive)
REMARK    1  A    between atoms: N2_5  and  C4_6 
REMARK    2  A    between atoms: C7_9  and  N3_10 
REMARK       I    between atoms: N3_10  and  C8_11 
REMARK    3  A    between atoms: C8_11  and  C9_13 
ROOT
HETATM    1  N3  UNL     1      25.149   5.011  49.638  1.00  0.00    -0.326 N 
HETATM    2  C8  UNL     1      25.906   3.845  49.843  1.00  0.00     0.235 C 
HETATM    3  O1  UNL     1      27.165   4.035  49.729  1.00  0.00    -0.272 OA
HETATM    4  H10 UNL     1      24.118   4.925  49.716  1.00  0.00     0.169 HD
ENDROOT
BRANCH   2   5
HETATM    5  C9  UNL     1      25.445   2.516  50.158  1.00  0.00     0.186 C 
HETATM    6  C10 UNL     1      23.908   2.392  50.148  1.00  0.00     0.373 A 
HETATM    7  O2  UNL     1      22.704   2.272  49.836  1.00  0.00    -0.145 OA
HETATM    8  N4  UNL     1      23.019   2.379  51.303  1.00  0.00     0.109 N 
HETATM    9  C11 UNL     1      22.134   2.366  52.453  1.00  0.00     0.237 C 
HETATM   10  H12 UNL     1      23.685   2.724  52.079  1.00  0.00     0.328 HD
HETATM   11  C12 UNL     1      22.171   1.141  53.079  1.00  0.00     0.020 C 
HETATM   12  C13 UNL     1      22.866  -0.121  52.833  1.00  0.00     0.148 C 
HETATM   13  N5  UNL     1      23.959  -0.507  53.650  1.00  0.00    -0.386 N 
HETATM   14  C14 UNL     1      25.021   0.409  53.304  1.00  0.00     0.028 A 
HETATM   15  H17 UNL     1      24.319  -1.157  54.381  1.00  0.00     0.160 HD
HETATM   16  C15 UNL     1      26.053   0.872  54.099  1.00  0.00     0.029 A 
HETATM   17  C19 UNL     1      25.098   1.046  52.114  1.00  0.00     0.037 A 
HETATM   18  C16 UNL     1      26.937   1.826  53.635  1.00  0.00     0.003 A 
HETATM   19  C17 UNL     1      26.859   2.379  52.374  1.00  0.00     0.008 A 
HETATM   20  C18 UNL     1      25.869   1.993  51.495  1.00  0.00    -0.038 A 
ENDBRANCH   2   5
BRANCH   1  21
HETATM   21  C7  UNL     1      26.043   6.110  49.347  1.00  0.00     0.034 A 
HETATM   22  C6  UNL     1      26.942   5.976  48.295  1.00  0.00     0.032 A 
HETATM   23  C5  UNL     1      27.829   6.967  47.943  1.00  0.00     0.031 A 
HETATM   24  C4  UNL     1      27.835   8.141  48.653  1.00  0.00     0.030 A 
HETATM   25  C21 UNL     1      26.955   8.295  49.695  1.00  0.00     0.031 A 
HETATM   26  C20 UNL     1      26.061   7.304  50.055  1.00  0.00     0.032 A 
BRANCH  24  27
HETATM   27  N2  UNL     1      28.730   9.207  48.326  1.00  0.00    -0.378 N 
HETATM   28  C3  UNL     1      28.982   9.788  47.008  1.00  0.00     0.153 C 
HETATM   29  C2  UNL     1      28.823  11.286  47.170  1.00  0.00     0.291 C 
HETATM   30  N1  UNL     1      29.829  11.826  48.065  1.00  0.00     0.087 N 
HETATM   31  C1  UNL     1      29.305  12.844  48.955  1.00  0.00     0.310 C 
HETATM   32  C23 UNL     1      30.498  10.774  48.808  1.00  0.00     0.291 C 
HETATM   33  C22 UNL     1      29.508   9.806  49.416  1.00  0.00     0.153 C 
ENDBRANCH  24  27
ENDBRANCH   1  21
TORSDOF 3
ENDMDL
MODEL 9
REMARK VINA RESULT:      -8.4      2.628     10.207
REMARK  3 active torsions:
REMARK  status: ('A' for Active; 'I' for Inactive)
REMARK    1  A    between atoms: N2_5  and  C4_6 
REMARK    2  A    between atoms: C7_9  and  N3_10 
REMARK       I    between atoms: N3_10  and  C8_11 
REMARK    3  A    between atoms: C8_11  and  C9_13 
ROOT
HETATM    1  N3  UNL     1      28.861   6.753  47.545  1.00  0.00    -0.326 N 
HETATM    2  C8  UNL     1      30.097   6.476  48.153  1.00  0.00     0.235 C 
HETATM    3  O1  UNL     1      29.985   5.819  49.244  1.00  0.00    -0.272 OA
HETATM    4  H10 UNL     1      28.881   7.284  46.654  1.00  0.00     0.169 HD
ENDROOT
BRANCH   2   5
HETATM    5  C9  UNL     1      31.420   6.829  47.704  1.00  0.00     0.186 C 
HETATM    6  C10 UNL     1      31.435   8.061  46.777  1.00  0.00     0.373 A 
HETATM    7  O2  UNL     1      31.429   9.213  46.294  1.00  0.00    -0.145 OA
HETATM    8  N4  UNL     1      31.537   8.068  45.323  1.00  0.00     0.109 N 
HETATM    9  C11 UNL     1      31.639   8.075  43.876  1.00  0.00     0.237 C 
HETATM   10  H12 UNL     1      31.344   7.031  45.100  1.00  0.00     0.328 HD
HETATM   11  C12 UNL     1      32.934   7.835  43.481  1.00  0.00     0.020 C 
HETATM   12  C13 UNL     1      34.199   7.606  44.177  1.00  0.00     0.148 C 
HETATM   13  N5  UNL     1      34.764   6.306  44.227  1.00  0.00    -0.386 N 
HETATM   14  C14 UNL     1      33.886   5.555  45.094  1.00  0.00     0.028 A 
HETATM   15  H17 UNL     1      35.527   5.671  43.911  1.00  0.00     0.160 HD
HETATM   16  C15 UNL     1      33.604   4.202  45.071  1.00  0.00     0.029 A 
HETATM   17  C19 UNL     1      33.106   6.124  46.039  1.00  0.00     0.037 A 
HETATM   18  C16 UNL     1      32.661   3.656  45.920  1.00  0.00     0.003 A 
HETATM   19  C17 UNL     1      31.944   4.401  46.832  1.00  0.00     0.008 A 
HETATM   20  C18 UNL     1      32.142   5.761  46.941  1.00  0.00    -0.038 A 
ENDBRANCH   2   5
BRANCH   1  21
HETATM   21  C7  UNL     1      27.799   6.201  48.357  1.00  0.00     0.034 A 
HETATM   22  C6  UNL     1      27.735   4.821  48.520  1.00  0.00     0.032 A 
HETATM   23  C5  UNL     1      26.763   4.205  49.274  1.00  0.00     0.031 A 
HETATM   24  C4  UNL     1      25.813   4.974  49.896  1.00  0.00     0.030 A 
HETATM   25  C21 UNL     1      25.858   6.338  49.750  1.00  0.00     0.031 A 
HETATM   26  C20 UNL     1      26.832   6.965  48.994  1.00  0.00     0.032 A 
BRANCH  24  27
HETATM   27  N2  UNL     1      24.785   4.387  50.698  1.00  0.00    -0.378 N 
HETATM   28  C3  UNL     1      23.454   4.925  50.975  1.00  0.00     0.153 C 
HETATM   29  C2  UNL     1      22.474   3.814  50.655  1.00  0.00     0.291 C 
HETATM   30  N1  UNL     1      22.661   2.680  51.541  1.00  0.00     0.087 N 
HETATM   31  C1  UNL     1      22.541   1.406  50.858  1.00  0.00     0.310 C 
HETATM   32  C23 UNL     1      23.917   2.771  52.263  1.00  0.00     0.291 C 
HETATM   33  C22 UNL     1      25.068   3.098  51.338  1.00  0.00     0.153 C 
ENDBRANCH  24  27
ENDBRANCH   1  21
TORSDOF 3
ENDMDL
