MODEL 1
REMARK VINA RESULT:      -8.1      0.000      0.000
REMARK  10 active torsions:
REMARK  status: ('A' for Active; 'I' for Inactive)
REMARK    1  A    between atoms: C2_2  and  N1_3 
REMARK    2  A    between atoms: N1_3  and  C3_4 
REMARK    3  A    between atoms: N1_3  and  C5_6 
REMARK    4  A    between atoms: C5_6  and  C6_7 
REMARK    5  A    between atoms: C6_7  and  C7_8 
REMARK    6  A    between atoms: C9_10  and  O1_11 
REMARK    7  A    between atoms: C11_13  and  C12_14 
REMARK    8  A    between atoms: C16_20  and  N4_21 
REMARK    9  A    between atoms: N4_21  and  C17_22 
REMARK   10  A    between atoms: C21_27  and  P1_28 
ROOT
HETATM    1  C12 UNL     1      23.048   1.664  51.855  1.00  0.00     0.027 C 
HETATM    2  C13 UNL     1      22.394   1.776  50.723  1.00  0.00     0.009 A 
HETATM    3  C14 UNL     1      21.464   0.751  50.181  1.00  0.00     0.192 A 
HETATM    4  N2  UNL     1      20.900   1.209  48.950  1.00  0.00    -0.278 NA
HETATM    5  C15 UNL     1      21.084   2.284  48.323  1.00  0.00     0.229 A 
HETATM    6  N3  UNL     1      21.975   3.238  48.858  1.00  0.00    -0.224 NA
HETATM    7  C16 UNL     1      22.586   3.013  49.968  1.00  0.00     0.137 A 
ENDROOT
BRANCH   1   8
HETATM    8  C11 UNL     1      23.074   0.619  52.845  1.00  0.00     0.004 A 
HETATM    9  C7  UNL     1      24.015  -0.323  53.437  1.00  0.00    -0.041 A 
HETATM   10  C8  UNL     1      23.081  -0.811  54.214  1.00  0.00     0.045 A 
HETATM   11  C9  UNL     1      22.134   0.126  53.630  1.00  0.00     0.079 A 
BRANCH   9  12
HETATM   12  C6  UNL     1      25.476  -0.616  53.233  1.00  0.00     0.070 C 
BRANCH  12  13
HETATM   13  C5  UNL     1      26.302   0.058  54.278  1.00  0.00     0.277 C 
BRANCH  13  14
HETATM   14  N1  UNL     1      27.650   0.249  53.811  1.00  0.00     0.088 N 
BRANCH  14  15
HETATM   15  C2  UNL     1      28.242  -0.920  53.203  1.00  0.00     0.268 C 
HETATM   16  C1  UNL     1      29.691  -1.055  53.561  1.00  0.00     0.037 C 
ENDBRANCH  14  15
BRANCH  14  17
HETATM   17  C3  UNL     1      27.791   1.423  52.976  1.00  0.00     0.268 C 
HETATM   18  C4  UNL     1      28.620   2.474  53.629  1.00  0.00     0.037 C 
ENDBRANCH  14  17
ENDBRANCH  13  14
ENDBRANCH  12  13
ENDBRANCH   9  12
BRANCH  11  19
HETATM   19  O1  UNL     1      20.814   0.164  54.033  1.00  0.00    -0.355 OA
HETATM   20  C10 UNL     1      19.727  -0.414  53.372  1.00  0.00     0.210 C 
ENDBRANCH  11  19
ENDBRANCH   1   8
BRANCH   7  21
HETATM   21  N4  UNL     1      23.426   4.092  50.356  1.00  0.00    -0.340 N 
HETATM   22  H23 UNL     1      23.096   4.685  51.151  1.00  0.00     0.167 HD
BRANCH  21  23
HETATM   23  C17 UNL     1      24.672   4.484  49.794  1.00  0.00     0.034 A 
HETATM   24  C18 UNL     1      25.618   3.455  49.829  1.00  0.00     0.032 A 
HETATM   25  C19 UNL     1      26.907   3.649  49.321  1.00  0.00     0.045 A 
HETATM   26  C20 UNL     1      27.155   4.888  48.803  1.00  0.00     0.127 A 
HETATM   27  F1  UNL     1      28.414   5.090  48.304  1.00  0.00    -0.205 F 
HETATM   28  C21 UNL     1      26.259   5.938  48.744  1.00  0.00     0.004 A 
HETATM   29  C22 UNL     1      25.015   5.696  49.253  1.00  0.00     0.044 A 
BRANCH  28  30
HETATM   30  P1  UNL     1      26.688   7.567  48.029  1.00  0.00    -0.103 P 
HETATM   31  H26 UNL     1      28.036   7.961  48.428  1.00  0.00     0.059 HD
HETATM   32  H27 UNL     1      25.786   8.543  48.612  1.00  0.00     0.059 HD
ENDBRANCH  28  30
ENDBRANCH  21  23
ENDBRANCH   7  21
TORSDOF 10
ENDMDL
MODEL 2
REMARK VINA RESULT:      -7.6      1.880      5.443
REMARK  10 active torsions:
REMARK  status: ('A' for Active; 'I' for Inactive)
REMARK    1  A    between atoms: C2_2  and  N1_3 
REMARK    2  A    between atoms: N1_3  and  C3_4 
REMARK    3  A    between atoms: N1_3  and  C5_6 
REMARK    4  A    between atoms: C5_6  and  C6_7 
REMARK    5  A    between atoms: C6_7  and  C7_8 
REMARK    6  A    between atoms: C9_10  and  O1_11 
REMARK    7  A    between atoms: C11_13  and  C12_14 
REMARK    8  A    between atoms: C16_20  and  N4_21 
REMARK    9  A    between atoms: N4_21  and  C17_22 
REMARK   10  A    between atoms: C21_27  and  P1_28 
ROOT
HETATM    1  C12 UNL     1      24.327   1.685  52.146  1.00  0.00     0.027 C 
HETATM    2  C13 UNL     1      25.522   1.781  52.679  1.00  0.00     0.009 A 
HETATM    3  C14 UNL     1      25.861   1.383  54.070  1.00  0.00     0.192 A 
HETATM    4  N2  UNL     1      27.255   1.590  54.308  1.00  0.00    -0.278 NA
HETATM    5  C15 UNL     1      28.152   2.034  53.546  1.00  0.00     0.229 A 
HETATM    6  N3  UNL     1      27.802   2.409  52.231  1.00  0.00    -0.224 NA
HETATM    7  C16 UNL     1      26.588   2.295  51.820  1.00  0.00     0.137 A 
ENDROOT
BRANCH   1   8
HETATM    8  C11 UNL     1      23.078   1.206  52.680  1.00  0.00     0.004 A 
HETATM    9  C7  UNL     1      21.677   1.598  52.742  1.00  0.00    -0.041 A 
HETATM   10  C8  UNL     1      21.375   0.521  53.423  1.00  0.00     0.045 A 
HETATM   11  C9  UNL     1      22.772   0.120  53.367  1.00  0.00     0.079 A 
BRANCH   9  12
HETATM   12  C6  UNL     1      20.892   2.774  52.227  1.00  0.00     0.070 C 
BRANCH  12  13
HETATM   13  C5  UNL     1      21.008   2.880  50.743  1.00  0.00     0.277 C 
BRANCH  13  14
HETATM   14  N1  UNL     1      20.589   1.655  50.114  1.00  0.00     0.088 N 
BRANCH  14  15
HETATM   15  C2  UNL     1      19.194   1.622  49.741  1.00  0.00     0.268 C 
HETATM   16  C1  UNL     1      18.460   0.520  50.443  1.00  0.00     0.037 C 
ENDBRANCH  14  15
BRANCH  14  17
HETATM   17  C3  UNL     1      21.451   1.265  49.018  1.00  0.00     0.268 C 
HETATM   18  C4  UNL     1      22.584   2.215  48.837  1.00  0.00     0.037 C 
ENDBRANCH  14  17
ENDBRANCH  13  14
ENDBRANCH  12  13
ENDBRANCH   9  12
BRANCH  11  19
HETATM   19  O1  UNL     1      23.210  -1.052  53.949  1.00  0.00    -0.355 OA
HETATM   20  C10 UNL     1      23.458  -1.263  55.307  1.00  0.00     0.210 C 
ENDBRANCH  11  19
ENDBRANCH   1   8
BRANCH   7  21
HETATM   21  N4  UNL     1      26.431   2.704  50.468  1.00  0.00    -0.340 N 
HETATM   22  H23 UNL     1      26.447   1.951  49.742  1.00  0.00     0.167 HD
BRANCH  21  23
HETATM   23  C17 UNL     1      26.260   4.020  49.959  1.00  0.00     0.034 A 
HETATM   24  C18 UNL     1      27.255   4.369  49.040  1.00  0.00     0.032 A 
HETATM   25  C19 UNL     1      27.257   5.628  48.430  1.00  0.00     0.045 A 
HETATM   26  C20 UNL     1      26.238   6.460  48.794  1.00  0.00     0.127 A 
HETATM   27  F1  UNL     1      26.231   7.695  48.202  1.00  0.00    -0.205 F 
HETATM   28  C21 UNL     1      25.232   6.167  49.694  1.00  0.00     0.004 A 
HETATM   29  C22 UNL     1      25.275   4.925  50.262  1.00  0.00     0.044 A 
BRANCH  28  30
HETATM   30  P1  UNL     1      23.905   7.354  50.118  1.00  0.00    -0.103 P 
HETATM   31  H26 UNL     1      24.472   8.564  50.708  1.00  0.00     0.059 HD
HETATM   32  H27 UNL     1      23.091   6.738  51.150  1.00  0.00     0.059 HD
ENDBRANCH  28  30
ENDBRANCH  21  23
ENDBRANCH   7  21
TORSDOF 10
ENDMDL
MODEL 3
REMARK VINA RESULT:      -7.4      1.406      1.524
REMARK  10 active torsions:
REMARK  status: ('A' for Active; 'I' for Inactive)
REMARK    1  A    between atoms: C2_2  and  N1_3 
REMARK    2  A    between atoms: N1_3  and  C3_4 
REMARK    3  A    between atoms: N1_3  and  C5_6 
REMARK    4  A    between atoms: C5_6  and  C6_7 
REMARK    5  A    between atoms: C6_7  and  C7_8 
REMARK    6  A    between atoms: C9_10  and  O1_11 
REMARK    7  A    between atoms: C11_13  and  C12_14 
REMARK    8  A    between atoms: C16_20  and  N4_21 
REMARK    9  A    between atoms: N4_21  and  C17_22 
REMARK   10  A    between atoms: C21_27  and  P1_28 
ROOT
HETATM    1  C12 UNL     1      22.824   1.610  51.604  1.00  0.00     0.027 C 
HETATM    2  C13 UNL     1      21.783   2.403  51.511  1.00  0.00     0.009 A 
HETATM    3  C14 UNL     1      20.710   2.511  52.533  1.00  0.00     0.192 A 
HETATM    4  N2  UNL     1      19.751   3.492  52.130  1.00  0.00    -0.278 NA
HETATM    5  C15 UNL     1      19.710   4.211  51.099  1.00  0.00     0.229 A 
HETATM    6  N3  UNL     1      20.740   4.086  50.142  1.00  0.00    -0.224 NA
HETATM    7  C16 UNL     1      21.704   3.253  50.324  1.00  0.00     0.137 A 
ENDROOT
BRANCH   1   8
HETATM    8  C11 UNL     1      23.228   0.679  52.625  1.00  0.00     0.004 A 
HETATM    9  C7  UNL     1      24.432   0.009  53.099  1.00  0.00    -0.041 A 
HETATM   10  C8  UNL     1      23.757  -0.599  54.042  1.00  0.00     0.045 A 
HETATM   11  C9  UNL     1      22.549   0.065  53.577  1.00  0.00     0.079 A 
BRANCH   9  12
HETATM   12  C6  UNL     1      25.874   0.015  52.673  1.00  0.00     0.070 C 
BRANCH  12  13
HETATM   13  C5  UNL     1      26.746  -0.549  53.745  1.00  0.00     0.277 C 
BRANCH  13  14
HETATM   14  N1  UNL     1      27.681   0.442  54.210  1.00  0.00     0.088 N 
BRANCH  14  15
HETATM   15  C2  UNL     1      29.018  -0.058  54.433  1.00  0.00     0.268 C 
HETATM   16  C1  UNL     1      29.373  -1.138  53.457  1.00  0.00     0.037 C 
ENDBRANCH  14  15
BRANCH  14  17
HETATM   17  C3  UNL     1      27.680   1.638  53.395  1.00  0.00     0.268 C 
HETATM   18  C4  UNL     1      28.853   2.509  53.684  1.00  0.00     0.037 C 
ENDBRANCH  14  17
ENDBRANCH  13  14
ENDBRANCH  12  13
ENDBRANCH   9  12
BRANCH  11  19
HETATM   19  O1  UNL     1      21.330  -0.143  54.188  1.00  0.00    -0.355 OA
HETATM   20  C10 UNL     1      20.390  -1.122  53.857  1.00  0.00     0.210 C 
ENDBRANCH  11  19
ENDBRANCH   1   8
BRANCH   7  21
HETATM   21  N4  UNL     1      22.653   3.280  49.266  1.00  0.00    -0.340 N 
HETATM   22  H23 UNL     1      22.496   2.615  48.474  1.00  0.00     0.167 HD
BRANCH  21  23
HETATM   23  C17 UNL     1      23.810   4.098  49.140  1.00  0.00     0.034 A 
HETATM   24  C18 UNL     1      24.978   3.427  49.515  1.00  0.00     0.032 A 
HETATM   25  C19 UNL     1      26.221   4.067  49.460  1.00  0.00     0.045 A 
HETATM   26  C20 UNL     1      26.198   5.360  49.022  1.00  0.00     0.127 A 
HETATM   27  F1  UNL     1      27.409   5.996  48.964  1.00  0.00    -0.205 F 
HETATM   28  C21 UNL     1      25.075   6.068  48.640  1.00  0.00     0.004 A 
HETATM   29  C22 UNL     1      23.887   5.398  48.712  1.00  0.00     0.044 A 
BRANCH  28  30
HETATM   30  P1  UNL     1      25.147   7.804  48.065  1.00  0.00    -0.103 P 
HETATM   31  H26 UNL     1      25.153   8.720  49.204  1.00  0.00     0.059 HD
HETATM   32  H27 UNL     1      23.920   8.066  47.335  1.00  0.00     0.059 HD
ENDBRANCH  28  30
ENDBRANCH  21  23
ENDBRANCH   7  21
TORSDOF 10
ENDMDL
MODEL 4
REMARK VINA RESULT:      -7.3      2.514      4.728
REMARK  10 active torsions:
REMARK  status: ('A' for Active; 'I' for Inactive)
REMARK    1  A    between atoms: C2_2  and  N1_3 
REMARK    2  A    between atoms: N1_3  and  C3_4 
REMARK    3  A    between atoms: N1_3  and  C5_6 
REMARK    4  A    between atoms: C5_6  and  C6_7 
REMARK    5  A    between atoms: C6_7  and  C7_8 
REMARK    6  A    between atoms: C9_10  and  O1_11 
REMARK    7  A    between atoms: C11_13  and  C12_14 
REMARK    8  A    between atoms: C16_20  and  N4_21 
REMARK    9  A    between atoms: N4_21  and  C17_22 
REMARK   10  A    between atoms: C21_27  and  P1_28 
ROOT
HETATM    1  C12 UNL     1      25.355   2.922  51.639  1.00  0.00     0.027 C 
HETATM    2  C13 UNL     1      24.414   3.824  51.490  1.00  0.00     0.009 A 
HETATM    3  C14 UNL     1      23.329   4.081  52.472  1.00  0.00     0.192 A 
HETATM    4  N2  UNL     1      22.499   5.151  52.011  1.00  0.00    -0.278 NA
HETATM    5  C15 UNL     1      22.571   5.839  50.961  1.00  0.00     0.229 A 
HETATM    6  N3  UNL     1      23.609   5.571  50.043  1.00  0.00    -0.224 NA
HETATM    7  C16 UNL     1      24.467   4.641  50.279  1.00  0.00     0.137 A 
ENDROOT
BRANCH   1   8
HETATM    8  C11 UNL     1      25.621   1.983  52.697  1.00  0.00     0.004 A 
HETATM    9  C7  UNL     1      25.074   0.749  53.246  1.00  0.00    -0.041 A 
HETATM   10  C8  UNL     1      26.012   0.707  54.160  1.00  0.00     0.045 A 
HETATM   11  C9  UNL     1      26.565   1.939  53.619  1.00  0.00     0.079 A 
BRANCH   9  12
HETATM   12  C6  UNL     1      23.901  -0.125  52.900  1.00  0.00     0.070 C 
BRANCH  12  13
HETATM   13  C5  UNL     1      22.644   0.678  52.830  1.00  0.00     0.277 C 
BRANCH  13  14
HETATM   14  N1  UNL     1      21.555  -0.130  52.348  1.00  0.00     0.088 N 
BRANCH  14  15
HETATM   15  C2  UNL     1      20.475  -0.301  53.292  1.00  0.00     0.268 C 
HETATM   16  C1  UNL     1      20.941  -0.110  54.704  1.00  0.00     0.037 C 
ENDBRANCH  14  15
BRANCH  14  17
HETATM   17  C3  UNL     1      21.075   0.295  51.050  1.00  0.00     0.268 C 
HETATM   18  C4  UNL     1      22.018   1.242  50.391  1.00  0.00     0.037 C 
ENDBRANCH  14  17
ENDBRANCH  13  14
ENDBRANCH  12  13
ENDBRANCH   9  12
BRANCH  11  19
HETATM   19  O1  UNL     1      27.689   2.526  54.164  1.00  0.00    -0.355 OA
HETATM   20  C10 UNL     1      28.993   2.441  53.671  1.00  0.00     0.210 C 
ENDBRANCH  11  19
ENDBRANCH   1   8
BRANCH   7  21
HETATM   21  N4  UNL     1      25.444   4.530  49.253  1.00  0.00    -0.340 N 
HETATM   22  H23 UNL     1      25.396   3.680  48.645  1.00  0.00     0.167 HD
BRANCH  21  23
HETATM   23  C17 UNL     1      26.500   5.429  48.941  1.00  0.00     0.034 A 
HETATM   24  C18 UNL     1      27.691   4.763  48.631  1.00  0.00     0.032 A 
HETATM   25  C19 UNL     1      28.846   5.479  48.297  1.00  0.00     0.045 A 
HETATM   26  C20 UNL     1      28.716   6.838  48.296  1.00  0.00     0.127 A 
HETATM   27  F1  UNL     1      29.840   7.549  47.971  1.00  0.00    -0.205 F 
HETATM   28  C21 UNL     1      27.566   7.545  48.594  1.00  0.00     0.004 A 
HETATM   29  C22 UNL     1      26.468   6.799  48.913  1.00  0.00     0.044 A 
BRANCH  28  30
HETATM   30  P1  UNL     1      27.493   9.373  48.566  1.00  0.00    -0.103 P 
HETATM   31  H26 UNL     1      28.572   9.916  47.743  1.00  0.00     0.059 HD
HETATM   32  H27 UNL     1      27.740   9.833  49.921  1.00  0.00     0.059 HD
ENDBRANCH  28  30
ENDBRANCH  21  23
ENDBRANCH   7  21
TORSDOF 10
ENDMDL
MODEL 5
REMARK VINA RESULT:      -7.2      2.077      4.763
REMARK  10 active torsions:
REMARK  status: ('A' for Active; 'I' for Inactive)
REMARK    1  A    between atoms: C2_2  and  N1_3 
REMARK    2  A    between atoms: N1_3  and  C3_4 
REMARK    3  A    between atoms: N1_3  and  C5_6 
REMARK    4  A    between atoms: C5_6  and  C6_7 
REMARK    5  A    between atoms: C6_7  and  C7_8 
REMARK    6  A    between atoms: C9_10  and  O1_11 
REMARK    7  A    between atoms: C11_13  and  C12_14 
REMARK    8  A    between atoms: C16_20  and  N4_21 
REMARK    9  A    between atoms: N4_21  and  C17_22 
REMARK   10  A    between atoms: C21_27  and  P1_28 
ROOT
HETATM    1  C12 UNL     1      23.870   2.006  51.503  1.00  0.00     0.027 C 
HETATM    2  C13 UNL     1      23.281   2.277  50.362  1.00  0.00     0.009 A 
HETATM    3  C14 UNL     1      22.275   1.404  49.703  1.00  0.00     0.192 A 
HETATM    4  N2  UNL     1      21.814   2.018  48.497  1.00  0.00    -0.278 NA
HETATM    5  C15 UNL     1      22.134   3.114  47.971  1.00  0.00     0.229 A 
HETATM    6  N3  UNL     1      23.095   3.922  48.615  1.00  0.00    -0.224 NA
HETATM    7  C16 UNL     1      23.630   3.544  49.723  1.00  0.00     0.137 A 
ENDROOT
BRANCH   1   8
HETATM    8  C11 UNL     1      23.746   0.888  52.400  1.00  0.00     0.004 A 
HETATM    9  C7  UNL     1      22.714   0.019  52.952  1.00  0.00    -0.041 A 
HETATM   10  C8  UNL     1      23.606  -0.652  53.637  1.00  0.00     0.045 A 
HETATM   11  C9  UNL     1      24.643   0.208  53.092  1.00  0.00     0.079 A 
BRANCH   9  12
HETATM   12  C6  UNL     1      21.221  -0.068  52.796  1.00  0.00     0.070 C 
BRANCH  12  13
HETATM   13  C5  UNL     1      20.583   1.255  53.063  1.00  0.00     0.277 C 
BRANCH  13  14
HETATM   14  N1  UNL     1      19.417   1.429  52.236  1.00  0.00     0.088 N 
BRANCH  14  15
HETATM   15  C2  UNL     1      19.414   2.646  51.457  1.00  0.00     0.268 C 
HETATM   16  C1  UNL     1      20.357   3.665  52.022  1.00  0.00     0.037 C 
ENDBRANCH  14  15
BRANCH  14  17
HETATM   17  C3  UNL     1      19.129   0.267  51.423  1.00  0.00     0.268 C 
HETATM   18  C4  UNL     1      17.715  -0.179  51.570  1.00  0.00     0.037 C 
ENDBRANCH  14  17
ENDBRANCH  13  14
ENDBRANCH  12  13
ENDBRANCH   9  12
BRANCH  11  19
HETATM   19  O1  UNL     1      25.971   0.042  53.429  1.00  0.00    -0.355 OA
HETATM   20  C10 UNL     1      27.013  -0.295  52.561  1.00  0.00     0.210 C 
ENDBRANCH  11  19
ENDBRANCH   1   8
BRANCH   7  21
HETATM   21  N4  UNL     1      24.560   4.494  50.229  1.00  0.00    -0.340 N 
HETATM   22  H23 UNL     1      24.468   4.752  51.239  1.00  0.00     0.167 HD
BRANCH  21  23
HETATM   23  C17 UNL     1      25.609   5.156  49.536  1.00  0.00     0.034 A 
HETATM   24  C18 UNL     1      26.696   4.311  49.284  1.00  0.00     0.032 A 
HETATM   25  C19 UNL     1      27.828   4.781  48.610  1.00  0.00     0.045 A 
HETATM   26  C20 UNL     1      27.784   6.092  48.230  1.00  0.00     0.127 A 
HETATM   27  F1  UNL     1      28.887   6.562  47.570  1.00  0.00    -0.205 F 
HETATM   28  C21 UNL     1      26.739   6.968  48.452  1.00  0.00     0.004 A 
HETATM   29  C22 UNL     1      25.658   6.459  49.114  1.00  0.00     0.044 A 
BRANCH  28  30
HETATM   30  P1  UNL     1      26.776   8.713  47.902  1.00  0.00    -0.103 P 
HETATM   31  H26 UNL     1      26.466   8.806  46.477  1.00  0.00     0.059 HD
HETATM   32  H27 UNL     1      28.141   9.182  48.056  1.00  0.00     0.059 HD
ENDBRANCH  28  30
ENDBRANCH  21  23
ENDBRANCH   7  21
TORSDOF 10
ENDMDL
MODEL 6
REMARK VINA RESULT:      -7.2      2.609      5.450
REMARK  10 active torsions:
REMARK  status: ('A' for Active; 'I' for Inactive)
REMARK    1  A    between atoms: C2_2  and  N1_3 
REMARK    2  A    between atoms: N1_3  and  C3_4 
REMARK    3  A    between atoms: N1_3  and  C5_6 
REMARK    4  A    between atoms: C5_6  and  C6_7 
REMARK    5  A    between atoms: C6_7  and  C7_8 
REMARK    6  A    between atoms: C9_10  and  O1_11 
REMARK    7  A    between atoms: C11_13  and  C12_14 
REMARK    8  A    between atoms: C16_20  and  N4_21 
REMARK    9  A    between atoms: N4_21  and  C17_22 
REMARK   10  A    between atoms: C21_27  and  P1_28 
ROOT
HETATM    1  C12 UNL     1      23.807   3.107  50.787  1.00  0.00     0.027 C 
HETATM    2  C13 UNL     1      24.844   2.790  51.526  1.00  0.00     0.009 A 
HETATM    3  C14 UNL     1      24.769   2.353  52.944  1.00  0.00     0.192 A 
HETATM    4  N2  UNL     1      26.080   2.055  53.430  1.00  0.00    -0.278 NA
HETATM    5  C15 UNL     1      27.194   2.117  52.851  1.00  0.00     0.229 A 
HETATM    6  N3  UNL     1      27.238   2.539  51.506  1.00  0.00    -0.224 NA
HETATM    7  C16 UNL     1      26.155   2.852  50.883  1.00  0.00     0.137 A 
ENDROOT
BRANCH   1   8
HETATM    8  C11 UNL     1      22.397   3.129  51.079  1.00  0.00     0.004 A 
HETATM    9  C7  UNL     1      21.275   2.207  51.194  1.00  0.00    -0.041 A 
HETATM   10  C8  UNL     1      20.460   3.189  51.487  1.00  0.00     0.045 A 
HETATM   11  C9  UNL     1      21.573   4.118  51.375  1.00  0.00     0.079 A 
BRANCH   9  12
HETATM   12  C6  UNL     1      21.118   0.719  51.037  1.00  0.00     0.070 C 
BRANCH  12  13
HETATM   13  C5  UNL     1      21.608   0.004  52.252  1.00  0.00     0.277 C 
BRANCH  13  14
HETATM   14  N1  UNL     1      20.546  -0.145  53.213  1.00  0.00     0.088 N 
BRANCH  14  15
HETATM   15  C2  UNL     1      19.221  -0.186  52.637  1.00  0.00     0.268 C 
HETATM   16  C1  UNL     1      18.390  -1.276  53.242  1.00  0.00     0.037 C 
ENDBRANCH  14  15
BRANCH  14  17
HETATM   17  C3  UNL     1      20.770  -1.242  54.130  1.00  0.00     0.268 C 
HETATM   18  C4  UNL     1      22.063  -1.104  54.857  1.00  0.00     0.037 C 
ENDBRANCH  14  17
ENDBRANCH  13  14
ENDBRANCH  12  13
ENDBRANCH   9  12
BRANCH  11  19
HETATM   19  O1  UNL     1      21.408   5.472  51.583  1.00  0.00    -0.355 OA
HETATM   20  C10 UNL     1      21.408   6.469  50.604  1.00  0.00     0.210 C 
ENDBRANCH  11  19
ENDBRANCH   1   8
BRANCH   7  21
HETATM   21  N4  UNL     1      26.395   3.236  49.535  1.00  0.00    -0.340 N 
HETATM   22  H23 UNL     1      26.277   2.496  48.806  1.00  0.00     0.167 HD
BRANCH  21  23
HETATM   23  C17 UNL     1      26.787   4.509  49.038  1.00  0.00     0.034 A 
HETATM   24  C18 UNL     1      25.710   5.397  48.943  1.00  0.00     0.032 A 
HETATM   25  C19 UNL     1      25.897   6.702  48.474  1.00  0.00     0.045 A 
HETATM   26  C20 UNL     1      27.178   7.025  48.129  1.00  0.00     0.127 A 
HETATM   27  F1  UNL     1      27.371   8.300  47.668  1.00  0.00    -0.205 F 
HETATM   28  C21 UNL     1      28.275   6.189  48.203  1.00  0.00     0.004 A 
HETATM   29  C22 UNL     1      28.039   4.927  48.667  1.00  0.00     0.044 A 
BRANCH  28  30
HETATM   30  P1  UNL     1      29.958   6.718  47.714  1.00  0.00    -0.103 P 
HETATM   31  H26 UNL     1      30.129   6.604  46.268  1.00  0.00     0.059 HD
HETATM   32  H27 UNL     1      30.892   5.782  48.313  1.00  0.00     0.059 HD
ENDBRANCH  28  30
ENDBRANCH  21  23
ENDBRANCH   7  21
TORSDOF 10
ENDMDL
MODEL 7
REMARK VINA RESULT:      -7.0      3.152      6.078
REMARK  10 active torsions:
REMARK  status: ('A' for Active; 'I' for Inactive)
REMARK    1  A    between atoms: C2_2  and  N1_3 
REMARK    2  A    between atoms: N1_3  and  C3_4 
REMARK    3  A    between atoms: N1_3  and  C5_6 
REMARK    4  A    between atoms: C5_6  and  C6_7 
REMARK    5  A    between atoms: C6_7  and  C7_8 
REMARK    6  A    between atoms: C9_10  and  O1_11 
REMARK    7  A    between atoms: C11_13  and  C12_14 
REMARK    8  A    between atoms: C16_20  and  N4_21 
REMARK    9  A    between atoms: N4_21  and  C17_22 
REMARK   10  A    between atoms: C21_27  and  P1_28 
ROOT
HETATM    1  C12 UNL     1      22.287   1.550  52.469  1.00  0.00     0.027 C 
HETATM    2  C13 UNL     1      22.342   0.622  53.395  1.00  0.00     0.009 A 
HETATM    3  C14 UNL     1      21.258   0.337  54.370  1.00  0.00     0.192 A 
HETATM    4  N2  UNL     1      21.635  -0.757  55.210  1.00  0.00    -0.278 NA
HETATM    5  C15 UNL     1      22.687  -1.446  55.222  1.00  0.00     0.229 A 
HETATM    6  N3  UNL     1      23.703  -1.151  54.288  1.00  0.00    -0.224 NA
HETATM    7  C16 UNL     1      23.552  -0.197  53.437  1.00  0.00     0.137 A 
ENDROOT
BRANCH   1   8
HETATM    8  C11 UNL     1      21.260   2.499  52.128  1.00  0.00     0.004 A 
HETATM    9  C7  UNL     1      21.113   3.923  51.855  1.00  0.00    -0.041 A 
HETATM   10  C8  UNL     1      19.827   3.782  51.655  1.00  0.00     0.045 A 
HETATM   11  C9  UNL     1      19.962   2.359  51.925  1.00  0.00     0.079 A 
BRANCH   9  12
HETATM   12  C6  UNL     1      22.063   5.089  51.819  1.00  0.00     0.070 C 
BRANCH  12  13
HETATM   13  C5  UNL     1      22.668   5.237  50.463  1.00  0.00     0.277 C 
BRANCH  13  14
HETATM   14  N1  UNL     1      24.092   5.034  50.520  1.00  0.00     0.088 N 
BRANCH  14  15
HETATM   15  C2  UNL     1      24.558   3.870  49.801  1.00  0.00     0.268 C 
HETATM   16  C1  UNL     1      25.254   2.902  50.709  1.00  0.00     0.037 C 
ENDBRANCH  14  15
BRANCH  14  17
HETATM   17  C3  UNL     1      24.842   6.221  50.169  1.00  0.00     0.268 C 
HETATM   18  C4  UNL     1      25.545   6.069  48.864  1.00  0.00     0.037 C 
ENDBRANCH  14  17
ENDBRANCH  13  14
ENDBRANCH  12  13
ENDBRANCH   9  12
BRANCH  11  19
HETATM   19  O1  UNL     1      18.876   1.509  51.881  1.00  0.00    -0.355 OA
HETATM   20  C10 UNL     1      18.825   0.257  51.264  1.00  0.00     0.210 C 
ENDBRANCH  11  19
ENDBRANCH   1   8
BRANCH   7  21
HETATM   21  N4  UNL     1      24.670  -0.061  52.569  1.00  0.00    -0.340 N 
HETATM   22  H23 UNL     1      24.464   0.136  51.563  1.00  0.00     0.167 HD
BRANCH  21  23
HETATM   23  C17 UNL     1      26.051  -0.166  52.888  1.00  0.00     0.034 A 
HETATM   24  C18 UNL     1      26.561  -1.443  52.629  1.00  0.00     0.032 A 
HETATM   25  C19 UNL     1      27.905  -1.742  52.879  1.00  0.00     0.045 A 
HETATM   26  C20 UNL     1      28.653  -0.715  53.380  1.00  0.00     0.127 A 
HETATM   27  F1  UNL     1      29.969  -0.997  53.629  1.00  0.00    -0.205 F 
HETATM   28  C21 UNL     1      28.200   0.561  53.655  1.00  0.00     0.004 A 
HETATM   29  C22 UNL     1      26.882   0.801  53.393  1.00  0.00     0.044 A 
BRANCH  28  30
HETATM   30  P1  UNL     1      29.285   1.872  54.329  1.00  0.00    -0.103 P 
HETATM   31  H26 UNL     1      30.102   2.455  53.268  1.00  0.00     0.059 HD
HETATM   32  H27 UNL     1      30.205   1.235  55.252  1.00  0.00     0.059 HD
ENDBRANCH  28  30
ENDBRANCH  21  23
ENDBRANCH   7  21
TORSDOF 10
ENDMDL
MODEL 8
REMARK VINA RESULT:      -7.0      3.370      5.925
REMARK  10 active torsions:
REMARK  status: ('A' for Active; 'I' for Inactive)
REMARK    1  A    between atoms: C2_2  and  N1_3 
REMARK    2  A    between atoms: N1_3  and  C3_4 
REMARK    3  A    between atoms: N1_3  and  C5_6 
REMARK    4  A    between atoms: C5_6  and  C6_7 
REMARK    5  A    between atoms: C6_7  and  C7_8 
REMARK    6  A    between atoms: C9_10  and  O1_11 
REMARK    7  A    between atoms: C11_13  and  C12_14 
REMARK    8  A    between atoms: C16_20  and  N4_21 
REMARK    9  A    between atoms: N4_21  and  C17_22 
REMARK   10  A    between atoms: C21_27  and  P1_28 
ROOT
HETATM    1  C12 UNL     1      24.840   2.348  52.752  1.00  0.00     0.027 C 
HETATM    2  C13 UNL     1      25.426   2.843  51.688  1.00  0.00     0.009 A 
HETATM    3  C14 UNL     1      26.508   2.165  50.928  1.00  0.00     0.192 A 
HETATM    4  N2  UNL     1      26.892   2.967  49.809  1.00  0.00    -0.278 NA
HETATM    5  C15 UNL     1      26.462   4.085  49.426  1.00  0.00     0.229 A 
HETATM    6  N3  UNL     1      25.437   4.709  50.168  1.00  0.00    -0.224 NA
HETATM    7  C16 UNL     1      24.950   4.142  51.216  1.00  0.00     0.137 A 
ENDROOT
BRANCH   1   8
HETATM    8  C11 UNL     1      25.031   1.108  53.459  1.00  0.00     0.004 A 
HETATM    9  C7  UNL     1      24.339  -0.152  53.692  1.00  0.00    -0.041 A 
HETATM   10  C8  UNL     1      25.322  -0.587  54.439  1.00  0.00     0.045 A 
HETATM   11  C9  UNL     1      26.022   0.667  54.213  1.00  0.00     0.079 A 
BRANCH   9  12
HETATM   12  C6  UNL     1      23.019  -0.723  53.251  1.00  0.00     0.070 C 
BRANCH  12  13
HETATM   13  C5  UNL     1      21.936   0.299  53.362  1.00  0.00     0.277 C 
BRANCH  13  14
HETATM   14  N1  UNL     1      20.829  -0.043  52.508  1.00  0.00     0.088 N 
BRANCH  14  15
HETATM   15  C2  UNL     1      19.625  -0.419  53.213  1.00  0.00     0.268 C 
HETATM   16  C1  UNL     1      18.429  -0.399  52.310  1.00  0.00     0.037 C 
ENDBRANCH  14  15
BRANCH  14  17
HETATM   17  C3  UNL     1      20.572   0.960  51.496  1.00  0.00     0.268 C 
HETATM   18  C4  UNL     1      21.466   0.801  50.316  1.00  0.00     0.037 C 
ENDBRANCH  14  17
ENDBRANCH  13  14
ENDBRANCH  12  13
ENDBRANCH   9  12
BRANCH  11  19
HETATM   19  O1  UNL     1      27.262   0.913  54.767  1.00  0.00    -0.355 OA
HETATM   20  C10 UNL     1      28.500   0.568  54.219  1.00  0.00     0.210 C 
ENDBRANCH  11  19
ENDBRANCH   1   8
BRANCH   7  21
HETATM   21  N4  UNL     1      23.918   4.910  51.820  1.00  0.00    -0.340 N 
HETATM   22  H23 UNL     1      24.048   5.169  52.825  1.00  0.00     0.167 HD
BRANCH  21  23
HETATM   23  C17 UNL     1      22.708   5.375  51.235  1.00  0.00     0.034 A 
HETATM   24  C18 UNL     1      22.750   6.743  50.945  1.00  0.00     0.032 A 
HETATM   25  C19 UNL     1      21.651   7.386  50.365  1.00  0.00     0.045 A 
HETATM   26  C20 UNL     1      20.570   6.590  50.111  1.00  0.00     0.127 A 
HETATM   27  F1  UNL     1      19.489   7.210  49.543  1.00  0.00    -0.205 F 
HETATM   28  C21 UNL     1      20.477   5.238  50.377  1.00  0.00     0.004 A 
HETATM   29  C22 UNL     1      21.576   4.659  50.944  1.00  0.00     0.044 A 
BRANCH  28  30
HETATM   30  P1  UNL     1      18.979   4.256  50.000  1.00  0.00    -0.103 P 
HETATM   31  H26 UNL     1      19.112   3.598  48.703  1.00  0.00     0.059 HD
HETATM   32  H27 UNL     1      17.875   5.190  49.875  1.00  0.00     0.059 HD
ENDBRANCH  28  30
ENDBRANCH  21  23
ENDBRANCH   7  21
TORSDOF 10
ENDMDL
MODEL 9
REMARK VINA RESULT:      -7.0      3.335      4.575
REMARK  10 active torsions:
REMARK  status: ('A' for Active; 'I' for Inactive)
REMARK    1  A    between atoms: C2_2  and  N1_3 
REMARK    2  A    between atoms: N1_3  and  C3_4 
REMARK    3  A    between atoms: N1_3  and  C5_6 
REMARK    4  A    between atoms: C5_6  and  C6_7 
REMARK    5  A    between atoms: C6_7  and  C7_8 
REMARK    6  A    between atoms: C9_10  and  O1_11 
REMARK    7  A    between atoms: C11_13  and  C12_14 
REMARK    8  A    between atoms: C16_20  and  N4_21 
REMARK    9  A    between atoms: N4_21  and  C17_22 
REMARK   10  A    between atoms: C21_27  and  P1_28 
ROOT
HETATM    1  C12 UNL     1      24.232   3.651  51.710  1.00  0.00     0.027 C 
HETATM    2  C13 UNL     1      25.053   4.126  50.804  1.00  0.00     0.009 A 
HETATM    3  C14 UNL     1      26.119   3.336  50.134  1.00  0.00     0.192 A 
HETATM    4  N2  UNL     1      26.802   4.153  49.180  1.00  0.00    -0.278 NA
HETATM    5  C15 UNL     1      26.626   5.359  48.869  1.00  0.00     0.229 A 
HETATM    6  N3  UNL     1      25.610   6.087  49.524  1.00  0.00    -0.224 NA
HETATM    7  C16 UNL     1      24.876   5.525  50.420  1.00  0.00     0.137 A 
ENDROOT
BRANCH   1   8
HETATM    8  C11 UNL     1      24.104   2.340  52.291  1.00  0.00     0.004 A 
HETATM    9  C7  UNL     1      24.836   1.446  53.178  1.00  0.00    -0.041 A 
HETATM   10  C8  UNL     1      23.901   0.535  53.079  1.00  0.00     0.045 A 
HETATM   11  C9  UNL     1      23.162   1.420  52.193  1.00  0.00     0.079 A 
BRANCH   9  12
HETATM   12  C6  UNL     1      26.145   1.536  53.913  1.00  0.00     0.070 C 
BRANCH  12  13
HETATM   13  C5  UNL     1      26.402   0.288  54.692  1.00  0.00     0.277 C 
BRANCH  13  14
HETATM   14  N1  UNL     1      27.572  -0.387  54.192  1.00  0.00     0.088 N 
BRANCH  14  15
HETATM   15  C2  UNL     1      27.527  -0.692  52.781  1.00  0.00     0.268 C 
HETATM   16  C1  UNL     1      26.835  -1.995  52.519  1.00  0.00     0.037 C 
ENDBRANCH  14  15
BRANCH  14  17
HETATM   17  C3  UNL     1      28.803   0.278  54.563  1.00  0.00     0.268 C 
HETATM   18  C4  UNL     1      29.923  -0.076  53.647  1.00  0.00     0.037 C 
ENDBRANCH  14  17
ENDBRANCH  13  14
ENDBRANCH  12  13
ENDBRANCH   9  12
BRANCH  11  19
HETATM   19  O1  UNL     1      21.946   1.052  51.654  1.00  0.00    -0.355 OA
HETATM   20  C10 UNL     1      21.643   0.924  50.296  1.00  0.00     0.210 C 
ENDBRANCH  11  19
ENDBRANCH   1   8
BRANCH   7  21
HETATM   21  N4  UNL     1      23.898   6.408  50.954  1.00  0.00    -0.340 N 
HETATM   22  H23 UNL     1      24.157   6.928  51.824  1.00  0.00     0.167 HD
BRANCH  21  23
HETATM   23  C17 UNL     1      22.592   6.678  50.461  1.00  0.00     0.034 A 
HETATM   24  C18 UNL     1      22.427   8.021  50.103  1.00  0.00     0.032 A 
HETATM   25  C19 UNL     1      21.207   8.481  49.595  1.00  0.00     0.045 A 
HETATM   26  C20 UNL     1      20.224   7.540  49.481  1.00  0.00     0.127 A 
HETATM   27  F1  UNL     1      19.026   7.981  48.986  1.00  0.00    -0.205 F 
HETATM   28  C21 UNL     1      20.334   6.205  49.820  1.00  0.00     0.004 A 
HETATM   29  C22 UNL     1      21.545   5.807  50.310  1.00  0.00     0.044 A 
BRANCH  28  30
HETATM   30  P1  UNL     1      18.953   5.019  49.631  1.00  0.00    -0.103 P 
HETATM   31  H26 UNL     1      17.739   5.712  49.205  1.00  0.00     0.059 HD
HETATM   32  H27 UNL     1      18.674   4.473  50.947  1.00  0.00     0.059 HD
ENDBRANCH  28  30
ENDBRANCH  21  23
ENDBRANCH   7  21
TORSDOF 10
ENDMDL
