MODEL 1
REMARK VINA RESULT:      -9.0      0.000      0.000
REMARK  1 active torsions:
REMARK  status: ('A' for Active; 'I' for Inactive)
REMARK       I    between atoms: C2_2  and  N1_4 
REMARK    1  A    between atoms: C10_15  and  C11_16 
ROOT
HETATM    1  C1  UNL     1      28.989   1.025  54.348  1.00  0.00     0.118 C 
HETATM    2  C2  UNL     1      27.961   1.530  53.416  1.00  0.00     0.223 C 
HETATM    3  O1  UNL     1      28.448   2.458  52.705  1.00  0.00    -0.273 OA
HETATM    4  N1  UNL     1      26.626   1.046  53.333  1.00  0.00    -0.303 N 
HETATM    5  C3  UNL     1      26.129   0.001  54.156  1.00  0.00     0.100 A 
HETATM    6  C4  UNL     1      24.879  -0.422  54.049  1.00  0.00     0.031 A 
HETATM    7  C5  UNL     1      24.011   0.200  53.068  1.00  0.00    -0.005 A 
HETATM    8  C6  UNL     1      22.785  -0.346  53.091  1.00  0.00     0.102 C 
HETATM    9  N2  UNL     1      21.695   0.051  52.239  1.00  0.00    -0.344 N 
HETATM   10  C7  UNL     1      20.306   0.002  52.720  1.00  0.00     0.274 A 
HETATM   11  N3  UNL     1      19.598   0.558  51.633  1.00  0.00    -0.282 NA
HETATM   12  C8  UNL     1      20.357   0.849  50.629  1.00  0.00     0.133 A 
HETATM   13  C9  UNL     1      21.787   0.525  50.871  1.00  0.00     0.250 A 
HETATM   14  N4  UNL     1      22.637   1.647  50.676  1.00  0.00    -0.257 NA
HETATM   15  C10 UNL     1      23.763   1.964  51.219  1.00  0.00     0.078 C 
HETATM   16  C17 UNL     1      24.562   1.281  52.231  1.00  0.00     0.021 A 
HETATM   17  C18 UNL     1      25.814   1.686  52.358  1.00  0.00     0.114 A 
ENDROOT
BRANCH  15  18
HETATM   18  C11 UNL     1      24.382   3.226  50.772  1.00  0.00     0.015 A 
HETATM   19  C12 UNL     1      25.352   3.152  49.793  1.00  0.00     0.015 A 
HETATM   20  C13 UNL     1      25.968   4.316  49.335  1.00  0.00     0.001 A 
HETATM   21  C14 UNL     1      25.615   5.536  49.854  1.00  0.00     0.002 A 
HETATM   22  C15 UNL     1      24.639   5.590  50.835  1.00  0.00     0.025 A 
HETATM   23  C16 UNL     1      24.014   4.454  51.305  1.00  0.00     0.046 A 
HETATM   24 CL1  UNL     1      22.768   4.523  52.557  1.00  0.00    -0.083 Cl
ENDBRANCH  15  18
TORSDOF 1
ENDMDL
MODEL 2
REMARK VINA RESULT:      -8.9      2.619      5.616
REMARK  1 active torsions:
REMARK  status: ('A' for Active; 'I' for Inactive)
REMARK       I    between atoms: C2_2  and  N1_4 
REMARK    1  A    between atoms: C10_15  and  C11_16 
ROOT
HETATM    1  C1  UNL     1      21.995  -1.036  54.927  1.00  0.00     0.118 C 
HETATM    2  C2  UNL     1      23.282  -0.566  54.376  1.00  0.00     0.223 C 
HETATM    3  O1  UNL     1      24.236  -1.188  54.929  1.00  0.00    -0.273 OA
HETATM    4  N1  UNL     1      23.424   0.434  53.375  1.00  0.00    -0.303 N 
HETATM    5  C3  UNL     1      22.319   1.102  52.785  1.00  0.00     0.100 A 
HETATM    6  C4  UNL     1      22.493   2.029  51.855  1.00  0.00     0.031 A 
HETATM    7  C5  UNL     1      23.842   2.357  51.438  1.00  0.00    -0.005 A 
HETATM    8  C6  UNL     1      23.838   3.310  50.493  1.00  0.00     0.102 C 
HETATM    9  N2  UNL     1      25.018   3.855  49.873  1.00  0.00    -0.344 N 
HETATM   10  C7  UNL     1      25.064   5.263  49.451  1.00  0.00     0.274 A 
HETATM   11  N3  UNL     1      26.397   5.392  49.004  1.00  0.00    -0.282 NA
HETATM   12  C8  UNL     1      27.060   4.285  49.063  1.00  0.00     0.133 A 
HETATM   13  C9  UNL     1      26.254   3.153  49.586  1.00  0.00     0.250 A 
HETATM   14  N4  UNL     1      26.865   2.523  50.704  1.00  0.00    -0.257 NA
HETATM   15  C10 UNL     1      26.355   1.908  51.716  1.00  0.00     0.078 C 
HETATM   16  C17 UNL     1      24.965   1.642  52.072  1.00  0.00     0.021 A 
HETATM   17  C18 UNL     1      24.764   0.721  52.999  1.00  0.00     0.114 A 
ENDROOT
BRANCH  15  18
HETATM   18  C11 UNL     1      27.302   1.366  52.708  1.00  0.00     0.015 A 
HETATM   19  C12 UNL     1      27.910   2.258  53.568  1.00  0.00     0.015 A 
HETATM   20  C13 UNL     1      28.814   1.797  54.524  1.00  0.00     0.001 A 
HETATM   21  C14 UNL     1      29.104   0.459  54.614  1.00  0.00     0.002 A 
HETATM   22  C15 UNL     1      28.485  -0.420  53.742  1.00  0.00     0.025 A 
HETATM   23  C16 UNL     1      27.586   0.009  52.788  1.00  0.00     0.046 A 
HETATM   24 CL1  UNL     1      26.796  -1.114  51.675  1.00  0.00    -0.083 Cl
ENDBRANCH  15  18
TORSDOF 1
ENDMDL
MODEL 3
REMARK VINA RESULT:      -8.8      2.476      4.162
REMARK  1 active torsions:
REMARK  status: ('A' for Active; 'I' for Inactive)
REMARK       I    between atoms: C2_2  and  N1_4 
REMARK    1  A    between atoms: C10_15  and  C11_16 
ROOT
HETATM    1  C1  UNL     1      26.847   4.379  49.323  1.00  0.00     0.118 C 
HETATM    2  C2  UNL     1      25.535   3.820  49.708  1.00  0.00     0.223 C 
HETATM    3  O1  UNL     1      24.616   4.398  49.055  1.00  0.00    -0.273 OA
HETATM    4  N1  UNL     1      25.337   2.789  50.667  1.00  0.00    -0.303 N 
HETATM    5  C3  UNL     1      26.404   2.172  51.373  1.00  0.00     0.100 A 
HETATM    6  C4  UNL     1      26.178   1.214  52.259  1.00  0.00     0.031 A 
HETATM    7  C5  UNL     1      24.812   0.795  52.503  1.00  0.00    -0.005 A 
HETATM    8  C6  UNL     1      24.763  -0.180  53.425  1.00  0.00     0.102 C 
HETATM    9  N2  UNL     1      23.554  -0.810  53.887  1.00  0.00    -0.344 N 
HETATM   10  C7  UNL     1      23.433  -1.277  55.277  1.00  0.00     0.274 A 
HETATM   11  N3  UNL     1      22.094  -1.720  55.322  1.00  0.00    -0.282 NA
HETATM   12  C8  UNL     1      21.489  -1.623  54.185  1.00  0.00     0.133 A 
HETATM   13  C9  UNL     1      22.356  -1.068  53.114  1.00  0.00     0.250 A 
HETATM   14  N4  UNL     1      21.782   0.072  52.488  1.00  0.00    -0.257 NA
HETATM   15  C10 UNL     1      22.328   1.100  51.933  1.00  0.00     0.078 C 
HETATM   16  C17 UNL     1      23.731   1.457  51.751  1.00  0.00     0.021 A 
HETATM   17  C18 UNL     1      23.983   2.411  50.872  1.00  0.00     0.114 A 
ENDROOT
BRANCH  15  18
HETATM   18  C11 UNL     1      21.414   2.113  51.375  1.00  0.00     0.015 A 
HETATM   19  C12 UNL     1      21.027   3.151  52.198  1.00  0.00     0.015 A 
HETATM   20  C13 UNL     1      20.163   4.136  51.719  1.00  0.00     0.001 A 
HETATM   21  C14 UNL     1      19.695   4.077  50.430  1.00  0.00     0.002 A 
HETATM   22  C15 UNL     1      20.093   3.028  49.619  1.00  0.00     0.025 A 
HETATM   23  C16 UNL     1      20.947   2.043  50.069  1.00  0.00     0.046 A 
HETATM   24 CL1  UNL     1      21.456   0.704  49.033  1.00  0.00    -0.083 Cl
ENDBRANCH  15  18
TORSDOF 1
ENDMDL
MODEL 4
REMARK VINA RESULT:      -8.7      2.355      4.930
REMARK  1 active torsions:
REMARK  status: ('A' for Active; 'I' for Inactive)
REMARK       I    between atoms: C2_2  and  N1_4 
REMARK    1  A    between atoms: C10_15  and  C11_16 
ROOT
HETATM    1  C1  UNL     1      26.216   4.297  49.310  1.00  0.00     0.118 C 
HETATM    2  C2  UNL     1      26.376   3.338  50.422  1.00  0.00     0.223 C 
HETATM    3  O1  UNL     1      27.592   3.295  50.777  1.00  0.00    -0.273 OA
HETATM    4  N1  UNL     1      25.324   2.578  51.003  1.00  0.00    -0.303 N 
HETATM    5  C3  UNL     1      23.975   2.664  50.567  1.00  0.00     0.100 A 
HETATM    6  C4  UNL     1      23.022   1.940  51.134  1.00  0.00     0.031 A 
HETATM    7  C5  UNL     1      23.375   1.047  52.220  1.00  0.00    -0.005 A 
HETATM    8  C6  UNL     1      22.296   0.393  52.678  1.00  0.00     0.102 C 
HETATM    9  N2  UNL     1      22.314  -0.565  53.753  1.00  0.00    -0.344 N 
HETATM   10  C7  UNL     1      21.397  -1.715  53.751  1.00  0.00     0.274 A 
HETATM   11  N3  UNL     1      21.814  -2.425  54.898  1.00  0.00    -0.282 NA
HETATM   12  C8  UNL     1      22.760  -1.831  55.546  1.00  0.00     0.133 A 
HETATM   13  C9  UNL     1      23.173  -0.548  54.921  1.00  0.00     0.250 A 
HETATM   14  N4  UNL     1      24.567  -0.501  54.646  1.00  0.00    -0.257 NA
HETATM   15  C10 UNL     1      25.231   0.116  53.730  1.00  0.00     0.078 C 
HETATM   16  C17 UNL     1      24.785   0.985  52.647  1.00  0.00     0.021 A 
HETATM   17  C18 UNL     1      25.717   1.719  52.063  1.00  0.00     0.114 A 
ENDROOT
BRANCH  15  18
HETATM   18  C11 UNL     1      26.695  -0.062  53.741  1.00  0.00     0.015 A 
HETATM   19  C12 UNL     1      27.442   0.812  54.505  1.00  0.00     0.015 A 
HETATM   20  C13 UNL     1      28.830   0.686  54.549  1.00  0.00     0.001 A 
HETATM   21  C14 UNL     1      29.458  -0.302  53.835  1.00  0.00     0.002 A 
HETATM   22  C15 UNL     1      28.692  -1.169  53.074  1.00  0.00     0.025 A 
HETATM   23  C16 UNL     1      27.318  -1.068  53.014  1.00  0.00     0.046 A 
HETATM   24 CL1  UNL     1      26.341  -2.175  52.042  1.00  0.00    -0.083 Cl
ENDBRANCH  15  18
TORSDOF 1
ENDMDL
MODEL 5
REMARK VINA RESULT:      -8.5      2.226      5.082
REMARK  1 active torsions:
REMARK  status: ('A' for Active; 'I' for Inactive)
REMARK       I    between atoms: C2_2  and  N1_4 
REMARK    1  A    between atoms: C10_15  and  C11_16 
ROOT
HETATM    1  C1  UNL     1      19.037  -0.143  52.334  1.00  0.00     0.118 C 
HETATM    2  C2  UNL     1      20.213   0.730  52.143  1.00  0.00     0.223 C 
HETATM    3  O1  UNL     1      19.872   1.777  51.516  1.00  0.00    -0.273 OA
HETATM    4  N1  UNL     1      21.529   0.437  52.596  1.00  0.00    -0.303 N 
HETATM    5  C3  UNL     1      21.860  -0.753  53.296  1.00  0.00     0.100 A 
HETATM    6  C4  UNL     1      23.098  -0.990  53.702  1.00  0.00     0.031 A 
HETATM    7  C5  UNL     1      24.126  -0.007  53.421  1.00  0.00    -0.005 A 
HETATM    8  C6  UNL     1      25.316  -0.403  53.899  1.00  0.00     0.102 C 
HETATM    9  N2  UNL     1      26.538   0.351  53.782  1.00  0.00    -0.344 N 
HETATM   10  C7  UNL     1      27.832  -0.332  53.637  1.00  0.00     0.274 A 
HETATM   11  N3  UNL     1      28.718   0.752  53.457  1.00  0.00    -0.282 NA
HETATM   12  C8  UNL     1      28.133   1.902  53.534  1.00  0.00     0.133 A 
HETATM   13  C9  UNL     1      26.675   1.795  53.792  1.00  0.00     0.250 A 
HETATM   14  N4  UNL     1      25.900   2.482  52.818  1.00  0.00    -0.257 NA
HETATM   15  C10 UNL     1      24.713   2.259  52.366  1.00  0.00     0.078 C 
HETATM   16  C17 UNL     1      23.746   1.217  52.692  1.00  0.00     0.021 A 
HETATM   17  C18 UNL     1      22.502   1.429  52.298  1.00  0.00     0.114 A 
ENDROOT
BRANCH  15  18
HETATM   18  C11 UNL     1      24.211   3.190  51.339  1.00  0.00     0.015 A 
HETATM   19  C12 UNL     1      24.361   2.829  50.016  1.00  0.00     0.015 A 
HETATM   20  C13 UNL     1      23.903   3.674  49.006  1.00  0.00     0.001 A 
HETATM   21  C14 UNL     1      23.303   4.867  49.322  1.00  0.00     0.002 A 
HETATM   22  C15 UNL     1      23.162   5.213  50.656  1.00  0.00     0.025 A 
HETATM   23  C16 UNL     1      23.606   4.395  51.673  1.00  0.00     0.046 A 
HETATM   24 CL1  UNL     1      23.425   4.837  53.375  1.00  0.00    -0.083 Cl
ENDBRANCH  15  18
TORSDOF 1
ENDMDL
MODEL 6
REMARK VINA RESULT:      -8.1      1.932      4.495
REMARK  1 active torsions:
REMARK  status: ('A' for Active; 'I' for Inactive)
REMARK       I    between atoms: C2_2  and  N1_4 
REMARK    1  A    between atoms: C10_15  and  C11_16 
ROOT
HETATM    1  C1  UNL     1      26.079   4.590  49.076  1.00  0.00     0.118 C 
HETATM    2  C2  UNL     1      26.022   3.527  50.099  1.00  0.00     0.223 C 
HETATM    3  O1  UNL     1      27.197   3.212  50.454  1.00  0.00    -0.273 OA
HETATM    4  N1  UNL     1      24.828   2.946  50.607  1.00  0.00    -0.303 N 
HETATM    5  C3  UNL     1      23.532   3.336  50.175  1.00  0.00     0.100 A 
HETATM    6  C4  UNL     1      22.443   2.771  50.673  1.00  0.00     0.031 A 
HETATM    7  C5  UNL     1      22.588   1.736  51.678  1.00  0.00    -0.005 A 
HETATM    8  C6  UNL     1      21.391   1.274  52.072  1.00  0.00     0.102 C 
HETATM    9  N2  UNL     1      21.195   0.243  53.059  1.00  0.00    -0.344 N 
HETATM   10  C7  UNL     1      20.068  -0.696  52.952  1.00  0.00     0.274 A 
HETATM   11  N3  UNL     1      20.312  -1.570  54.034  1.00  0.00    -0.282 NA
HETATM   12  C8  UNL     1      21.344  -1.234  54.735  1.00  0.00     0.133 A 
HETATM   13  C9  UNL     1      22.015  -0.011  54.228  1.00  0.00     0.250 A 
HETATM   14  N4  UNL     1      23.396  -0.220  53.963  1.00  0.00    -0.257 NA
HETATM   15  C10 UNL     1      24.190   0.328  53.107  1.00  0.00     0.078 C 
HETATM   16  C17 UNL     1      23.948   1.358  52.103  1.00  0.00     0.021 A 
HETATM   17  C18 UNL     1      25.020   1.938  51.590  1.00  0.00     0.114 A 
ENDROOT
BRANCH  15  18
HETATM   18  C11 UNL     1      25.588  -0.139  53.108  1.00  0.00     0.015 A 
HETATM   19  C12 UNL     1      25.854  -1.371  52.545  1.00  0.00     0.015 A 
HETATM   20  C13 UNL     1      27.159  -1.859  52.521  1.00  0.00     0.001 A 
HETATM   21  C14 UNL     1      28.184  -1.119  53.055  1.00  0.00     0.002 A 
HETATM   22  C15 UNL     1      27.899   0.114  53.616  1.00  0.00     0.025 A 
HETATM   23  C16 UNL     1      26.616   0.620  53.652  1.00  0.00     0.046 A 
HETATM   24 CL1  UNL     1      26.252   2.195  54.368  1.00  0.00    -0.083 Cl
ENDBRANCH  15  18
TORSDOF 1
ENDMDL
MODEL 7
REMARK VINA RESULT:      -8.0      1.263      1.800
REMARK  1 active torsions:
REMARK  status: ('A' for Active; 'I' for Inactive)
REMARK       I    between atoms: C2_2  and  N1_4 
REMARK    1  A    between atoms: C10_15  and  C11_16 
ROOT
HETATM    1  C1  UNL     1      26.703   0.226  54.686  1.00  0.00     0.118 C 
HETATM    2  C2  UNL     1      26.085   0.988  53.583  1.00  0.00     0.223 C 
HETATM    3  O1  UNL     1      26.906   1.847  53.144  1.00  0.00    -0.273 OA
HETATM    4  N1  UNL     1      24.766   0.788  53.092  1.00  0.00    -0.303 N 
HETATM    5  C3  UNL     1      23.883  -0.191  53.621  1.00  0.00     0.100 A 
HETATM    6  C4  UNL     1      22.660  -0.348  53.136  1.00  0.00     0.031 A 
HETATM    7  C5  UNL     1      22.228   0.501  52.043  1.00  0.00    -0.005 A 
HETATM    8  C6  UNL     1      20.970   0.211  51.675  1.00  0.00     0.102 C 
HETATM    9  N2  UNL     1      20.251   0.875  50.618  1.00  0.00    -0.344 N 
HETATM   10  C7  UNL     1      18.796   1.071  50.705  1.00  0.00     0.274 A 
HETATM   11  N3  UNL     1      18.532   1.830  49.545  1.00  0.00    -0.282 NA
HETATM   12  C8  UNL     1      19.583   2.032  48.821  1.00  0.00     0.133 A 
HETATM   13  C9  UNL     1      20.807   1.413  49.391  1.00  0.00     0.250 A 
HETATM   14  N4  UNL     1      21.859   2.354  49.566  1.00  0.00    -0.257 NA
HETATM   15  C10 UNL     1      22.822   2.401  50.422  1.00  0.00     0.078 C 
HETATM   16  C17 UNL     1      23.171   1.505  51.519  1.00  0.00     0.021 A 
HETATM   17  C18 UNL     1      24.386   1.641  52.022  1.00  0.00     0.114 A 
ENDROOT
BRANCH  15  18
HETATM   18  C11 UNL     1      23.750   3.541  50.310  1.00  0.00     0.015 A 
HETATM   19  C12 UNL     1      24.852   3.393  49.493  1.00  0.00     0.015 A 
HETATM   20  C13 UNL     1      25.761   4.441  49.352  1.00  0.00     0.001 A 
HETATM   21  C14 UNL     1      25.566   5.621  50.025  1.00  0.00     0.002 A 
HETATM   22  C15 UNL     1      24.455   5.751  50.841  1.00  0.00     0.025 A 
HETATM   23  C16 UNL     1      23.541   4.730  50.997  1.00  0.00     0.046 A 
HETATM   24 CL1  UNL     1      22.122   4.896  52.038  1.00  0.00    -0.083 Cl
ENDBRANCH  15  18
TORSDOF 1
ENDMDL
MODEL 8
REMARK VINA RESULT:      -7.9      2.286      4.855
REMARK  1 active torsions:
REMARK  status: ('A' for Active; 'I' for Inactive)
REMARK       I    between atoms: C2_2  and  N1_4 
REMARK    1  A    between atoms: C10_15  and  C11_16 
ROOT
HETATM    1  C1  UNL     1      28.101  -0.936  53.089  1.00  0.00     0.118 C 
HETATM    2  C2  UNL     1      26.682  -0.539  53.190  1.00  0.00     0.223 C 
HETATM    3  O1  UNL     1      26.063  -1.349  53.941  1.00  0.00    -0.273 OA
HETATM    4  N1  UNL     1      26.101   0.585  52.540  1.00  0.00    -0.303 N 
HETATM    5  C3  UNL     1      26.841   1.465  51.706  1.00  0.00     0.100 A 
HETATM    6  C4  UNL     1      26.264   2.502  51.118  1.00  0.00     0.031 A 
HETATM    7  C5  UNL     1      24.849   2.733  51.339  1.00  0.00    -0.005 A 
HETATM    8  C6  UNL     1      24.428   3.819  50.673  1.00  0.00     0.102 C 
HETATM    9  N2  UNL     1      23.076   4.315  50.686  1.00  0.00    -0.344 N 
HETATM   10  C7  UNL     1      22.502   4.968  49.500  1.00  0.00     0.274 A 
HETATM   11  N3  UNL     1      21.169   5.196  49.906  1.00  0.00    -0.282 NA
HETATM   12  C8  UNL     1      20.940   4.828  51.123  1.00  0.00     0.133 A 
HETATM   13  C9  UNL     1      22.137   4.257  51.791  1.00  0.00     0.250 A 
HETATM   14  N4  UNL     1      21.899   2.956  52.313  1.00  0.00    -0.257 NA
HETATM   15  C10 UNL     1      22.690   1.954  52.489  1.00  0.00     0.078 C 
HETATM   16  C17 UNL     1      24.114   1.799  52.211  1.00  0.00     0.021 A 
HETATM   17  C18 UNL     1      24.714   0.771  52.786  1.00  0.00     0.114 A 
ENDROOT
BRANCH  15  18
HETATM   18  C11 UNL     1      22.095   0.734  53.065  1.00  0.00     0.015 A 
HETATM   19  C12 UNL     1      22.515   0.347  54.322  1.00  0.00     0.015 A 
HETATM   20  C13 UNL     1      21.983  -0.798  54.912  1.00  0.00     0.001 A 
HETATM   21  C14 UNL     1      21.043  -1.546  54.248  1.00  0.00     0.002 A 
HETATM   22  C15 UNL     1      20.634  -1.142  52.987  1.00  0.00     0.025 A 
HETATM   23  C16 UNL     1      21.144  -0.013  52.382  1.00  0.00     0.046 A 
HETATM   24 CL1  UNL     1      20.622   0.502  50.774  1.00  0.00    -0.083 Cl
ENDBRANCH  15  18
TORSDOF 1
ENDMDL
MODEL 9
REMARK VINA RESULT:      -7.8      2.971      5.480
REMARK  1 active torsions:
REMARK  status: ('A' for Active; 'I' for Inactive)
REMARK       I    between atoms: C2_2  and  N1_4 
REMARK    1  A    between atoms: C10_15  and  C11_16 
ROOT
HETATM    1  C1  UNL     1      21.573  -1.686  54.583  1.00  0.00     0.118 C 
HETATM    2  C2  UNL     1      21.437  -0.491  53.727  1.00  0.00     0.223 C 
HETATM    3  O1  UNL     1      20.211  -0.209  53.578  1.00  0.00    -0.273 OA
HETATM    4  N1  UNL     1      22.520   0.231  53.156  1.00  0.00    -0.303 N 
HETATM    5  C3  UNL     1      23.880  -0.128  53.354  1.00  0.00     0.100 A 
HETATM    6  C4  UNL     1      24.862   0.571  52.804  1.00  0.00     0.031 A 
HETATM    7  C5  UNL     1      24.529   1.723  51.989  1.00  0.00    -0.005 A 
HETATM    8  C6  UNL     1      25.637   2.313  51.512  1.00  0.00     0.102 C 
HETATM    9  N2  UNL     1      25.645   3.481  50.670  1.00  0.00    -0.344 N 
HETATM   10  C7  UNL     1      26.680   3.658  49.639  1.00  0.00     0.274 A 
HETATM   11  N3  UNL     1      26.259   4.846  49.002  1.00  0.00    -0.282 NA
HETATM   12  C8  UNL     1      25.209   5.367  49.544  1.00  0.00     0.133 A 
HETATM   13  C9  UNL     1      24.706   4.586  50.703  1.00  0.00     0.250 A 
HETATM   14  N4  UNL     1      23.340   4.222  50.560  1.00  0.00    -0.257 NA
HETATM   15  C10 UNL     1      22.681   3.206  51.002  1.00  0.00     0.078 C 
HETATM   16  C17 UNL     1      23.108   2.065  51.806  1.00  0.00     0.021 A 
HETATM   17  C18 UNL     1      22.146   1.351  52.365  1.00  0.00     0.114 A 
ENDROOT
BRANCH  15  18
HETATM   18  C11 UNL     1      21.248   3.145  50.658  1.00  0.00     0.015 A 
HETATM   19  C12 UNL     1      20.365   3.836  51.463  1.00  0.00     0.015 A 
HETATM   20  C13 UNL     1      19.000   3.812  51.181  1.00  0.00     0.001 A 
HETATM   21  C14 UNL     1      18.529   3.102  50.105  1.00  0.00     0.002 A 
HETATM   22  C15 UNL     1      19.430   2.415  49.309  1.00  0.00     0.025 A 
HETATM   23  C16 UNL     1      20.785   2.423  49.566  1.00  0.00     0.046 A 
HETATM   24 CL1  UNL     1      21.934   1.546  48.549  1.00  0.00    -0.083 Cl
ENDBRANCH  15  18
TORSDOF 1
ENDMDL
