MODEL 1
REMARK VINA RESULT:      -8.5      0.000      0.000
REMARK  3 active torsions:
REMARK  status: ('A' for Active; 'I' for Inactive)
REMARK    1  A    between atoms: C11_13  and  C12_14 
REMARK    2  A    between atoms: C12_14  and  C13_15 
REMARK    3  A    between atoms: C13_15  and  O2_16 
ROOT
HETATM    1  C1  UNL     1      24.548   3.042  49.706  1.00  0.00     0.048 C 
HETATM    2  C2  UNL     1      23.475   3.086  50.719  1.00  0.00    -0.029 C 
HETATM    3  C3  UNL     1      22.688   4.189  50.589  1.00  0.00     0.008 C 
HETATM    4  C4  UNL     1      21.487   4.728  51.268  1.00  0.00     0.018 C 
HETATM    5  C5  UNL     1      21.004   3.918  52.246  1.00  0.00     0.098 C 
HETATM    6  N1  UNL     1      21.805   2.752  52.280  1.00  0.00    -0.287 N 
HETATM    7  C6  UNL     1      21.188   1.432  52.516  1.00  0.00     0.250 A 
HETATM    8  O1  UNL     1      19.986   1.033  52.753  1.00  0.00    -0.268 OA
HETATM    9  C7  UNL     1      22.171   0.359  52.466  1.00  0.00     0.083 A 
HETATM   10  C8  UNL     1      23.298   1.003  52.218  1.00  0.00    -0.010 A 
HETATM   11  C9  UNL     1      24.783   0.944  51.993  1.00  0.00     0.067 C 
HETATM   12  C10 UNL     1      25.352  -0.305  52.655  1.00  0.00     0.019 C 
HETATM   13  C11 UNL     1      26.804  -0.448  52.476  1.00  0.00    -0.012 C 
HETATM   14  C14 UNL     1      27.495   0.270  53.643  1.00  0.00     0.005 C 
HETATM   15  C15 UNL     1      27.565   1.744  53.419  1.00  0.00     0.006 C 
HETATM   16  C16 UNL     1      26.255   2.405  53.871  1.00  0.00     0.055 C 
HETATM   17  C17 UNL     1      25.122   2.067  52.968  1.00  0.00     0.019 C 
HETATM   18  N2  UNL     1      24.137   2.935  52.981  1.00  0.00    -0.256 NA
HETATM   19  C18 UNL     1      23.169   2.407  52.029  1.00  0.00     0.183 A 
ENDROOT
BRANCH  13  20
HETATM   20  C12 UNL     1      27.192  -1.895  52.608  1.00  0.00     0.030 C 
BRANCH  20  21
HETATM   21  C13 UNL     1      28.582  -2.150  53.082  1.00  0.00     0.164 C 
BRANCH  21  22
HETATM   22  O2  UNL     1      28.710  -3.517  53.438  1.00  0.00    -0.401 OA
HETATM   23  H16 UNL     1      29.649  -3.741  53.562  1.00  0.00     0.209 HD
ENDBRANCH  21  22
ENDBRANCH  20  21
ENDBRANCH  13  20
TORSDOF 3
ENDMDL
MODEL 2
REMARK VINA RESULT:      -8.5      2.764      5.238
REMARK  3 active torsions:
REMARK  status: ('A' for Active; 'I' for Inactive)
REMARK    1  A    between atoms: C11_13  and  C12_14 
REMARK    2  A    between atoms: C12_14  and  C13_15 
REMARK    3  A    between atoms: C13_15  and  O2_16 
ROOT
HETATM    1  C1  UNL     1      21.721   0.828  50.662  1.00  0.00     0.048 C 
HETATM    2  C2  UNL     1      22.517   0.470  51.853  1.00  0.00    -0.029 C 
HETATM    3  C3  UNL     1      21.852  -0.380  52.682  1.00  0.00     0.008 C 
HETATM    4  C4  UNL     1      22.149  -1.079  53.953  1.00  0.00     0.018 C 
HETATM    5  C5  UNL     1      23.411  -0.867  54.410  1.00  0.00     0.098 C 
HETATM    6  N1  UNL     1      24.083  -0.050  53.471  1.00  0.00    -0.287 N 
HETATM    7  C6  UNL     1      25.504  -0.292  53.156  1.00  0.00     0.250 A 
HETATM    8  O1  UNL     1      26.388  -1.126  53.584  1.00  0.00    -0.268 OA
HETATM    9  C7  UNL     1      25.994   0.622  52.134  1.00  0.00     0.083 A 
HETATM   10  C8  UNL     1      24.932   1.359  51.863  1.00  0.00    -0.010 A 
HETATM   11  C9  UNL     1      24.323   2.487  51.077  1.00  0.00     0.067 C 
HETATM   12  C10 UNL     1      25.414   3.456  50.643  1.00  0.00     0.019 C 
HETATM   13  C11 UNL     1      24.906   4.590  49.857  1.00  0.00    -0.012 C 
HETATM   14  C14 UNL     1      24.542   5.716  50.836  1.00  0.00     0.005 C 
HETATM   15  C15 UNL     1      23.206   5.490  51.462  1.00  0.00     0.006 C 
HETATM   16  C16 UNL     1      23.348   4.564  52.678  1.00  0.00     0.055 C 
HETATM   17  C17 UNL     1      23.678   3.169  52.279  1.00  0.00     0.019 C 
HETATM   18  N2  UNL     1      23.341   2.256  53.161  1.00  0.00    -0.256 NA
HETATM   19  C18 UNL     1      23.743   0.994  52.555  1.00  0.00     0.183 A 
ENDROOT
BRANCH  13  20
HETATM   20  C12 UNL     1      26.007   5.146  48.996  1.00  0.00     0.030 C 
BRANCH  20  21
HETATM   21  C13 UNL     1      27.241   4.316  48.912  1.00  0.00     0.164 C 
BRANCH  21  22
HETATM   22  O2  UNL     1      28.362   5.108  49.273  1.00  0.00    -0.401 OA
HETATM   23  H16 UNL     1      29.044   4.548  49.686  1.00  0.00     0.209 HD
ENDBRANCH  21  22
ENDBRANCH  20  21
ENDBRANCH  13  20
TORSDOF 3
ENDMDL
MODEL 3
REMARK VINA RESULT:      -8.2      2.678      5.066
REMARK  3 active torsions:
REMARK  status: ('A' for Active; 'I' for Inactive)
REMARK    1  A    between atoms: C11_13  and  C12_14 
REMARK    2  A    between atoms: C12_14  and  C13_15 
REMARK    3  A    between atoms: C13_15  and  O2_16 
ROOT
HETATM    1  C1  UNL     1      22.743   5.154  51.805  1.00  0.00     0.048 C 
HETATM    2  C2  UNL     1      23.946   4.488  51.265  1.00  0.00    -0.029 C 
HETATM    3  C3  UNL     1      24.613   5.272  50.375  1.00  0.00     0.008 C 
HETATM    4  C4  UNL     1      25.852   5.156  49.572  1.00  0.00     0.018 C 
HETATM    5  C5  UNL     1      26.536   4.002  49.790  1.00  0.00     0.098 C 
HETATM    6  N1  UNL     1      25.847   3.267  50.783  1.00  0.00    -0.287 N 
HETATM    7  C6  UNL     1      26.597   2.522  51.813  1.00  0.00     0.250 A 
HETATM    8  O1  UNL     1      27.850   2.324  52.043  1.00  0.00    -0.268 OA
HETATM    9  C7  UNL     1      25.708   1.874  52.766  1.00  0.00     0.083 A 
HETATM   10  C8  UNL     1      24.508   2.214  52.329  1.00  0.00    -0.010 A 
HETATM   11  C9  UNL     1      23.016   2.129  52.489  1.00  0.00     0.067 C 
HETATM   12  C10 UNL     1      22.654   0.856  53.243  1.00  0.00     0.019 C 
HETATM   13  C11 UNL     1      21.207   0.696  53.453  1.00  0.00    -0.012 C 
HETATM   14  C14 UNL     1      20.637  -0.066  52.248  1.00  0.00     0.005 C 
HETATM   15  C15 UNL     1      20.416   0.837  51.081  1.00  0.00     0.006 C 
HETATM   16  C16 UNL     1      21.719   0.993  50.285  1.00  0.00     0.055 C 
HETATM   17  C17 UNL     1      22.733   1.789  51.030  1.00  0.00     0.019 C 
HETATM   18  N2  UNL     1      23.635   2.368  50.271  1.00  0.00    -0.256 NA
HETATM   19  C18 UNL     1      24.494   3.086  51.205  1.00  0.00     0.183 A 
ENDROOT
BRANCH  13  20
HETATM   20  C12 UNL     1      20.961  -0.190  54.643  1.00  0.00     0.030 C 
BRANCH  20  21
HETATM   21  C13 UNL     1      21.478  -1.584  54.527  1.00  0.00     0.164 C 
BRANCH  21  22
HETATM   22  O2  UNL     1      22.465  -1.800  55.522  1.00  0.00    -0.401 OA
HETATM   23  H16 UNL     1      22.763  -0.947  55.884  1.00  0.00     0.209 HD
ENDBRANCH  21  22
ENDBRANCH  20  21
ENDBRANCH  13  20
TORSDOF 3
ENDMDL
MODEL 4
REMARK VINA RESULT:      -7.7      2.465      4.004
REMARK  3 active torsions:
REMARK  status: ('A' for Active; 'I' for Inactive)
REMARK    1  A    between atoms: C11_13  and  C12_14 
REMARK    2  A    between atoms: C12_14  and  C13_15 
REMARK    3  A    between atoms: C13_15  and  O2_16 
ROOT
HETATM    1  C1  UNL     1      21.040   0.657  49.539  1.00  0.00     0.048 C 
HETATM    2  C2  UNL     1      20.608   0.395  50.927  1.00  0.00    -0.029 C 
HETATM    3  C3  UNL     1      19.277   0.121  51.010  1.00  0.00     0.008 C 
HETATM    4  C4  UNL     1      18.328  -0.239  52.088  1.00  0.00     0.018 C 
HETATM    5  C5  UNL     1      18.914  -0.376  53.306  1.00  0.00     0.098 C 
HETATM    6  N1  UNL     1      20.304  -0.166  53.148  1.00  0.00    -0.287 N 
HETATM    7  C6  UNL     1      21.272  -0.987  53.902  1.00  0.00     0.250 A 
HETATM    8  O1  UNL     1      21.161  -1.922  54.781  1.00  0.00    -0.268 OA
HETATM    9  C7  UNL     1      22.647  -0.648  53.562  1.00  0.00     0.083 A 
HETATM   10  C8  UNL     1      22.502   0.312  52.666  1.00  0.00    -0.010 A 
HETATM   11  C9  UNL     1      23.145   1.305  51.739  1.00  0.00     0.067 C 
HETATM   12  C10 UNL     1      24.542   1.644  52.242  1.00  0.00     0.019 C 
HETATM   13  C11 UNL     1      25.252   2.607  51.386  1.00  0.00    -0.012 C 
HETATM   14  C14 UNL     1      24.920   4.018  51.890  1.00  0.00     0.005 C 
HETATM   15  C15 UNL     1      23.591   4.482  51.392  1.00  0.00     0.006 C 
HETATM   16  C16 UNL     1      22.478   3.961  52.312  1.00  0.00     0.055 C 
HETATM   17  C17 UNL     1      22.294   2.490  52.183  1.00  0.00     0.019 C 
HETATM   18  N2  UNL     1      21.103   2.058  52.530  1.00  0.00    -0.256 NA
HETATM   19  C18 UNL     1      21.158   0.618  52.312  1.00  0.00     0.183 A 
ENDROOT
BRANCH  13  20
HETATM   20  C12 UNL     1      26.736   2.452  51.569  1.00  0.00     0.030 C 
BRANCH  20  21
HETATM   21  C13 UNL     1      27.163   1.735  52.803  1.00  0.00     0.164 C 
BRANCH  21  22
HETATM   22  O2  UNL     1      27.568   2.684  53.777  1.00  0.00    -0.401 OA
HETATM   23  H16 UNL     1      28.255   3.267  53.407  1.00  0.00     0.209 HD
ENDBRANCH  21  22
ENDBRANCH  20  21
ENDBRANCH  13  20
TORSDOF 3
ENDMDL
MODEL 5
REMARK VINA RESULT:      -7.7      3.438      5.959
REMARK  3 active torsions:
REMARK  status: ('A' for Active; 'I' for Inactive)
REMARK    1  A    between atoms: C11_13  and  C12_14 
REMARK    2  A    between atoms: C12_14  and  C13_15 
REMARK    3  A    between atoms: C13_15  and  O2_16 
ROOT
HETATM    1  C1  UNL     1      25.115   2.708  53.487  1.00  0.00     0.048 C 
HETATM    2  C2  UNL     1      23.810   2.403  52.867  1.00  0.00    -0.029 C 
HETATM    3  C3  UNL     1      23.388   1.141  53.150  1.00  0.00     0.008 C 
HETATM    4  C4  UNL     1      22.191   0.324  52.846  1.00  0.00     0.018 C 
HETATM    5  C5  UNL     1      21.240   0.991  52.141  1.00  0.00     0.098 C 
HETATM    6  N1  UNL     1      21.692   2.319  51.949  1.00  0.00    -0.287 N 
HETATM    7  C6  UNL     1      20.743   3.446  52.029  1.00  0.00     0.250 A 
HETATM    8  O1  UNL     1      19.472   3.537  52.219  1.00  0.00    -0.268 OA
HETATM    9  C7  UNL     1      21.411   4.728  51.852  1.00  0.00     0.083 A 
HETATM   10  C8  UNL     1      22.674   4.380  51.677  1.00  0.00    -0.010 A 
HETATM   11  C9  UNL     1      24.094   4.803  51.422  1.00  0.00     0.067 C 
HETATM   12  C10 UNL     1      24.108   6.153  50.719  1.00  0.00     0.019 C 
HETATM   13  C11 UNL     1      25.464   6.649  50.438  1.00  0.00    -0.012 C 
HETATM   14  C14 UNL     1      25.881   6.124  49.057  1.00  0.00     0.005 C 
HETATM   15  C15 UNL     1      26.361   4.712  49.127  1.00  0.00     0.006 C 
HETATM   16  C16 UNL     1      25.166   3.750  49.062  1.00  0.00     0.055 C 
HETATM   17  C17 UNL     1      24.345   3.798  50.302  1.00  0.00     0.019 C 
HETATM   18  N2  UNL     1      23.641   2.714  50.532  1.00  0.00    -0.256 NA
HETATM   19  C18 UNL     1      22.944   2.987  51.782  1.00  0.00     0.183 A 
ENDROOT
BRANCH  13  20
HETATM   20  C12 UNL     1      25.441   8.147  50.308  1.00  0.00     0.030 C 
BRANCH  20  21
HETATM   21  C13 UNL     1      26.748   8.788  49.991  1.00  0.00     0.164 C 
BRANCH  21  22
HETATM   22  O2  UNL     1      27.166   9.570  51.098  1.00  0.00    -0.401 OA
HETATM   23  H16 UNL     1      27.944   9.161  51.518  1.00  0.00     0.209 HD
ENDBRANCH  21  22
ENDBRANCH  20  21
ENDBRANCH  13  20
TORSDOF 3
ENDMDL
MODEL 6
REMARK VINA RESULT:      -7.6      3.274      5.467
REMARK  3 active torsions:
REMARK  status: ('A' for Active; 'I' for Inactive)
REMARK    1  A    between atoms: C11_13  and  C12_14 
REMARK    2  A    between atoms: C12_14  and  C13_15 
REMARK    3  A    between atoms: C13_15  and  O2_16 
ROOT
HETATM    1  C1  UNL     1      22.241   2.131  48.147  1.00  0.00     0.048 C 
HETATM    2  C2  UNL     1      22.390   1.797  49.578  1.00  0.00    -0.029 C 
HETATM    3  C3  UNL     1      21.375   1.012  50.032  1.00  0.00     0.008 C 
HETATM    4  C4  UNL     1      21.023   0.361  51.314  1.00  0.00     0.018 C 
HETATM    5  C5  UNL     1      21.950   0.543  52.291  1.00  0.00     0.098 C 
HETATM    6  N1  UNL     1      23.019   1.290  51.742  1.00  0.00    -0.287 N 
HETATM    7  C6  UNL     1      24.413   0.978  52.114  1.00  0.00     0.250 A 
HETATM    8  O1  UNL     1      24.959   0.131  52.917  1.00  0.00    -0.268 OA
HETATM    9  C7  UNL     1      25.363   1.825  51.407  1.00  0.00     0.083 A 
HETATM   10  C8  UNL     1      24.582   2.590  50.665  1.00  0.00    -0.010 A 
HETATM   11  C9  UNL     1      24.459   3.704  49.663  1.00  0.00     0.067 C 
HETATM   12  C10 UNL     1      25.681   4.609  49.751  1.00  0.00     0.019 C 
HETATM   13  C11 UNL     1      25.648   5.725  48.794  1.00  0.00    -0.012 C 
HETATM   14  C14 UNL     1      24.943   6.907  49.474  1.00  0.00     0.005 C 
HETATM   15  C15 UNL     1      23.458   6.762  49.428  1.00  0.00     0.006 C 
HETATM   16  C16 UNL     1      22.982   5.889  50.597  1.00  0.00     0.055 C 
HETATM   17  C17 UNL     1      23.378   4.465  50.423  1.00  0.00     0.019 C 
HETATM   18  N2  UNL     1      22.628   3.607  51.076  1.00  0.00    -0.256 NA
HETATM   19  C18 UNL     1      23.191   2.303  50.749  1.00  0.00     0.183 A 
ENDROOT
BRANCH  13  20
HETATM   20  C12 UNL     1      27.049   6.198  48.516  1.00  0.00     0.030 C 
BRANCH  20  21
HETATM   21  C13 UNL     1      28.101   5.143  48.534  1.00  0.00     0.164 C 
BRANCH  21  22
HETATM   22  O2  UNL     1      29.269   5.659  49.151  1.00  0.00    -0.401 OA
HETATM   23  H16 UNL     1      29.368   5.280  50.043  1.00  0.00     0.209 HD
ENDBRANCH  21  22
ENDBRANCH  20  21
ENDBRANCH  13  20
TORSDOF 3
ENDMDL
MODEL 7
REMARK VINA RESULT:      -7.5      2.271      3.185
REMARK  3 active torsions:
REMARK  status: ('A' for Active; 'I' for Inactive)
REMARK    1  A    between atoms: C11_13  and  C12_14 
REMARK    2  A    between atoms: C12_14  and  C13_15 
REMARK    3  A    between atoms: C13_15  and  O2_16 
ROOT
HETATM    1  C1  UNL     1      21.609   0.927  49.064  1.00  0.00     0.048 C 
HETATM    2  C2  UNL     1      20.565   1.028  50.103  1.00  0.00    -0.029 C 
HETATM    3  C3  UNL     1      19.383   1.482  49.604  1.00  0.00     0.008 C 
HETATM    4  C4  UNL     1      18.028   1.742  50.141  1.00  0.00     0.018 C 
HETATM    5  C5  UNL     1      17.890   1.415  51.453  1.00  0.00     0.098 C 
HETATM    6  N1  UNL     1      19.118   0.870  51.897  1.00  0.00    -0.287 N 
HETATM    7  C6  UNL     1      19.130  -0.272  52.833  1.00  0.00     0.250 A 
HETATM    8  O1  UNL     1      18.214  -0.949  53.433  1.00  0.00    -0.268 OA
HETATM    9  C7  UNL     1      20.486  -0.713  53.128  1.00  0.00     0.083 A 
HETATM   10  C8  UNL     1      21.228   0.115  52.415  1.00  0.00    -0.010 A 
HETATM   11  C9  UNL     1      22.599   0.565  51.993  1.00  0.00     0.067 C 
HETATM   12  C10 UNL     1      23.616   0.175  53.058  1.00  0.00     0.019 C 
HETATM   13  C11 UNL     1      24.992   0.571  52.721  1.00  0.00    -0.012 C 
HETATM   14  C14 UNL     1      25.223   1.986  53.271  1.00  0.00     0.005 C 
HETATM   15  C15 UNL     1      24.652   3.027  52.366  1.00  0.00     0.006 C 
HETATM   16  C16 UNL     1      23.159   3.222  52.670  1.00  0.00     0.055 C 
HETATM   17  C17 UNL     1      22.349   2.048  52.245  1.00  0.00     0.019 C 
HETATM   18  N2  UNL     1      21.084   2.315  52.014  1.00  0.00    -0.256 NA
HETATM   19  C18 UNL     1      20.507   1.039  51.608  1.00  0.00     0.183 A 
ENDROOT
BRANCH  13  20
HETATM   20  C12 UNL     1      25.967  -0.309  53.454  1.00  0.00     0.030 C 
BRANCH  20  21
HETATM   21  C13 UNL     1      26.446   0.211  54.766  1.00  0.00     0.164 C 
BRANCH  21  22
HETATM   22  O2  UNL     1      27.753  -0.282  55.014  1.00  0.00    -0.401 OA
HETATM   23  H16 UNL     1      27.881  -0.416  55.970  1.00  0.00     0.209 HD
ENDBRANCH  21  22
ENDBRANCH  20  21
ENDBRANCH  13  20
TORSDOF 3
ENDMDL
MODEL 8
REMARK VINA RESULT:      -7.5      2.685      6.845
REMARK  3 active torsions:
REMARK  status: ('A' for Active; 'I' for Inactive)
REMARK    1  A    between atoms: C11_13  and  C12_14 
REMARK    2  A    between atoms: C12_14  and  C13_15 
REMARK    3  A    between atoms: C13_15  and  O2_16 
ROOT
HETATM    1  C1  UNL     1      23.711   3.392  52.700  1.00  0.00     0.048 C 
HETATM    2  C2  UNL     1      23.841   1.953  53.006  1.00  0.00    -0.029 C 
HETATM    3  C3  UNL     1      25.138   1.577  53.172  1.00  0.00     0.008 C 
HETATM    4  C4  UNL     1      25.849   0.324  53.514  1.00  0.00     0.018 C 
HETATM    5  C5  UNL     1      25.020  -0.721  53.770  1.00  0.00     0.098 C 
HETATM    6  N1  UNL     1      23.687  -0.255  53.667  1.00  0.00    -0.287 N 
HETATM    7  C6  UNL     1      22.657  -0.735  54.608  1.00  0.00     0.250 A 
HETATM    8  O1  UNL     1      22.654  -1.581  55.580  1.00  0.00    -0.268 OA
HETATM    9  C7  UNL     1      21.368  -0.102  54.366  1.00  0.00     0.083 A 
HETATM   10  C8  UNL     1      21.620   0.701  53.347  1.00  0.00    -0.010 A 
HETATM   11  C9  UNL     1      21.111   1.713  52.359  1.00  0.00     0.067 C 
HETATM   12  C10 UNL     1      19.611   1.533  52.168  1.00  0.00     0.019 C 
HETATM   13  C11 UNL     1      19.026   2.492  51.219  1.00  0.00    -0.012 C 
HETATM   14  C14 UNL     1      19.101   1.873  49.817  1.00  0.00     0.005 C 
HETATM   15  C15 UNL     1      20.457   2.033  49.215  1.00  0.00     0.006 C 
HETATM   16  C16 UNL     1      21.379   0.903  49.694  1.00  0.00     0.055 C 
HETATM   17  C17 UNL     1      21.725   1.041  51.135  1.00  0.00     0.019 C 
HETATM   18  N2  UNL     1      22.842   0.446  51.486  1.00  0.00    -0.256 NA
HETATM   19  C18 UNL     1      22.974   0.725  52.910  1.00  0.00     0.183 A 
ENDROOT
BRANCH  13  20
HETATM   20  C12 UNL     1      17.560   2.661  51.507  1.00  0.00     0.030 C 
BRANCH  20  21
HETATM   21  C13 UNL     1      17.048   4.059  51.450  1.00  0.00     0.164 C 
BRANCH  21  22
HETATM   22  O2  UNL     1      16.341   4.346  52.646  1.00  0.00    -0.401 OA
HETATM   23  H16 UNL     1      16.828   5.008  53.169  1.00  0.00     0.209 HD
ENDBRANCH  21  22
ENDBRANCH  20  21
ENDBRANCH  13  20
TORSDOF 3
ENDMDL
MODEL 9
REMARK VINA RESULT:      -7.4      7.443      8.639
REMARK  3 active torsions:
REMARK  status: ('A' for Active; 'I' for Inactive)
REMARK    1  A    between atoms: C11_13  and  C12_14 
REMARK    2  A    between atoms: C12_14  and  C13_15 
REMARK    3  A    between atoms: C13_15  and  O2_16 
ROOT
HETATM    1  C1  UNL     1      28.826   8.268  45.557  1.00  0.00     0.048 C 
HETATM    2  C2  UNL     1      28.005   7.986  46.752  1.00  0.00    -0.029 C 
HETATM    3  C3  UNL     1      26.924   8.809  46.839  1.00  0.00     0.008 C 
HETATM    4  C4  UNL     1      25.776   8.965  47.761  1.00  0.00     0.018 C 
HETATM    5  C5  UNL     1      25.747   8.042  48.757  1.00  0.00     0.098 C 
HETATM    6  N1  UNL     1      26.840   7.163  48.569  1.00  0.00    -0.287 N 
HETATM    7  C6  UNL     1      26.687   5.719  48.830  1.00  0.00     0.250 A 
HETATM    8  O1  UNL     1      25.721   4.982  49.258  1.00  0.00    -0.268 OA
HETATM    9  C7  UNL     1      27.908   4.984  48.531  1.00  0.00     0.083 A 
HETATM   10  C8  UNL     1      28.731   5.933  48.121  1.00  0.00    -0.010 A 
HETATM   11  C9  UNL     1      30.097   6.316  47.623  1.00  0.00     0.067 C 
HETATM   12  C10 UNL     1      31.118   5.286  48.087  1.00  0.00     0.019 C 
HETATM   13  C11 UNL     1      32.487   5.578  47.635  1.00  0.00    -0.012 C 
HETATM   14  C14 UNL     1      33.155   6.460  48.699  1.00  0.00     0.005 C 
HETATM   15  C15 UNL     1      32.753   7.891  48.560  1.00  0.00     0.006 C 
HETATM   16  C16 UNL     1      31.423   8.133  49.287  1.00  0.00     0.055 C 
HETATM   17  C17 UNL     1      30.281   7.482  48.588  1.00  0.00     0.019 C 
HETATM   18  N2  UNL     1      29.110   8.022  48.838  1.00  0.00    -0.256 NA
HETATM   19  C18 UNL     1      28.169   7.238  48.049  1.00  0.00     0.183 A 
ENDROOT
BRANCH  13  20
HETATM   20  C12 UNL     1      33.292   4.309  47.600  1.00  0.00     0.030 C 
BRANCH  20  21
HETATM   21  C13 UNL     1      34.737   4.452  47.937  1.00  0.00     0.164 C 
BRANCH  21  22
HETATM   22  O2  UNL     1      35.110   3.423  48.840  1.00  0.00    -0.401 OA
HETATM   23  H16 UNL     1      34.881   2.554  48.464  1.00  0.00     0.209 HD
ENDBRANCH  21  22
ENDBRANCH  20  21
ENDBRANCH  13  20
TORSDOF 3
ENDMDL
