MODEL 1
REMARK VINA RESULT:      -7.8      0.000      0.000
REMARK  3 active torsions:
REMARK  status: ('A' for Active; 'I' for Inactive)
REMARK    1  A    between atoms: O1_2  and  C2_3 
REMARK    2  A    between atoms: N1_7  and  C6_8 
REMARK    3  A    between atoms: C9_11  and  N2_12 
ROOT
HETATM    1  C2  UNL     1      27.889   7.238  48.527  1.00  0.00     0.064 C 
HETATM    2  C3  UNL     1      27.034   6.232  48.580  1.00  0.00     0.117 C 
HETATM    3  C4  UNL     1      26.008   5.263  48.752  1.00  0.00     0.160 C 
HETATM    4  C5  UNL     1      24.898   5.369  49.411  1.00  0.00     0.211 A 
HETATM    5  N1  UNL     1      23.680   4.911  49.922  1.00  0.00     0.047 N 
HETATM    6  N3  UNL     1      23.913   6.451  49.760  1.00  0.00    -0.072 NA
HETATM    7  C16 UNL     1      24.406   7.573  50.109  1.00  0.00     0.271 C 
HETATM    8  O3  UNL     1      25.211   8.744  50.469  1.00  0.00    -0.362 OA
HETATM    9  C17 UNL     1      26.562   8.534  50.497  1.00  0.00     0.197 C 
HETATM   10  C18 UNL     1      27.620   9.344  49.993  1.00  0.00    -0.002 C 
HETATM   11  C19 UNL     1      28.270   8.633  49.019  1.00  0.00     0.004 C 
HETATM   12  H6  UNL     1      22.797   4.588  50.285  1.00  0.00     0.312 HD
ENDROOT
BRANCH   5  13
HETATM   13  C6  UNL     1      24.321   3.885  50.766  1.00  0.00     0.156 A 
HETATM   14  C7  UNL     1      25.168   2.860  50.525  1.00  0.00     0.051 A 
HETATM   15  C8  UNL     1      25.566   2.068  51.697  1.00  0.00    -0.019 A 
HETATM   16  C9  UNL     1      26.379   1.047  51.578  1.00  0.00     0.097 C 
HETATM   17  C14 UNL     1      24.851   2.723  52.765  1.00  0.00     0.015 A 
HETATM   18  C15 UNL     1      24.153   3.743  52.238  1.00  0.00     0.040 A 
BRANCH  16  19
HETATM   19  N2  UNL     1      26.725   0.324  52.755  1.00  0.00    -0.385 N 
HETATM   20  C10 UNL     1      28.130   0.495  53.165  1.00  0.00     0.148 C 
HETATM   21  C11 UNL     1      28.298   0.537  54.650  1.00  0.00     0.187 C 
HETATM   22  O2  UNL     1      27.460  -0.291  55.361  1.00  0.00    -0.388 OA
HETATM   23  C12 UNL     1      26.126  -0.133  55.035  1.00  0.00     0.187 C 
HETATM   24  C13 UNL     1      25.866  -0.535  53.581  1.00  0.00     0.148 C 
ENDBRANCH  16  19
ENDBRANCH   5  13
BRANCH   1  25
HETATM   25  O1  UNL     1      28.854   6.681  47.640  1.00  0.00    -0.386 OA
HETATM   26  C1  UNL     1      29.781   5.757  48.144  1.00  0.00     0.202 C 
ENDBRANCH   1  25
TORSDOF 3
ENDMDL
MODEL 2
REMARK VINA RESULT:      -7.8      5.307      5.961
REMARK  3 active torsions:
REMARK  status: ('A' for Active; 'I' for Inactive)
REMARK    1  A    between atoms: O1_2  and  C2_3 
REMARK    2  A    between atoms: N1_7  and  C6_8 
REMARK    3  A    between atoms: C9_11  and  N2_12 
ROOT
HETATM    1  C2  UNL     1      21.101   3.093  48.670  1.00  0.00     0.064 C 
HETATM    2  C3  UNL     1      21.131   1.947  49.326  1.00  0.00     0.117 C 
HETATM    3  C4  UNL     1      21.073   0.809  50.175  1.00  0.00     0.160 C 
HETATM    4  C5  UNL     1      20.532   0.700  51.346  1.00  0.00     0.211 A 
HETATM    5  N1  UNL     1      20.185   0.032  52.525  1.00  0.00     0.047 N 
HETATM    6  N3  UNL     1      19.368   1.295  52.092  1.00  0.00    -0.072 NA
HETATM    7  C16 UNL     1      19.193   2.550  51.958  1.00  0.00     0.271 C 
HETATM    8  O3  UNL     1      19.209   3.982  51.644  1.00  0.00    -0.362 OA
HETATM    9  C17 UNL     1      20.270   4.400  50.889  1.00  0.00     0.197 C 
HETATM   10  C18 UNL     1      20.302   5.285  49.773  1.00  0.00    -0.002 C 
HETATM   11  C19 UNL     1      20.751   4.580  48.687  1.00  0.00     0.004 C 
HETATM   12  H6  UNL     1      19.926  -0.449  53.372  1.00  0.00     0.312 HD
ENDROOT
BRANCH   5  13
HETATM   13  C6  UNL     1      21.591  -0.160  52.931  1.00  0.00     0.156 A 
HETATM   14  C7  UNL     1      22.766   0.384  52.546  1.00  0.00     0.051 A 
HETATM   15  C8  UNL     1      23.961  -0.115  53.239  1.00  0.00    -0.019 A 
HETATM   16  C9  UNL     1      25.154   0.340  52.942  1.00  0.00     0.097 C 
HETATM   17  C14 UNL     1      23.403  -1.085  54.150  1.00  0.00     0.015 A 
HETATM   18  C15 UNL     1      22.071  -1.107  53.973  1.00  0.00     0.040 A 
BRANCH  16  19
HETATM   19  N2  UNL     1      26.269  -0.188  53.653  1.00  0.00    -0.385 N 
HETATM   20  C10 UNL     1      26.954  -1.289  52.951  1.00  0.00     0.148 C 
HETATM   21  C11 UNL     1      28.436  -1.262  53.143  1.00  0.00     0.187 C 
HETATM   22  O2  UNL     1      28.862  -0.857  54.386  1.00  0.00    -0.388 OA
HETATM   23  C12 UNL     1      28.316   0.347  54.788  1.00  0.00     0.187 C 
HETATM   24  C13 UNL     1      26.799   0.232  54.957  1.00  0.00     0.148 C 
ENDBRANCH  16  19
ENDBRANCH   5  13
BRANCH   1  25
HETATM   25  O1  UNL     1      21.712   2.683  47.450  1.00  0.00    -0.386 OA
HETATM   26  C1  UNL     1      21.797   3.603  46.395  1.00  0.00     0.202 C 
ENDBRANCH   1  25
TORSDOF 3
ENDMDL
MODEL 3
REMARK VINA RESULT:      -7.4      2.774      7.912
REMARK  3 active torsions:
REMARK  status: ('A' for Active; 'I' for Inactive)
REMARK    1  A    between atoms: O1_2  and  C2_3 
REMARK    2  A    between atoms: N1_7  and  C6_8 
REMARK    3  A    between atoms: C9_11  and  N2_12 
ROOT
HETATM    1  C2  UNL     1      23.812   1.069  53.102  1.00  0.00     0.064 C 
HETATM    2  C3  UNL     1      24.007   2.374  53.049  1.00  0.00     0.117 C 
HETATM    3  C4  UNL     1      24.045   3.788  52.901  1.00  0.00     0.160 C 
HETATM    4  C5  UNL     1      23.147   4.573  52.397  1.00  0.00     0.211 A 
HETATM    5  N1  UNL     1      22.625   5.805  51.992  1.00  0.00     0.047 N 
HETATM    6  N3  UNL     1      21.648   4.617  52.284  1.00  0.00    -0.072 NA
HETATM    7  C16 UNL     1      21.070   3.519  51.996  1.00  0.00     0.271 C 
HETATM    8  O3  UNL     1      20.654   2.152  51.665  1.00  0.00    -0.362 OA
HETATM    9  C17 UNL     1      21.676   1.269  51.452  1.00  0.00     0.197 C 
HETATM   10  C18 UNL     1      21.831  -0.072  51.906  1.00  0.00    -0.002 C 
HETATM   11  C19 UNL     1      22.935  -0.121  52.715  1.00  0.00     0.004 C 
HETATM   12  H6  UNL     1      22.241   6.693  51.707  1.00  0.00     0.312 HD
ENDROOT
BRANCH   5  13
HETATM   13  C6  UNL     1      23.673   6.012  50.974  1.00  0.00     0.156 A 
HETATM   14  C7  UNL     1      24.728   6.849  50.863  1.00  0.00     0.051 A 
HETATM   15  C8  UNL     1      25.535   6.706  49.644  1.00  0.00    -0.019 A 
HETATM   16  C9  UNL     1      26.578   7.469  49.431  1.00  0.00     0.097 C 
HETATM   17  C14 UNL     1      24.853   5.640  48.950  1.00  0.00     0.015 A 
HETATM   18  C15 UNL     1      23.808   5.253  49.701  1.00  0.00     0.040 A 
BRANCH  16  19
HETATM   19  N2  UNL     1      27.316   7.276  48.228  1.00  0.00    -0.385 N 
HETATM   20  C10 UNL     1      26.868   8.131  47.113  1.00  0.00     0.148 C 
HETATM   21  C11 UNL     1      27.999   8.600  46.255  1.00  0.00     0.187 C 
HETATM   22  O2  UNL     1      29.016   7.692  46.072  1.00  0.00    -0.388 OA
HETATM   23  C12 UNL     1      29.509   7.175  47.255  1.00  0.00     0.187 C 
HETATM   24  C13 UNL     1      28.439   6.360  47.985  1.00  0.00     0.148 C 
ENDBRANCH  16  19
ENDBRANCH   5  13
BRANCH   1  25
HETATM   25  O1  UNL     1      24.990   0.683  53.803  1.00  0.00    -0.386 OA
HETATM   26  C1  UNL     1      25.412  -0.653  53.730  1.00  0.00     0.202 C 
ENDBRANCH   1  25
TORSDOF 3
ENDMDL
MODEL 4
REMARK VINA RESULT:      -7.4      5.059      6.779
REMARK  3 active torsions:
REMARK  status: ('A' for Active; 'I' for Inactive)
REMARK    1  A    between atoms: O1_2  and  C2_3 
REMARK    2  A    between atoms: N1_7  and  C6_8 
REMARK    3  A    between atoms: C9_11  and  N2_12 
ROOT
HETATM    1  C2  UNL     1      24.491   5.631  50.831  1.00  0.00     0.064 C 
HETATM    2  C3  UNL     1      24.070   4.801  51.769  1.00  0.00     0.117 C 
HETATM    3  C4  UNL     1      23.746   3.784  52.708  1.00  0.00     0.160 C 
HETATM    4  C5  UNL     1      24.287   2.616  52.853  1.00  0.00     0.211 A 
HETATM    5  N1  UNL     1      24.434   1.351  53.431  1.00  0.00     0.047 N 
HETATM    6  N3  UNL     1      25.641   1.988  52.663  1.00  0.00    -0.072 NA
HETATM    7  C16 UNL     1      26.275   2.321  51.609  1.00  0.00     0.271 C 
HETATM    8  O3  UNL     1      26.789   2.857  50.345  1.00  0.00    -0.362 OA
HETATM    9  C17 UNL     1      25.919   3.656  49.656  1.00  0.00     0.197 C 
HETATM   10  C18 UNL     1      26.149   4.897  48.996  1.00  0.00    -0.002 C 
HETATM   11  C19 UNL     1      25.387   5.853  49.614  1.00  0.00     0.004 C 
HETATM   12  H6  UNL     1      24.549   0.442  53.850  1.00  0.00     0.312 HD
ENDROOT
BRANCH   5  13
HETATM   13  C6  UNL     1      23.096   0.904  52.997  1.00  0.00     0.156 A 
HETATM   14  C7  UNL     1      21.949   0.598  53.643  1.00  0.00     0.051 A 
HETATM   15  C8  UNL     1      20.825   0.187  52.793  1.00  0.00    -0.019 A 
HETATM   16  C9  UNL     1      19.666  -0.137  53.314  1.00  0.00     0.097 C 
HETATM   17  C14 UNL     1      21.398   0.262  51.471  1.00  0.00     0.015 A 
HETATM   18  C15 UNL     1      22.674   0.665  51.591  1.00  0.00     0.040 A 
BRANCH  16  19
HETATM   19  N2  UNL     1      18.619  -0.526  52.430  1.00  0.00    -0.385 N 
HETATM   20  C10 UNL     1      17.783  -1.624  52.949  1.00  0.00     0.148 C 
HETATM   21  C11 UNL     1      16.341  -1.474  52.582  1.00  0.00     0.187 C 
HETATM   22  O2  UNL     1      16.102  -0.946  51.335  1.00  0.00    -0.388 OA
HETATM   23  C12 UNL     1      16.770   0.242  51.106  1.00  0.00     0.187 C 
HETATM   24  C13 UNL     1      18.286   0.030  51.112  1.00  0.00     0.148 C 
ENDBRANCH  16  19
ENDBRANCH   5  13
BRANCH   1  25
HETATM   25  O1  UNL     1      23.683   6.763  51.137  1.00  0.00    -0.386 OA
HETATM   26  C1  UNL     1      24.043   8.012  50.609  1.00  0.00     0.202 C 
ENDBRANCH   1  25
TORSDOF 3
ENDMDL
MODEL 5
REMARK VINA RESULT:      -7.4      3.353      4.163
REMARK  3 active torsions:
REMARK  status: ('A' for Active; 'I' for Inactive)
REMARK    1  A    between atoms: O1_2  and  C2_3 
REMARK    2  A    between atoms: N1_7  and  C6_8 
REMARK    3  A    between atoms: C9_11  and  N2_12 
ROOT
HETATM    1  C2  UNL     1      21.957   4.706  47.196  1.00  0.00     0.064 C 
HETATM    2  C3  UNL     1      21.758   4.056  48.328  1.00  0.00     0.117 C 
HETATM    3  C4  UNL     1      21.588   3.523  49.635  1.00  0.00     0.160 C 
HETATM    4  C5  UNL     1      21.686   4.129  50.775  1.00  0.00     0.211 A 
HETATM    5  N1  UNL     1      21.674   4.213  52.170  1.00  0.00     0.047 N 
HETATM    6  N3  UNL     1      21.444   5.509  51.323  1.00  0.00    -0.072 NA
HETATM    7  C16 UNL     1      21.833   6.482  50.598  1.00  0.00     0.271 C 
HETATM    8  O3  UNL     1      22.361   7.410  49.592  1.00  0.00    -0.362 OA
HETATM    9  C17 UNL     1      22.992   6.819  48.533  1.00  0.00     0.197 C 
HETATM   10  C18 UNL     1      22.899   7.108  47.141  1.00  0.00    -0.002 C 
HETATM   11  C19 UNL     1      22.393   6.001  46.512  1.00  0.00     0.004 C 
HETATM   12  H6  UNL     1      21.658   4.279  53.176  1.00  0.00     0.312 HD
ENDROOT
BRANCH   5  13
HETATM   13  C6  UNL     1      22.829   3.307  52.320  1.00  0.00     0.156 A 
HETATM   14  C7  UNL     1      24.164   3.445  52.156  1.00  0.00     0.051 A 
HETATM   15  C8  UNL     1      24.970   2.247  52.423  1.00  0.00    -0.019 A 
HETATM   16  C9  UNL     1      26.274   2.267  52.291  1.00  0.00     0.097 C 
HETATM   17  C14 UNL     1      23.966   1.279  52.792  1.00  0.00     0.015 A 
HETATM   18  C15 UNL     1      22.765   1.879  52.733  1.00  0.00     0.040 A 
BRANCH  16  19
HETATM   19  N2  UNL     1      26.994   1.069  52.567  1.00  0.00    -0.385 N 
HETATM   20  C10 UNL     1      28.035   1.228  53.598  1.00  0.00     0.148 C 
HETATM   21  C11 UNL     1      28.165   0.026  54.478  1.00  0.00     0.187 C 
HETATM   22  O2  UNL     1      27.985  -1.185  53.850  1.00  0.00    -0.388 OA
HETATM   23  C12 UNL     1      26.809  -1.258  53.127  1.00  0.00     0.187 C 
HETATM   24  C13 UNL     1      26.816  -0.260  51.967  1.00  0.00     0.148 C 
ENDBRANCH  16  19
ENDBRANCH   5  13
BRANCH   1  25
HETATM   25  O1  UNL     1      21.647   3.669  46.270  1.00  0.00    -0.386 OA
HETATM   26  C1  UNL     1      21.483   3.999  44.916  1.00  0.00     0.202 C 
ENDBRANCH   1  25
TORSDOF 3
ENDMDL
MODEL 6
REMARK VINA RESULT:      -7.4      3.084      8.059
REMARK  3 active torsions:
REMARK  status: ('A' for Active; 'I' for Inactive)
REMARK    1  A    between atoms: O1_2  and  C2_3 
REMARK    2  A    between atoms: N1_7  and  C6_8 
REMARK    3  A    between atoms: C9_11  and  N2_12 
ROOT
HETATM    1  C2  UNL     1      27.554   1.460  53.837  1.00  0.00     0.064 C 
HETATM    2  C3  UNL     1      26.444   2.157  53.672  1.00  0.00     0.117 C 
HETATM    3  C4  UNL     1      25.170   2.740  53.435  1.00  0.00     0.160 C 
HETATM    4  C5  UNL     1      24.076   2.164  53.048  1.00  0.00     0.211 A 
HETATM    5  N1  UNL     1      22.731   2.125  52.668  1.00  0.00     0.047 N 
HETATM    6  N3  UNL     1      23.416   0.821  53.197  1.00  0.00    -0.072 NA
HETATM    7  C16 UNL     1      24.174  -0.197  53.082  1.00  0.00     0.271 C 
HETATM    8  O3  UNL     1      25.242  -1.187  52.912  1.00  0.00    -0.362 OA
HETATM    9  C17 UNL     1      26.464  -0.672  52.577  1.00  0.00     0.197 C 
HETATM   10  C18 UNL     1      27.757  -0.997  53.077  1.00  0.00    -0.002 C 
HETATM   11  C19 UNL     1      28.270   0.120  53.682  1.00  0.00     0.004 C 
HETATM   12  H6  UNL     1      21.760   2.092  52.401  1.00  0.00     0.312 HD
ENDROOT
BRANCH   5  13
HETATM   13  C6  UNL     1      22.957   2.959  51.471  1.00  0.00     0.156 A 
HETATM   14  C7  UNL     1      22.638   4.228  51.132  1.00  0.00     0.051 A 
HETATM   15  C8  UNL     1      23.074   4.664  49.799  1.00  0.00    -0.019 A 
HETATM   16  C9  UNL     1      22.814   5.873  49.365  1.00  0.00     0.097 C 
HETATM   17  C14 UNL     1      23.736   3.486  49.294  1.00  0.00     0.015 A 
HETATM   18  C15 UNL     1      23.668   2.531  50.236  1.00  0.00     0.040 A 
BRANCH  16  19
HETATM   19  N2  UNL     1      23.267   6.230  48.063  1.00  0.00    -0.385 N 
HETATM   20  C10 UNL     1      22.367   5.792  46.981  1.00  0.00     0.148 C 
HETATM   21  C11 UNL     1      22.288   6.779  45.860  1.00  0.00     0.187 C 
HETATM   22  O2  UNL     1      23.462   7.433  45.568  1.00  0.00    -0.388 OA
HETATM   23  C12 UNL     1      24.050   8.023  46.671  1.00  0.00     0.187 C 
HETATM   24  C13 UNL     1      24.483   6.967  47.692  1.00  0.00     0.148 C 
ENDBRANCH  16  19
ENDBRANCH   5  13
BRANCH   1  25
HETATM   25  O1  UNL     1      28.404   2.486  54.343  1.00  0.00    -0.386 OA
HETATM   26  C1  UNL     1      29.746   2.180  54.611  1.00  0.00     0.202 C 
ENDBRANCH   1  25
TORSDOF 3
ENDMDL
MODEL 7
REMARK VINA RESULT:      -7.2      3.953      6.201
REMARK  3 active torsions:
REMARK  status: ('A' for Active; 'I' for Inactive)
REMARK    1  A    between atoms: O1_2  and  C2_3 
REMARK    2  A    between atoms: N1_7  and  C6_8 
REMARK    3  A    between atoms: C9_11  and  N2_12 
ROOT
HETATM    1  C2  UNL     1      19.098   2.311  50.492  1.00  0.00     0.064 C 
HETATM    2  C3  UNL     1      19.969   2.668  51.418  1.00  0.00     0.117 C 
HETATM    3  C4  UNL     1      20.961   3.192  52.292  1.00  0.00     0.160 C 
HETATM    4  C5  UNL     1      21.726   4.223  52.122  1.00  0.00     0.211 A 
HETATM    5  N1  UNL     1      22.735   5.124  52.475  1.00  0.00     0.047 N 
HETATM    6  N3  UNL     1      21.654   5.557  51.429  1.00  0.00    -0.072 NA
HETATM    7  C16 UNL     1      21.128   5.563  50.268  1.00  0.00     0.271 C 
HETATM    8  O3  UNL     1      20.491   5.305  48.973  1.00  0.00    -0.362 OA
HETATM    9  C17 UNL     1      20.239   3.989  48.701  1.00  0.00     0.197 C 
HETATM   10  C18 UNL     1      19.078   3.380  48.144  1.00  0.00    -0.002 C 
HETATM   11  C19 UNL     1      18.556   2.527  49.080  1.00  0.00     0.004 C 
HETATM   12  H6  UNL     1      23.457   5.780  52.730  1.00  0.00     0.312 HD
ENDROOT
BRANCH   5  13
HETATM   13  C6  UNL     1      23.784   4.086  52.460  1.00  0.00     0.156 A 
HETATM   14  C7  UNL     1      24.352   3.305  53.405  1.00  0.00     0.051 A 
HETATM   15  C8  UNL     1      25.391   2.380  52.933  1.00  0.00    -0.019 A 
HETATM   16  C9  UNL     1      26.012   1.580  53.765  1.00  0.00     0.097 C 
HETATM   17  C14 UNL     1      25.433   2.664  51.520  1.00  0.00     0.015 A 
HETATM   18  C15 UNL     1      24.529   3.623  51.258  1.00  0.00     0.040 A 
BRANCH  16  19
HETATM   19  N2  UNL     1      27.008   0.708  53.240  1.00  0.00    -0.385 N 
HETATM   20  C10 UNL     1      28.383   1.089  53.607  1.00  0.00     0.148 C 
HETATM   21  C11 UNL     1      29.263  -0.094  53.858  1.00  0.00     0.187 C 
HETATM   22  O2  UNL     1      29.034  -1.181  53.047  1.00  0.00    -0.388 OA
HETATM   23  C12 UNL     1      27.711  -1.578  53.022  1.00  0.00     0.187 C 
HETATM   24  C13 UNL     1      26.823  -0.491  52.410  1.00  0.00     0.148 C 
ENDBRANCH  16  19
ENDBRANCH   5  13
BRANCH   1  25
HETATM   25  O1  UNL     1      18.462   1.232  51.170  1.00  0.00    -0.386 OA
HETATM   26  C1  UNL     1      19.246   0.159  51.618  1.00  0.00     0.202 C 
ENDBRANCH   1  25
TORSDOF 3
ENDMDL
MODEL 8
REMARK VINA RESULT:      -7.2      6.393     10.632
REMARK  3 active torsions:
REMARK  status: ('A' for Active; 'I' for Inactive)
REMARK    1  A    between atoms: O1_2  and  C2_3 
REMARK    2  A    between atoms: N1_7  and  C6_8 
REMARK    3  A    between atoms: C9_11  and  N2_12 
ROOT
HETATM    1  C2  UNL     1      29.010   5.881  48.268  1.00  0.00     0.064 C 
HETATM    2  C3  UNL     1      30.217   5.425  47.989  1.00  0.00     0.117 C 
HETATM    3  C4  UNL     1      31.574   5.119  47.695  1.00  0.00     0.160 C 
HETATM    4  C5  UNL     1      32.587   5.922  47.624  1.00  0.00     0.211 A 
HETATM    5  N1  UNL     1      33.928   6.254  47.406  1.00  0.00     0.047 N 
HETATM    6  N3  UNL     1      33.033   7.207  48.267  1.00  0.00    -0.072 NA
HETATM    7  C16 UNL     1      32.138   8.101  48.422  1.00  0.00     0.271 C 
HETATM    8  O3  UNL     1      30.945   8.950  48.486  1.00  0.00    -0.362 OA
HETATM    9  C17 UNL     1      29.830   8.431  47.887  1.00  0.00     0.197 C 
HETATM   10  C18 UNL     1      28.480   8.405  48.342  1.00  0.00    -0.002 C 
HETATM   11  C19 UNL     1      28.111   7.095  48.495  1.00  0.00     0.004 C 
HETATM   12  H6  UNL     1      34.895   6.496  47.258  1.00  0.00     0.312 HD
ENDROOT
BRANCH   5  13
HETATM   13  C6  UNL     1      33.885   5.853  45.987  1.00  0.00     0.156 A 
HETATM   14  C7  UNL     1      33.329   6.380  44.874  1.00  0.00     0.051 A 
HETATM   15  C8  UNL     1      33.543   5.627  43.631  1.00  0.00    -0.019 A 
HETATM   16  C9  UNL     1      33.043   6.043  42.494  1.00  0.00     0.097 C 
HETATM   17  C14 UNL     1      34.332   4.507  44.085  1.00  0.00     0.015 A 
HETATM   18  C15 UNL     1      34.522   4.638  45.409  1.00  0.00     0.040 A 
BRANCH  16  19
HETATM   19  N2  UNL     1      33.291   5.265  41.327  1.00  0.00    -0.385 N 
HETATM   20  C10 UNL     1      34.385   5.786  40.487  1.00  0.00     0.148 C 
HETATM   21  C11 UNL     1      35.201   4.700  39.863  1.00  0.00     0.187 C 
HETATM   22  O2  UNL     1      34.498   3.583  39.477  1.00  0.00    -0.388 OA
HETATM   23  C12 UNL     1      33.709   3.057  40.482  1.00  0.00     0.187 C 
HETATM   24  C13 UNL     1      32.608   4.041  40.887  1.00  0.00     0.148 C 
ENDBRANCH  16  19
ENDBRANCH   5  13
BRANCH   1  25
HETATM   25  O1  UNL     1      28.299   4.648  48.327  1.00  0.00    -0.386 OA
HETATM   26  C1  UNL     1      27.041   4.622  48.946  1.00  0.00     0.202 C 
ENDBRANCH   1  25
TORSDOF 3
ENDMDL
MODEL 9
REMARK VINA RESULT:      -6.9      3.561      5.460
REMARK  3 active torsions:
REMARK  status: ('A' for Active; 'I' for Inactive)
REMARK    1  A    between atoms: O1_2  and  C2_3 
REMARK    2  A    between atoms: N1_7  and  C6_8 
REMARK    3  A    between atoms: C9_11  and  N2_12 
ROOT
HETATM    1  C2  UNL     1      19.687   3.365  48.397  1.00  0.00     0.064 C 
HETATM    2  C3  UNL     1      20.320   3.780  49.479  1.00  0.00     0.117 C 
HETATM    3  C4  UNL     1      21.128   4.310  50.523  1.00  0.00     0.160 C 
HETATM    4  C5  UNL     1      22.181   5.058  50.430  1.00  0.00     0.211 A 
HETATM    5  N1  UNL     1      23.267   5.784  50.928  1.00  0.00     0.047 N 
HETATM    6  N3  UNL     1      22.713   6.117  49.502  1.00  0.00    -0.072 NA
HETATM    7  C16 UNL     1      22.568   5.899  48.255  1.00  0.00     0.271 C 
HETATM    8  O3  UNL     1      22.284   5.421  46.898  1.00  0.00    -0.362 OA
HETATM    9  C17 UNL     1      21.740   4.168  46.827  1.00  0.00     0.197 C 
HETATM   10  C18 UNL     1      20.661   3.688  46.029  1.00  0.00    -0.002 C 
HETATM   11  C19 UNL     1      19.663   3.274  46.872  1.00  0.00     0.004 C 
HETATM   12  H6  UNL     1      24.046   6.315  51.284  1.00  0.00     0.312 HD
ENDROOT
BRANCH   5  13
HETATM   13  C6  UNL     1      23.917   4.587  51.495  1.00  0.00     0.156 A 
HETATM   14  C7  UNL     1      24.761   3.651  51.007  1.00  0.00     0.051 A 
HETATM   15  C8  UNL     1      25.171   2.602  51.950  1.00  0.00    -0.019 A 
HETATM   16  C9  UNL     1      25.982   1.642  51.581  1.00  0.00     0.097 C 
HETATM   17  C14 UNL     1      24.466   2.979  53.151  1.00  0.00     0.015 A 
HETATM   18  C15 UNL     1      23.763   4.095  52.891  1.00  0.00     0.040 A 
BRANCH  16  19
HETATM   19  N2  UNL     1      26.340   0.658  52.547  1.00  0.00    -0.385 N 
HETATM   20  C10 UNL     1      27.682   0.853  53.125  1.00  0.00     0.148 C 
HETATM   21  C11 UNL     1      27.744   0.494  54.575  1.00  0.00     0.187 C 
HETATM   22  O2  UNL     1      26.974  -0.583  54.948  1.00  0.00    -0.388 OA
HETATM   23  C12 UNL     1      25.656  -0.481  54.547  1.00  0.00     0.187 C 
HETATM   24  C13 UNL     1      25.545  -0.484  53.020  1.00  0.00     0.148 C 
ENDBRANCH  16  19
ENDBRANCH   5  13
BRANCH   1  25
HETATM   25  O1  UNL     1      18.591   2.691  49.008  1.00  0.00    -0.386 OA
HETATM   26  C1  UNL     1      18.844   1.535  49.761  1.00  0.00     0.202 C 
ENDBRANCH   1  25
TORSDOF 3
ENDMDL
