MODEL 1
REMARK VINA RESULT:      -7.8      0.000      0.000
REMARK  9 active torsions:
REMARK  status: ('A' for Active; 'I' for Inactive)
REMARK    1  A    between atoms: N1_2  and  O1_3 
REMARK    2  A    between atoms: O1_3  and  C2_4 
REMARK    3  A    between atoms: C2_4  and  C3_5 
REMARK    4  A    between atoms: C3_5  and  C4_6 
REMARK    5  A    between atoms: C4_6  and  C5_7 
REMARK    6  A    between atoms: C6_8  and  C7_9 
REMARK    7  A    between atoms: C10_14  and  N4_15 
REMARK    8  A    between atoms: N4_15  and  C11_16 
REMARK    9  A    between atoms: C11_16  and  C12_17 
ROOT
HETATM    1  C7  UNL     1      26.909   1.464  52.876  1.00  0.00     0.027 A 
HETATM    2  C8  UNL     1      28.058   2.155  53.166  1.00  0.00     0.133 A 
HETATM    3  N2  UNL     1      29.054   1.646  53.945  1.00  0.00    -0.253 NA
HETATM    4  C9  UNL     1      28.942   0.412  54.474  1.00  0.00     0.234 A 
HETATM    5  N3  UNL     1      27.823  -0.268  54.195  1.00  0.00    -0.224 NA
HETATM    6  C10 UNL     1      26.834   0.214  53.433  1.00  0.00     0.136 A 
ENDROOT
BRANCH   6   7
HETATM    7  N4  UNL     1      25.675  -0.572  53.183  1.00  0.00    -0.370 N 
HETATM    8  H15 UNL     1      25.322  -1.095  52.388  1.00  0.00     0.161 HD
BRANCH   7   9
HETATM    9  C11 UNL     1      24.737  -0.701  54.274  1.00  0.00     0.163 C 
BRANCH   9  10
HETATM   10  C12 UNL     1      23.319  -0.582  53.892  1.00  0.00    -0.002 A 
HETATM   11  C13 UNL     1      22.860   0.179  52.845  1.00  0.00     0.012 A 
HETATM   12  C14 UNL     1      21.500   0.194  52.606  1.00  0.00     0.001 A 
HETATM   13  C15 UNL     1      20.607  -0.525  53.383  1.00  0.00     0.003 A 
HETATM   14  C16 UNL     1      21.077  -1.296  54.447  1.00  0.00     0.043 A 
HETATM   15  C17 UNL     1      22.437  -1.302  54.674  1.00  0.00     0.124 A 
HETATM   16  F1  UNL     1      22.807  -2.080  55.729  1.00  0.00    -0.205 F 
ENDBRANCH   9  10
ENDBRANCH   7   9
ENDBRANCH   6   7
BRANCH   1  17
HETATM   17  C6  UNL     1      25.849   1.983  52.054  1.00  0.00     0.013 C 
HETATM   18  C5  UNL     1      25.830   2.639  50.915  1.00  0.00    -0.026 C 
BRANCH  18  19
HETATM   19  C4  UNL     1      26.604   3.234  49.818  1.00  0.00     0.029 C 
BRANCH  19  20
HETATM   20  C3  UNL     1      26.163   4.646  49.479  1.00  0.00     0.032 C 
BRANCH  20  21
HETATM   21  C2  UNL     1      27.152   5.392  48.633  1.00  0.00     0.194 C 
BRANCH  21  22
HETATM   22  O1  UNL     1      28.378   4.769  48.589  1.00  0.00    -0.306 OA
BRANCH  22  23
HETATM   23  N1  UNL     1      29.420   5.522  48.972  1.00  0.00    -0.210 NA
HETATM   24  C1  UNL     1      30.461   5.585  47.962  1.00  0.00     0.140 C 
HETATM   25  H4  UNL     1      29.854   5.183  49.859  1.00  0.00     0.153 HD
ENDBRANCH  22  23
ENDBRANCH  21  22
ENDBRANCH  20  21
ENDBRANCH  19  20
ENDBRANCH  18  19
ENDBRANCH   1  17
TORSDOF 9
ENDMDL
MODEL 2
REMARK VINA RESULT:      -7.6      2.412      2.670
REMARK  9 active torsions:
REMARK  status: ('A' for Active; 'I' for Inactive)
REMARK    1  A    between atoms: N1_2  and  O1_3 
REMARK    2  A    between atoms: O1_3  and  C2_4 
REMARK    3  A    between atoms: C2_4  and  C3_5 
REMARK    4  A    between atoms: C3_5  and  C4_6 
REMARK    5  A    between atoms: C4_6  and  C5_7 
REMARK    6  A    between atoms: C6_8  and  C7_9 
REMARK    7  A    between atoms: C10_14  and  N4_15 
REMARK    8  A    between atoms: N4_15  and  C11_16 
REMARK    9  A    between atoms: C11_16  and  C12_17 
ROOT
HETATM    1  C7  UNL     1      27.157   1.577  53.010  1.00  0.00     0.027 A 
HETATM    2  C8  UNL     1      28.275   2.240  53.450  1.00  0.00     0.133 A 
HETATM    3  N2  UNL     1      29.136   1.718  54.368  1.00  0.00    -0.253 NA
HETATM    4  C9  UNL     1      28.914   0.496  54.892  1.00  0.00     0.234 A 
HETATM    5  N3  UNL     1      27.825  -0.157  54.467  1.00  0.00    -0.224 NA
HETATM    6  C10 UNL     1      26.967   0.339  53.567  1.00  0.00     0.136 A 
ENDROOT
BRANCH   6   7
HETATM    7  N4  UNL     1      25.832  -0.419  53.167  1.00  0.00    -0.370 N 
HETATM    8  H15 UNL     1      25.496  -0.793  52.287  1.00  0.00     0.161 HD
BRANCH   7   9
HETATM    9  C11 UNL     1      24.897  -0.775  54.209  1.00  0.00     0.163 C 
BRANCH   9  10
HETATM   10  C12 UNL     1      23.476  -0.626  53.846  1.00  0.00    -0.002 A 
HETATM   11  C13 UNL     1      23.030  -0.052  52.681  1.00  0.00     0.012 A 
HETATM   12  C14 UNL     1      21.666   0.018  52.477  1.00  0.00     0.001 A 
HETATM   13  C15 UNL     1      20.757  -0.466  53.402  1.00  0.00     0.003 A 
HETATM   14  C16 UNL     1      21.213  -1.049  54.586  1.00  0.00     0.043 A 
HETATM   15  C17 UNL     1      22.578  -1.112  54.776  1.00  0.00     0.124 A 
HETATM   16  F1  UNL     1      22.934  -1.695  55.954  1.00  0.00    -0.205 F 
ENDBRANCH   9  10
ENDBRANCH   7   9
ENDBRANCH   6   7
BRANCH   1  17
HETATM   17  C6  UNL     1      26.239   2.111  52.041  1.00  0.00     0.013 C 
HETATM   18  C5  UNL     1      25.110   2.777  52.140  1.00  0.00    -0.026 C 
BRANCH  18  19
HETATM   19  C4  UNL     1      24.103   3.379  53.023  1.00  0.00     0.029 C 
BRANCH  19  20
HETATM   20  C3  UNL     1      22.976   4.054  52.265  1.00  0.00     0.032 C 
BRANCH  20  21
HETATM   21  C2  UNL     1      23.452   4.917  51.134  1.00  0.00     0.194 C 
BRANCH  21  22
HETATM   22  O1  UNL     1      23.342   6.259  51.418  1.00  0.00    -0.306 OA
BRANCH  22  23
HETATM   23  N1  UNL     1      24.493   6.877  51.727  1.00  0.00    -0.210 NA
HETATM   24  C1  UNL     1      25.288   7.191  50.553  1.00  0.00     0.140 C 
HETATM   25  H4  UNL     1      25.088   6.315  52.375  1.00  0.00     0.153 HD
ENDBRANCH  22  23
ENDBRANCH  21  22
ENDBRANCH  20  21
ENDBRANCH  19  20
ENDBRANCH  18  19
ENDBRANCH   1  17
TORSDOF 9
ENDMDL
MODEL 3
REMARK VINA RESULT:      -7.4      3.936      7.994
REMARK  9 active torsions:
REMARK  status: ('A' for Active; 'I' for Inactive)
REMARK    1  A    between atoms: N1_2  and  O1_3 
REMARK    2  A    between atoms: O1_3  and  C2_4 
REMARK    3  A    between atoms: C2_4  and  C3_5 
REMARK    4  A    between atoms: C3_5  and  C4_6 
REMARK    5  A    between atoms: C4_6  and  C5_7 
REMARK    6  A    between atoms: C6_8  and  C7_9 
REMARK    7  A    between atoms: C10_14  and  N4_15 
REMARK    8  A    between atoms: N4_15  and  C11_16 
REMARK    9  A    between atoms: C11_16  and  C12_17 
ROOT
HETATM    1  C7  UNL     1      23.631   1.542  51.727  1.00  0.00     0.027 A 
HETATM    2  C8  UNL     1      22.604   1.275  50.857  1.00  0.00     0.133 A 
HETATM    3  N2  UNL     1      22.445   1.927  49.671  1.00  0.00    -0.253 NA
HETATM    4  C9  UNL     1      23.315   2.888  49.300  1.00  0.00     0.234 A 
HETATM    5  N3  UNL     1      24.320   3.154  50.144  1.00  0.00    -0.224 NA
HETATM    6  C10 UNL     1      24.493   2.524  51.313  1.00  0.00     0.136 A 
ENDROOT
BRANCH   6   7
HETATM    7  N4  UNL     1      25.588   2.866  52.155  1.00  0.00    -0.370 N 
HETATM    8  H15 UNL     1      25.686   3.353  53.039  1.00  0.00     0.161 HD
BRANCH   7   9
HETATM    9  C11 UNL     1      26.897   2.450  51.708  1.00  0.00     0.163 C 
BRANCH   9  10
HETATM   10  C12 UNL     1      27.657   1.642  52.676  1.00  0.00    -0.002 A 
HETATM   11  C13 UNL     1      28.500   2.163  53.628  1.00  0.00     0.012 A 
HETATM   12  C14 UNL     1      29.148   1.280  54.469  1.00  0.00     0.001 A 
HETATM   13  C15 UNL     1      28.971  -0.090  54.377  1.00  0.00     0.003 A 
HETATM   14  C16 UNL     1      28.115  -0.617  53.409  1.00  0.00     0.043 A 
HETATM   15  C17 UNL     1      27.475   0.277  52.576  1.00  0.00     0.124 A 
HETATM   16  F1  UNL     1      26.660  -0.322  51.663  1.00  0.00    -0.205 F 
ENDBRANCH   9  10
ENDBRANCH   7   9
ENDBRANCH   6   7
BRANCH   1  17
HETATM   17  C6  UNL     1      23.817   0.862  52.980  1.00  0.00     0.013 C 
HETATM   18  C5  UNL     1      23.158  -0.098  53.591  1.00  0.00    -0.026 C 
BRANCH  18  19
HETATM   19  C4  UNL     1      22.026  -1.032  53.562  1.00  0.00     0.029 C 
BRANCH  19  20
HETATM   20  C3  UNL     1      20.730  -0.408  54.046  1.00  0.00     0.032 C 
BRANCH  20  21
HETATM   21  C2  UNL     1      19.660  -0.366  52.995  1.00  0.00     0.194 C 
BRANCH  21  22
HETATM   22  O1  UNL     1      18.455  -0.842  53.456  1.00  0.00    -0.306 OA
BRANCH  22  23
HETATM   23  N1  UNL     1      18.499  -2.045  54.048  1.00  0.00    -0.210 NA
HETATM   24  C1  UNL     1      17.553  -2.983  53.472  1.00  0.00     0.140 C 
HETATM   25  H4  UNL     1      18.314  -1.993  55.074  1.00  0.00     0.153 HD
ENDBRANCH  22  23
ENDBRANCH  21  22
ENDBRANCH  20  21
ENDBRANCH  19  20
ENDBRANCH  18  19
ENDBRANCH   1  17
TORSDOF 9
ENDMDL
MODEL 4
REMARK VINA RESULT:      -7.3      3.064      4.988
REMARK  9 active torsions:
REMARK  status: ('A' for Active; 'I' for Inactive)
REMARK    1  A    between atoms: N1_2  and  O1_3 
REMARK    2  A    between atoms: O1_3  and  C2_4 
REMARK    3  A    between atoms: C2_4  and  C3_5 
REMARK    4  A    between atoms: C3_5  and  C4_6 
REMARK    5  A    between atoms: C4_6  and  C5_7 
REMARK    6  A    between atoms: C6_8  and  C7_9 
REMARK    7  A    between atoms: C10_14  and  N4_15 
REMARK    8  A    between atoms: N4_15  and  C11_16 
REMARK    9  A    between atoms: C11_16  and  C12_17 
ROOT
HETATM    1  C7  UNL     1      25.647   3.604  50.299  1.00  0.00     0.027 A 
HETATM    2  C8  UNL     1      24.463   4.248  50.045  1.00  0.00     0.133 A 
HETATM    3  N2  UNL     1      23.398   4.207  50.894  1.00  0.00    -0.253 NA
HETATM    4  C9  UNL     1      23.472   3.512  52.047  1.00  0.00     0.234 A 
HETATM    5  N3  UNL     1      24.625   2.881  52.301  1.00  0.00    -0.224 NA
HETATM    6  C10 UNL     1      25.682   2.909  51.480  1.00  0.00     0.136 A 
ENDROOT
BRANCH   6   7
HETATM    7  N4  UNL     1      26.873   2.212  51.823  1.00  0.00    -0.370 N 
HETATM    8  H15 UNL     1      27.770   2.064  51.374  1.00  0.00     0.161 HD
BRANCH   7   9
HETATM    9  C11 UNL     1      26.877   1.534  53.099  1.00  0.00     0.163 C 
BRANCH   9  10
HETATM   10  C12 UNL     1      27.815   0.402  53.198  1.00  0.00    -0.002 A 
HETATM   11  C13 UNL     1      29.134   0.519  53.562  1.00  0.00     0.012 A 
HETATM   12  C14 UNL     1      29.894  -0.634  53.612  1.00  0.00     0.001 A 
HETATM   13  C15 UNL     1      29.367  -1.878  53.309  1.00  0.00     0.003 A 
HETATM   14  C16 UNL     1      28.026  -1.993  52.938  1.00  0.00     0.043 A 
HETATM   15  C17 UNL     1      27.280  -0.834  52.893  1.00  0.00     0.124 A 
HETATM   16  F1  UNL     1      25.985  -1.039  52.523  1.00  0.00    -0.205 F 
ENDBRANCH   9  10
ENDBRANCH   7   9
ENDBRANCH   6   7
BRANCH   1  17
HETATM   17  C6  UNL     1      26.783   3.638  49.417  1.00  0.00     0.013 C 
HETATM   18  C5  UNL     1      27.387   4.605  48.761  1.00  0.00    -0.026 C 
BRANCH  18  19
HETATM   19  C4  UNL     1      27.438   6.037  48.442  1.00  0.00     0.029 C 
BRANCH  19  20
HETATM   20  C3  UNL     1      28.837   6.520  48.105  1.00  0.00     0.032 C 
BRANCH  20  21
HETATM   21  C2  UNL     1      29.858   5.421  48.084  1.00  0.00     0.194 C 
BRANCH  21  22
HETATM   22  O1  UNL     1      30.714   5.483  49.159  1.00  0.00    -0.306 OA
BRANCH  22  23
HETATM   23  N1  UNL     1      31.927   4.944  48.961  1.00  0.00    -0.210 NA
HETATM   24  C1  UNL     1      32.057   4.333  47.650  1.00  0.00     0.140 C 
HETATM   25  H4  UNL     1      32.165   4.221  49.675  1.00  0.00     0.153 HD
ENDBRANCH  22  23
ENDBRANCH  21  22
ENDBRANCH  20  21
ENDBRANCH  19  20
ENDBRANCH  18  19
ENDBRANCH   1  17
TORSDOF 9
ENDMDL
MODEL 5
REMARK VINA RESULT:      -7.3      2.920      4.158
REMARK  9 active torsions:
REMARK  status: ('A' for Active; 'I' for Inactive)
REMARK    1  A    between atoms: N1_2  and  O1_3 
REMARK    2  A    between atoms: O1_3  and  C2_4 
REMARK    3  A    between atoms: C2_4  and  C3_5 
REMARK    4  A    between atoms: C3_5  and  C4_6 
REMARK    5  A    between atoms: C4_6  and  C5_7 
REMARK    6  A    between atoms: C6_8  and  C7_9 
REMARK    7  A    between atoms: C10_14  and  N4_15 
REMARK    8  A    between atoms: N4_15  and  C11_16 
REMARK    9  A    between atoms: C11_16  and  C12_17 
ROOT
HETATM    1  C7  UNL     1      27.272   1.587  52.901  1.00  0.00     0.027 A 
HETATM    2  C8  UNL     1      28.385   2.220  53.395  1.00  0.00     0.133 A 
HETATM    3  N2  UNL     1      29.161   1.694  54.384  1.00  0.00    -0.253 NA
HETATM    4  C9  UNL     1      28.855   0.499  54.928  1.00  0.00     0.234 A 
HETATM    5  N3  UNL     1      27.770  -0.124  54.450  1.00  0.00    -0.224 NA
HETATM    6  C10 UNL     1      26.995   0.376  53.480  1.00  0.00     0.136 A 
ENDROOT
BRANCH   6   7
HETATM    7  N4  UNL     1      25.858  -0.349  53.027  1.00  0.00    -0.370 N 
HETATM    8  H15 UNL     1      25.495  -0.616  52.118  1.00  0.00     0.161 HD
BRANCH   7   9
HETATM    9  C11 UNL     1      24.969  -0.854  54.047  1.00  0.00     0.163 C 
BRANCH   9  10
HETATM   10  C12 UNL     1      23.536  -0.622  53.793  1.00  0.00    -0.002 A 
HETATM   11  C13 UNL     1      23.039   0.001  52.674  1.00  0.00     0.012 A 
HETATM   12  C14 UNL     1      21.669   0.149  52.573  1.00  0.00     0.001 A 
HETATM   13  C15 UNL     1      20.805  -0.307  53.554  1.00  0.00     0.003 A 
HETATM   14  C16 UNL     1      21.313  -0.939  54.690  1.00  0.00     0.043 A 
HETATM   15  C17 UNL     1      22.682  -1.080  54.777  1.00  0.00     0.124 A 
HETATM   16  F1  UNL     1      23.091  -1.706  55.915  1.00  0.00    -0.205 F 
ENDBRANCH   9  10
ENDBRANCH   7   9
ENDBRANCH   6   7
BRANCH   1  17
HETATM   17  C6  UNL     1      26.443   2.125  51.856  1.00  0.00     0.013 C 
HETATM   18  C5  UNL     1      25.301   2.777  51.857  1.00  0.00    -0.026 C 
BRANCH  18  19
HETATM   19  C4  UNL     1      24.208   3.354  52.650  1.00  0.00     0.029 C 
BRANCH  19  20
HETATM   20  C3  UNL     1      23.302   4.262  51.839  1.00  0.00     0.032 C 
BRANCH  20  21
HETATM   21  C2  UNL     1      21.980   3.638  51.501  1.00  0.00     0.194 C 
BRANCH  21  22
HETATM   22  O1  UNL     1      20.960   4.114  52.292  1.00  0.00    -0.306 OA
BRANCH  22  23
HETATM   23  N1  UNL     1      19.930   3.273  52.470  1.00  0.00    -0.210 NA
HETATM   24  C1  UNL     1      18.857   3.500  51.519  1.00  0.00     0.140 C 
HETATM   25  H4  UNL     1      19.524   3.334  53.431  1.00  0.00     0.153 HD
ENDBRANCH  22  23
ENDBRANCH  21  22
ENDBRANCH  20  21
ENDBRANCH  19  20
ENDBRANCH  18  19
ENDBRANCH   1  17
TORSDOF 9
ENDMDL
MODEL 6
REMARK VINA RESULT:      -7.3      3.241      5.191
REMARK  9 active torsions:
REMARK  status: ('A' for Active; 'I' for Inactive)
REMARK    1  A    between atoms: N1_2  and  O1_3 
REMARK    2  A    between atoms: O1_3  and  C2_4 
REMARK    3  A    between atoms: C2_4  and  C3_5 
REMARK    4  A    between atoms: C3_5  and  C4_6 
REMARK    5  A    between atoms: C4_6  and  C5_7 
REMARK    6  A    between atoms: C6_8  and  C7_9 
REMARK    7  A    between atoms: C10_14  and  N4_15 
REMARK    8  A    between atoms: N4_15  and  C11_16 
REMARK    9  A    between atoms: C11_16  and  C12_17 
ROOT
HETATM    1  C7  UNL     1      25.324   3.390  50.349  1.00  0.00     0.027 A 
HETATM    2  C8  UNL     1      24.054   3.672  49.914  1.00  0.00     0.133 A 
HETATM    3  N2  UNL     1      22.954   3.572  50.712  1.00  0.00    -0.253 NA
HETATM    4  C9  UNL     1      23.078   3.180  51.996  1.00  0.00     0.234 A 
HETATM    5  N3  UNL     1      24.315   2.903  52.428  1.00  0.00    -0.224 NA
HETATM    6  C10 UNL     1      25.407   2.995  51.659  1.00  0.00     0.136 A 
ENDROOT
BRANCH   6   7
HETATM    7  N4  UNL     1      26.687   2.683  52.194  1.00  0.00    -0.370 N 
HETATM    8  H15 UNL     1      27.644   2.886  51.926  1.00  0.00     0.161 HD
BRANCH   7   9
HETATM    9  C11 UNL     1      26.704   1.895  53.405  1.00  0.00     0.163 C 
BRANCH   9  10
HETATM   10  C12 UNL     1      27.604   0.728  53.375  1.00  0.00    -0.002 A 
HETATM   11  C13 UNL     1      27.232  -0.526  52.958  1.00  0.00     0.012 A 
HETATM   12  C14 UNL     1      28.186  -1.525  52.986  1.00  0.00     0.001 A 
HETATM   13  C15 UNL     1      29.482  -1.294  53.415  1.00  0.00     0.003 A 
HETATM   14  C16 UNL     1      29.857  -0.018  53.838  1.00  0.00     0.043 A 
HETATM   15  C17 UNL     1      28.894   0.969  53.805  1.00  0.00     0.124 A 
HETATM   16  F1  UNL     1      29.346   2.180  54.234  1.00  0.00    -0.205 F 
ENDBRANCH   9  10
ENDBRANCH   7   9
ENDBRANCH   6   7
BRANCH   1  17
HETATM   17  C6  UNL     1      26.496   3.493  49.522  1.00  0.00     0.013 C 
HETATM   18  C5  UNL     1      27.102   4.504  48.939  1.00  0.00    -0.026 C 
BRANCH  18  19
HETATM   19  C4  UNL     1      27.130   5.950  48.688  1.00  0.00     0.029 C 
BRANCH  19  20
HETATM   20  C3  UNL     1      28.264   6.372  47.773  1.00  0.00     0.032 C 
BRANCH  20  21
HETATM   21  C2  UNL     1      29.539   6.674  48.504  1.00  0.00     0.194 C 
BRANCH  21  22
HETATM   22  O1  UNL     1      30.251   5.536  48.806  1.00  0.00    -0.306 OA
BRANCH  22  23
HETATM   23  N1  UNL     1      31.102   5.647  49.837  1.00  0.00    -0.210 NA
HETATM   24  C1  UNL     1      31.972   6.803  49.718  1.00  0.00     0.140 C 
HETATM   25  H4  UNL     1      31.706   4.802  49.950  1.00  0.00     0.153 HD
ENDBRANCH  22  23
ENDBRANCH  21  22
ENDBRANCH  20  21
ENDBRANCH  19  20
ENDBRANCH  18  19
ENDBRANCH   1  17
TORSDOF 9
ENDMDL
MODEL 7
REMARK VINA RESULT:      -7.1      3.896      7.918
REMARK  9 active torsions:
REMARK  status: ('A' for Active; 'I' for Inactive)
REMARK    1  A    between atoms: N1_2  and  O1_3 
REMARK    2  A    between atoms: O1_3  and  C2_4 
REMARK    3  A    between atoms: C2_4  and  C3_5 
REMARK    4  A    between atoms: C3_5  and  C4_6 
REMARK    5  A    between atoms: C4_6  and  C5_7 
REMARK    6  A    between atoms: C6_8  and  C7_9 
REMARK    7  A    between atoms: C10_14  and  N4_15 
REMARK    8  A    between atoms: N4_15  and  C11_16 
REMARK    9  A    between atoms: C11_16  and  C12_17 
ROOT
HETATM    1  C7  UNL     1      25.198   2.462  52.713  1.00  0.00     0.027 A 
HETATM    2  C8  UNL     1      25.719   2.191  53.952  1.00  0.00     0.133 A 
HETATM    3  N2  UNL     1      27.053   2.027  54.178  1.00  0.00    -0.253 NA
HETATM    4  C9  UNL     1      27.933   2.126  53.162  1.00  0.00     0.234 A 
HETATM    5  N3  UNL     1      27.431   2.390  51.950  1.00  0.00    -0.224 NA
HETATM    6  C10 UNL     1      26.125   2.555  51.707  1.00  0.00     0.136 A 
ENDROOT
BRANCH   6   7
HETATM    7  N4  UNL     1      25.671   2.834  50.389  1.00  0.00    -0.370 N 
HETATM    8  H15 UNL     1      24.783   2.756  49.906  1.00  0.00     0.161 HD
BRANCH   7   9
HETATM    9  C11 UNL     1      26.654   3.356  49.467  1.00  0.00     0.163 C 
BRANCH   9  10
HETATM   10  C12 UNL     1      26.517   4.790  49.158  1.00  0.00    -0.002 A 
HETATM   11  C13 UNL     1      25.418   5.550  49.479  1.00  0.00     0.012 A 
HETATM   12  C14 UNL     1      25.432   6.885  49.125  1.00  0.00     0.001 A 
HETATM   13  C15 UNL     1      26.505   7.462  48.467  1.00  0.00     0.003 A 
HETATM   14  C16 UNL     1      27.619   6.687  48.142  1.00  0.00     0.043 A 
HETATM   15  C17 UNL     1      27.592   5.357  48.502  1.00  0.00     0.124 A 
HETATM   16  F1  UNL     1      28.718   4.676  48.147  1.00  0.00    -0.205 F 
ENDBRANCH   9  10
ENDBRANCH   7   9
ENDBRANCH   6   7
BRANCH   1  17
HETATM   17  C6  UNL     1      23.794   2.642  52.456  1.00  0.00     0.013 C 
HETATM   18  C5  UNL     1      22.791   1.806  52.304  1.00  0.00    -0.026 C 
BRANCH  18  19
HETATM   19  C4  UNL     1      22.341   0.409  52.272  1.00  0.00     0.029 C 
BRANCH  19  20
HETATM   20  C3  UNL     1      21.088   0.170  53.093  1.00  0.00     0.032 C 
BRANCH  20  21
HETATM   21  C2  UNL     1      21.363  -0.046  54.552  1.00  0.00     0.194 C 
BRANCH  21  22
HETATM   22  O1  UNL     1      21.102  -1.337  54.948  1.00  0.00    -0.306 OA
BRANCH  22  23
HETATM   23  N1  UNL     1      22.182  -2.103  55.164  1.00  0.00    -0.210 NA
HETATM   24  C1  UNL     1      23.345  -1.326  55.556  1.00  0.00     0.140 C 
HETATM   25  H4  UNL     1      22.444  -2.670  54.328  1.00  0.00     0.153 HD
ENDBRANCH  22  23
ENDBRANCH  21  22
ENDBRANCH  20  21
ENDBRANCH  19  20
ENDBRANCH  18  19
ENDBRANCH   1  17
TORSDOF 9
ENDMDL
MODEL 8
REMARK VINA RESULT:      -7.0      3.385      5.056
REMARK  9 active torsions:
REMARK  status: ('A' for Active; 'I' for Inactive)
REMARK    1  A    between atoms: N1_2  and  O1_3 
REMARK    2  A    between atoms: O1_3  and  C2_4 
REMARK    3  A    between atoms: C2_4  and  C3_5 
REMARK    4  A    between atoms: C3_5  and  C4_6 
REMARK    5  A    between atoms: C4_6  and  C5_7 
REMARK    6  A    between atoms: C6_8  and  C7_9 
REMARK    7  A    between atoms: C10_14  and  N4_15 
REMARK    8  A    between atoms: N4_15  and  C11_16 
REMARK    9  A    between atoms: C11_16  and  C12_17 
ROOT
HETATM    1  C7  UNL     1      22.945   3.631  51.258  1.00  0.00     0.027 A 
HETATM    2  C8  UNL     1      23.542   3.864  50.044  1.00  0.00     0.133 A 
HETATM    3  N2  UNL     1      22.853   3.883  48.869  1.00  0.00    -0.253 NA
HETATM    4  C9  UNL     1      21.522   3.668  48.855  1.00  0.00     0.234 A 
HETATM    5  N3  UNL     1      20.933   3.441  50.036  1.00  0.00    -0.224 NA
HETATM    6  C10 UNL     1      21.592   3.417  51.201  1.00  0.00     0.136 A 
ENDROOT
BRANCH   6   7
HETATM    7  N4  UNL     1      20.892   3.168  52.414  1.00  0.00    -0.370 N 
HETATM    8  H15 UNL     1      20.778   3.667  53.289  1.00  0.00     0.161 HD
BRANCH   7   9
HETATM    9  C11 UNL     1      20.147   1.933  52.485  1.00  0.00     0.163 C 
BRANCH   9  10
HETATM   10  C12 UNL     1      20.848   0.821  53.150  1.00  0.00    -0.002 A 
HETATM   11  C13 UNL     1      20.835   0.598  54.506  1.00  0.00     0.012 A 
HETATM   12  C14 UNL     1      21.541  -0.487  54.987  1.00  0.00     0.001 A 
HETATM   13  C15 UNL     1      22.246  -1.337  54.152  1.00  0.00     0.003 A 
HETATM   14  C16 UNL     1      22.258  -1.108  52.776  1.00  0.00     0.043 A 
HETATM   15  C17 UNL     1      21.549  -0.021  52.309  1.00  0.00     0.124 A 
HETATM   16  F1  UNL     1      21.614   0.128  50.957  1.00  0.00    -0.205 F 
ENDBRANCH   9  10
ENDBRANCH   7   9
ENDBRANCH   6   7
BRANCH   1  17
HETATM   17  C6  UNL     1      23.655   3.609  52.508  1.00  0.00     0.013 C 
HETATM   18  C5  UNL     1      24.337   2.681  53.142  1.00  0.00    -0.026 C 
BRANCH  18  19
HETATM   19  C4  UNL     1      24.829   1.298  53.149  1.00  0.00     0.029 C 
BRANCH  19  20
HETATM   20  C3  UNL     1      25.853   1.026  52.063  1.00  0.00     0.032 C 
BRANCH  20  21
HETATM   21  C2  UNL     1      26.807   2.163  51.845  1.00  0.00     0.194 C 
BRANCH  21  22
HETATM   22  O1  UNL     1      26.793   2.616  50.546  1.00  0.00    -0.306 OA
BRANCH  22  23
HETATM   23  N1  UNL     1      27.113   3.909  50.383  1.00  0.00    -0.210 NA
HETATM   24  C1  UNL     1      27.108   4.311  48.988  1.00  0.00     0.140 C 
HETATM   25  H4  UNL     1      28.051   4.142  50.780  1.00  0.00     0.153 HD
ENDBRANCH  22  23
ENDBRANCH  21  22
ENDBRANCH  20  21
ENDBRANCH  19  20
ENDBRANCH  18  19
ENDBRANCH   1  17
TORSDOF 9
ENDMDL
MODEL 9
REMARK VINA RESULT:      -7.0      3.506      5.785
REMARK  9 active torsions:
REMARK  status: ('A' for Active; 'I' for Inactive)
REMARK    1  A    between atoms: N1_2  and  O1_3 
REMARK    2  A    between atoms: O1_3  and  C2_4 
REMARK    3  A    between atoms: C2_4  and  C3_5 
REMARK    4  A    between atoms: C3_5  and  C4_6 
REMARK    5  A    between atoms: C4_6  and  C5_7 
REMARK    6  A    between atoms: C6_8  and  C7_9 
REMARK    7  A    between atoms: C10_14  and  N4_15 
REMARK    8  A    between atoms: N4_15  and  C11_16 
REMARK    9  A    between atoms: C11_16  and  C12_17 
ROOT
HETATM    1  C7  UNL     1      23.242   3.354  51.430  1.00  0.00     0.027 A 
HETATM    2  C8  UNL     1      23.998   3.559  50.304  1.00  0.00     0.133 A 
HETATM    3  N2  UNL     1      23.456   3.798  49.077  1.00  0.00    -0.253 NA
HETATM    4  C9  UNL     1      22.118   3.841  48.921  1.00  0.00     0.234 A 
HETATM    5  N3  UNL     1      21.373   3.641  50.015  1.00  0.00    -0.224 NA
HETATM    6  C10 UNL     1      21.887   3.405  51.229  1.00  0.00     0.136 A 
ENDROOT
BRANCH   6   7
HETATM    7  N4  UNL     1      21.027   3.203  52.343  1.00  0.00    -0.370 N 
HETATM    8  H15 UNL     1      20.797   3.735  53.176  1.00  0.00     0.161 HD
BRANCH   7   9
HETATM    9  C11 UNL     1      20.271   1.972  52.358  1.00  0.00     0.163 C 
BRANCH   9  10
HETATM   10  C12 UNL     1      20.907   0.861  53.087  1.00  0.00    -0.002 A 
HETATM   11  C13 UNL     1      20.756   0.630  54.433  1.00  0.00     0.012 A 
HETATM   12  C14 UNL     1      21.415  -0.453  54.979  1.00  0.00     0.001 A 
HETATM   13  C15 UNL     1      22.209  -1.294  54.218  1.00  0.00     0.003 A 
HETATM   14  C16 UNL     1      22.361  -1.057  52.851  1.00  0.00     0.043 A 
HETATM   15  C17 UNL     1      21.697   0.028  52.319  1.00  0.00     0.124 A 
HETATM   16  F1  UNL     1      21.901   0.185  50.981  1.00  0.00    -0.205 F 
ENDBRANCH   9  10
ENDBRANCH   7   9
ENDBRANCH   6   7
BRANCH   1  17
HETATM   17  C6  UNL     1      23.796   3.104  52.733  1.00  0.00     0.013 C 
HETATM   18  C5  UNL     1      24.855   2.446  53.151  1.00  0.00    -0.026 C 
BRANCH  18  19
HETATM   19  C4  UNL     1      26.033   1.646  52.795  1.00  0.00     0.029 C 
BRANCH  19  20
HETATM   20  C3  UNL     1      25.736   0.161  52.703  1.00  0.00     0.032 C 
BRANCH  20  21
HETATM   21  C2  UNL     1      25.946  -0.571  53.996  1.00  0.00     0.194 C 
BRANCH  21  22
HETATM   22  O1  UNL     1      27.266  -0.579  54.383  1.00  0.00    -0.306 OA
BRANCH  22  23
HETATM   23  N1  UNL     1      28.097  -1.262  53.581  1.00  0.00    -0.210 NA
HETATM   24  C1  UNL     1      29.477  -0.830  53.713  1.00  0.00     0.140 C 
HETATM   25  H4  UNL     1      27.833  -1.187  52.574  1.00  0.00     0.153 HD
ENDBRANCH  22  23
ENDBRANCH  21  22
ENDBRANCH  20  21
ENDBRANCH  19  20
ENDBRANCH  18  19
ENDBRANCH   1  17
TORSDOF 9
ENDMDL
