MODEL 1
REMARK VINA RESULT:      -6.9      0.000      0.000
REMARK  7 active torsions:
REMARK  status: ('A' for Active; 'I' for Inactive)
REMARK       I    between atoms: C1_2  and  N1_3 
REMARK    1  A    between atoms: C1_2  and  C7_11 
REMARK    2  A    between atoms: N1_3  and  C2_4 
REMARK    3  A    between atoms: C10_14  and  N2_15 
REMARK    4  A    between atoms: N2_15  and  C11_16 
REMARK    5  A    between atoms: N2_15  and  C13_19 
REMARK    6  A    between atoms: C11_16  and  C12_17 
REMARK    7  A    between atoms: C13_19  and  C14_20 
ROOT
HETATM    1  C7  UNL     1      25.445   3.219  50.414  1.00  0.00     0.032 A 
HETATM    2  C8  UNL     1      24.189   2.825  50.824  1.00  0.00     0.019 A 
HETATM    3  C9  UNL     1      24.084   1.767  51.697  1.00  0.00     0.030 A 
HETATM    4  C10 UNL     1      25.118   1.033  52.226  1.00  0.00     0.030 A 
HETATM    5  C15 UNL     1      26.340   1.482  51.773  1.00  0.00     0.030 A 
HETATM    6  C16 UNL     1      26.531   2.531  50.902  1.00  0.00     0.019 A 
ENDROOT
BRANCH   1   7
HETATM    7  C1  UNL     1      25.737   4.311  49.494  1.00  0.00     0.256 C 
HETATM    8  O1  UNL     1      24.865   4.906  48.805  1.00  0.00    -0.267 OA
HETATM    9  N1  UNL     1      27.080   4.742  49.354  1.00  0.00    -0.322 N 
HETATM   10  H1  UNL     1      27.918   4.366  49.840  1.00  0.00     0.169 HD
BRANCH   9  11
HETATM   11  C2  UNL     1      27.775   5.727  48.603  1.00  0.00     0.048 A 
HETATM   12  C3  UNL     1      29.091   5.476  48.189  1.00  0.00     0.032 A 
HETATM   13  C4  UNL     1      29.915   6.290  47.462  1.00  0.00     0.021 A 
HETATM   14  C5  UNL     1      29.685   7.551  46.947  1.00  0.00     0.012 A 
HETATM   15 BR1  UNL     1      31.006   8.507  45.953  1.00  0.00    -0.051 Br
HETATM   16  C6  UNL     1      28.444   8.151  47.162  1.00  0.00     0.037 A 
HETATM   17  P1  UNL     1      27.213   7.296  48.075  1.00  0.00    -0.002 P 
ENDBRANCH   9  11
ENDBRANCH   1   7
BRANCH   4  18
HETATM   18  N2  UNL     1      24.903  -0.068  53.136  1.00  0.00    -0.379 N 
BRANCH  18  19
HETATM   19  C11 UNL     1      26.086  -0.590  53.769  1.00  0.00     0.138 C 
BRANCH  19  20
HETATM   20  C12 UNL     1      26.575   0.101  54.987  1.00  0.00     0.134 C 
HETATM   21 CL1  UNL     1      28.392   0.108  54.914  1.00  0.00    -0.129 Cl
ENDBRANCH  19  20
ENDBRANCH  18  19
BRANCH  18  22
HETATM   22  C13 UNL     1      23.571  -0.586  53.324  1.00  0.00     0.138 C 
BRANCH  22  23
HETATM   23  C14 UNL     1      23.189  -1.017  54.690  1.00  0.00     0.134 C 
HETATM   24 CL2  UNL     1      21.478  -0.446  54.907  1.00  0.00    -0.129 Cl
ENDBRANCH  22  23
ENDBRANCH  18  22
ENDBRANCH   4  18
TORSDOF 7
ENDMDL
MODEL 2
REMARK VINA RESULT:      -6.9      5.177      8.941
REMARK  7 active torsions:
REMARK  status: ('A' for Active; 'I' for Inactive)
REMARK       I    between atoms: C1_2  and  N1_3 
REMARK    1  A    between atoms: C1_2  and  C7_11 
REMARK    2  A    between atoms: N1_3  and  C2_4 
REMARK    3  A    between atoms: C10_14  and  N2_15 
REMARK    4  A    between atoms: N2_15  and  C11_16 
REMARK    5  A    between atoms: N2_15  and  C13_19 
REMARK    6  A    between atoms: C11_16  and  C12_17 
REMARK    7  A    between atoms: C13_19  and  C14_20 
ROOT
HETATM    1  C7  UNL     1      25.805   4.496  49.296  1.00  0.00     0.032 A 
HETATM    2  C8  UNL     1      25.424   5.802  49.077  1.00  0.00     0.019 A 
HETATM    3  C9  UNL     1      26.364   6.693  48.612  1.00  0.00     0.030 A 
HETATM    4  C10 UNL     1      27.682   6.424  48.333  1.00  0.00     0.030 A 
HETATM    5  C15 UNL     1      27.991   5.103  48.575  1.00  0.00     0.030 A 
HETATM    6  C16 UNL     1      27.111   4.150  49.038  1.00  0.00     0.019 A 
ENDROOT
BRANCH   1   7
HETATM    7  C1  UNL     1      24.944   3.428  49.788  1.00  0.00     0.256 C 
HETATM    8  O1  UNL     1      23.963   2.961  49.149  1.00  0.00    -0.267 OA
HETATM    9  N1  UNL     1      25.211   2.870  51.063  1.00  0.00    -0.322 N 
HETATM   10  H1  UNL     1      25.972   3.134  51.721  1.00  0.00     0.169 HD
BRANCH   9  11
HETATM   11  C2  UNL     1      24.649   1.859  51.887  1.00  0.00     0.048 A 
HETATM   12  C3  UNL     1      23.270   1.862  52.136  1.00  0.00     0.032 A 
HETATM   13  C4  UNL     1      22.549   0.979  52.892  1.00  0.00     0.021 A 
HETATM   14  C5  UNL     1      22.968  -0.131  53.599  1.00  0.00     0.012 A 
HETATM   15 BR1  UNL     1      21.762  -1.225  54.596  1.00  0.00    -0.051 Br
HETATM   16  C6  UNL     1      24.323  -0.464  53.588  1.00  0.00     0.037 A 
HETATM   17  P1  UNL     1      25.454   0.526  52.683  1.00  0.00    -0.002 P 
ENDBRANCH   9  11
ENDBRANCH   1   7
BRANCH   4  18
HETATM   18  N2  UNL     1      28.596   7.433  47.851  1.00  0.00    -0.379 N 
BRANCH  18  19
HETATM   19  C11 UNL     1      29.797   6.939  47.231  1.00  0.00     0.138 C 
BRANCH  19  20
HETATM   20  C12 UNL     1      31.010   6.824  48.078  1.00  0.00     0.134 C 
HETATM   21 CL1  UNL     1      31.595   5.107  47.956  1.00  0.00    -0.129 Cl
ENDBRANCH  19  20
ENDBRANCH  18  19
BRANCH  18  22
HETATM   22  C13 UNL     1      28.282   8.827  48.044  1.00  0.00     0.138 C 
BRANCH  22  23
HETATM   23  C14 UNL     1      28.787   9.481  49.276  1.00  0.00     0.134 C 
HETATM   24 CL2  UNL     1      27.428   9.351  50.474  1.00  0.00    -0.129 Cl
ENDBRANCH  22  23
ENDBRANCH  18  22
ENDBRANCH   4  18
TORSDOF 7
ENDMDL
MODEL 3
REMARK VINA RESULT:      -6.8      5.188      9.138
REMARK  7 active torsions:
REMARK  status: ('A' for Active; 'I' for Inactive)
REMARK       I    between atoms: C1_2  and  N1_3 
REMARK    1  A    between atoms: C1_2  and  C7_11 
REMARK    2  A    between atoms: N1_3  and  C2_4 
REMARK    3  A    between atoms: C10_14  and  N2_15 
REMARK    4  A    between atoms: N2_15  and  C11_16 
REMARK    5  A    between atoms: N2_15  and  C13_19 
REMARK    6  A    between atoms: C11_16  and  C12_17 
REMARK    7  A    between atoms: C13_19  and  C14_20 
ROOT
HETATM    1  C7  UNL     1      25.724   4.481  49.259  1.00  0.00     0.032 A 
HETATM    2  C8  UNL     1      25.304   5.754  48.940  1.00  0.00     0.019 A 
HETATM    3  C9  UNL     1      26.231   6.653  48.465  1.00  0.00     0.030 A 
HETATM    4  C10 UNL     1      27.570   6.423  48.267  1.00  0.00     0.030 A 
HETATM    5  C15 UNL     1      27.917   5.133  48.606  1.00  0.00     0.030 A 
HETATM    6  C16 UNL     1      27.054   4.175  49.086  1.00  0.00     0.019 A 
ENDROOT
BRANCH   1   7
HETATM    7  C1  UNL     1      24.881   3.410  49.776  1.00  0.00     0.256 C 
HETATM    8  O1  UNL     1      23.871   2.953  49.175  1.00  0.00    -0.267 OA
HETATM    9  N1  UNL     1      25.202   2.836  51.032  1.00  0.00    -0.322 N 
HETATM   10  H1  UNL     1      25.992   3.090  51.658  1.00  0.00     0.169 HD
BRANCH   9  11
HETATM   11  C2  UNL     1      24.673   1.817  51.868  1.00  0.00     0.048 A 
HETATM   12  C3  UNL     1      23.299   1.798  52.145  1.00  0.00     0.032 A 
HETATM   13  C4  UNL     1      22.607   0.905  52.915  1.00  0.00     0.021 A 
HETATM   14  C5  UNL     1      23.058  -0.197  53.615  1.00  0.00     0.012 A 
HETATM   15 BR1  UNL     1      21.890  -1.309  54.637  1.00  0.00    -0.051 Br
HETATM   16  C6  UNL     1      24.418  -0.509  53.577  1.00  0.00     0.037 A 
HETATM   17  P1  UNL     1      25.514   0.498  52.648  1.00  0.00    -0.002 P 
ENDBRANCH   9  11
ENDBRANCH   1   7
BRANCH   4  18
HETATM   18  N2  UNL     1      28.467   7.439  47.766  1.00  0.00    -0.379 N 
BRANCH  18  19
HETATM   19  C11 UNL     1      27.887   8.744  47.584  1.00  0.00     0.138 C 
BRANCH  19  20
HETATM   20  C12 UNL     1      28.339   9.829  48.490  1.00  0.00     0.134 C 
HETATM   21 CL1  UNL     1      27.765   9.410  50.164  1.00  0.00    -0.129 Cl
ENDBRANCH  19  20
ENDBRANCH  18  19
BRANCH  18  22
HETATM   22  C13 UNL     1      29.832   7.092  47.455  1.00  0.00     0.138 C 
BRANCH  22  23
HETATM   23  C14 UNL     1      30.833   7.199  48.543  1.00  0.00     0.134 C 
HETATM   24 CL2  UNL     1      31.592   5.552  48.654  1.00  0.00    -0.129 Cl
ENDBRANCH  22  23
ENDBRANCH  18  22
ENDBRANCH   4  18
TORSDOF 7
ENDMDL
MODEL 4
REMARK VINA RESULT:      -6.8      6.468      8.570
REMARK  7 active torsions:
REMARK  status: ('A' for Active; 'I' for Inactive)
REMARK       I    between atoms: C1_2  and  N1_3 
REMARK    1  A    between atoms: C1_2  and  C7_11 
REMARK    2  A    between atoms: N1_3  and  C2_4 
REMARK    3  A    between atoms: C10_14  and  N2_15 
REMARK    4  A    between atoms: N2_15  and  C11_16 
REMARK    5  A    between atoms: N2_15  and  C13_19 
REMARK    6  A    between atoms: C11_16  and  C12_17 
REMARK    7  A    between atoms: C13_19  and  C14_20 
ROOT
HETATM    1  C7  UNL     1      21.235  -0.496  53.296  1.00  0.00     0.032 A 
HETATM    2  C8  UNL     1      20.104  -1.030  53.875  1.00  0.00     0.019 A 
HETATM    3  C9  UNL     1      18.900  -0.883  53.226  1.00  0.00     0.030 A 
HETATM    4  C10 UNL     1      18.686  -0.243  52.029  1.00  0.00     0.030 A 
HETATM    5  C15 UNL     1      19.857   0.264  51.510  1.00  0.00     0.030 A 
HETATM    6  C16 UNL     1      21.099   0.160  52.094  1.00  0.00     0.019 A 
ENDROOT
BRANCH   1   7
HETATM    7  C1  UNL     1      22.584  -0.556  53.845  1.00  0.00     0.256 C 
HETATM    8  O1  UNL     1      22.867  -1.057  54.967  1.00  0.00    -0.267 OA
HETATM    9  N1  UNL     1      23.654  -0.022  53.084  1.00  0.00    -0.322 N 
HETATM   10  H1  UNL     1      23.600   0.426  52.148  1.00  0.00     0.169 HD
BRANCH   9  11
HETATM   11  C2  UNL     1      25.059   0.120  53.236  1.00  0.00     0.048 A 
HETATM   12  C3  UNL     1      25.890  -0.987  53.017  1.00  0.00     0.032 A 
HETATM   13  C4  UNL     1      27.253  -1.047  53.108  1.00  0.00     0.021 A 
HETATM   14  C5  UNL     1      28.165  -0.060  53.430  1.00  0.00     0.012 A 
HETATM   15 BR1  UNL     1      30.045  -0.386  53.496  1.00  0.00    -0.051 Br
HETATM   16  C6  UNL     1      27.695   1.221  53.721  1.00  0.00     0.037 A 
HETATM   17  P1  UNL     1      25.971   1.546  53.671  1.00  0.00    -0.002 P 
ENDBRANCH   9  11
ENDBRANCH   1   7
BRANCH   4  18
HETATM   18  N2  UNL     1      17.376  -0.137  51.429  1.00  0.00    -0.379 N 
BRANCH  18  19
HETATM   19  C11 UNL     1      16.267  -0.405  52.308  1.00  0.00     0.138 C 
BRANCH  19  20
HETATM   20  C12 UNL     1      15.339  -1.499  51.927  1.00  0.00     0.134 C 
HETATM   21 CL1  UNL     1      15.944  -3.021  52.718  1.00  0.00    -0.129 Cl
ENDBRANCH  19  20
ENDBRANCH  18  19
BRANCH  18  22
HETATM   22  C13 UNL     1      17.259   0.184  50.028  1.00  0.00     0.138 C 
BRANCH  22  23
HETATM   23  C14 UNL     1      16.718   1.517  49.673  1.00  0.00     0.134 C 
HETATM   24 CL2  UNL     1      18.116   2.419  48.943  1.00  0.00    -0.129 Cl
ENDBRANCH  22  23
ENDBRANCH  18  22
ENDBRANCH   4  18
TORSDOF 7
ENDMDL
MODEL 5
REMARK VINA RESULT:      -6.7      3.731      4.883
REMARK  7 active torsions:
REMARK  status: ('A' for Active; 'I' for Inactive)
REMARK       I    between atoms: C1_2  and  N1_3 
REMARK    1  A    between atoms: C1_2  and  C7_11 
REMARK    2  A    between atoms: N1_3  and  C2_4 
REMARK    3  A    between atoms: C10_14  and  N2_15 
REMARK    4  A    between atoms: N2_15  and  C11_16 
REMARK    5  A    between atoms: N2_15  and  C13_19 
REMARK    6  A    between atoms: C11_16  and  C12_17 
REMARK    7  A    between atoms: C13_19  and  C14_20 
ROOT
HETATM    1  C7  UNL     1      27.002   5.411  48.761  1.00  0.00     0.032 A 
HETATM    2  C8  UNL     1      26.952   4.120  49.242  1.00  0.00     0.019 A 
HETATM    3  C9  UNL     1      25.743   3.622  49.666  1.00  0.00     0.030 A 
HETATM    4  C10 UNL     1      24.538   4.282  49.667  1.00  0.00     0.030 A 
HETATM    5  C15 UNL     1      24.663   5.563  49.174  1.00  0.00     0.030 A 
HETATM    6  C16 UNL     1      25.833   6.136  48.730  1.00  0.00     0.019 A 
ENDROOT
BRANCH   1   7
HETATM    7  C1  UNL     1      28.194   6.095  48.277  1.00  0.00     0.256 C 
HETATM    8  O1  UNL     1      28.175   7.057  47.462  1.00  0.00    -0.267 OA
HETATM    9  N1  UNL     1      29.462   5.665  48.742  1.00  0.00    -0.322 N 
HETATM   10  H1  UNL     1      29.661   4.893  49.409  1.00  0.00     0.169 HD
BRANCH   9  11
HETATM   11  C2  UNL     1      30.818   6.035  48.537  1.00  0.00     0.048 A 
HETATM   12  C3  UNL     1      31.258   7.298  48.954  1.00  0.00     0.032 A 
HETATM   13  C4  UNL     1      32.513   7.830  48.849  1.00  0.00     0.021 A 
HETATM   14  C5  UNL     1      33.666   7.284  48.319  1.00  0.00     0.012 A 
HETATM   15 BR1  UNL     1      35.323   8.231  48.280  1.00  0.00    -0.051 Br
HETATM   16  C6  UNL     1      33.617   5.994  47.789  1.00  0.00     0.037 A 
HETATM   17  P1  UNL     1      32.106   5.103  47.809  1.00  0.00    -0.002 P 
ENDBRANCH   9  11
ENDBRANCH   1   7
BRANCH   4  18
HETATM   18  N2  UNL     1      23.318   3.671  50.140  1.00  0.00    -0.379 N 
BRANCH  18  19
HETATM   19  C11 UNL     1      22.932   2.455  49.470  1.00  0.00     0.138 C 
BRANCH  19  20
HETATM   20  C12 UNL     1      22.187   1.444  50.260  1.00  0.00     0.134 C 
HETATM   21 CL1  UNL     1      20.654   1.073  49.355  1.00  0.00    -0.129 Cl
ENDBRANCH  19  20
ENDBRANCH  18  19
BRANCH  18  22
HETATM   22  C13 UNL     1      22.564   4.307  51.192  1.00  0.00     0.138 C 
BRANCH  22  23
HETATM   23  C14 UNL     1      23.286   4.656  52.439  1.00  0.00     0.134 C 
HETATM   24 CL2  UNL     1      24.060   3.106  52.989  1.00  0.00    -0.129 Cl
ENDBRANCH  22  23
ENDBRANCH  18  22
ENDBRANCH   4  18
TORSDOF 7
ENDMDL
MODEL 6
REMARK VINA RESULT:      -6.7      5.299      9.174
REMARK  7 active torsions:
REMARK  status: ('A' for Active; 'I' for Inactive)
REMARK       I    between atoms: C1_2  and  N1_3 
REMARK    1  A    between atoms: C1_2  and  C7_11 
REMARK    2  A    between atoms: N1_3  and  C2_4 
REMARK    3  A    between atoms: C10_14  and  N2_15 
REMARK    4  A    between atoms: N2_15  and  C11_16 
REMARK    5  A    between atoms: N2_15  and  C13_19 
REMARK    6  A    between atoms: C11_16  and  C12_17 
REMARK    7  A    between atoms: C13_19  and  C14_20 
ROOT
HETATM    1  C7  UNL     1      25.914   4.658  49.240  1.00  0.00     0.032 A 
HETATM    2  C8  UNL     1      25.507   5.958  49.030  1.00  0.00     0.019 A 
HETATM    3  C9  UNL     1      26.429   6.869  48.568  1.00  0.00     0.030 A 
HETATM    4  C10 UNL     1      27.750   6.627  48.283  1.00  0.00     0.030 A 
HETATM    5  C15 UNL     1      28.085   5.310  48.515  1.00  0.00     0.030 A 
HETATM    6  C16 UNL     1      27.225   4.338  48.975  1.00  0.00     0.019 A 
ENDROOT
BRANCH   1   7
HETATM    7  C1  UNL     1      25.074   3.571  49.728  1.00  0.00     0.256 C 
HETATM    8  O1  UNL     1      24.094   3.096  49.093  1.00  0.00    -0.267 OA
HETATM    9  N1  UNL     1      25.365   3.001  50.993  1.00  0.00    -0.322 N 
HETATM   10  H1  UNL     1      26.129   3.268  51.645  1.00  0.00     0.169 HD
BRANCH   9  11
HETATM   11  C2  UNL     1      24.827   1.971  51.810  1.00  0.00     0.048 A 
HETATM   12  C3  UNL     1      23.460   1.979  52.118  1.00  0.00     0.032 A 
HETATM   13  C4  UNL     1      22.763   1.082  52.878  1.00  0.00     0.021 A 
HETATM   14  C5  UNL     1      23.200  -0.053  53.534  1.00  0.00     0.012 A 
HETATM   15 BR1  UNL     1      22.025  -1.165  54.549  1.00  0.00    -0.051 Br
HETATM   16  C6  UNL     1      24.549  -0.399  53.455  1.00  0.00     0.037 A 
HETATM   17  P1  UNL     1      25.651   0.608  52.531  1.00  0.00    -0.002 P 
ENDBRANCH   9  11
ENDBRANCH   1   7
BRANCH   4  18
HETATM   18  N2  UNL     1      28.643   7.657  47.804  1.00  0.00    -0.379 N 
BRANCH  18  19
HETATM   19  C11 UNL     1      29.245   8.479  48.822  1.00  0.00     0.138 C 
BRANCH  19  20
HETATM   20  C12 UNL     1      30.725   8.588  48.830  1.00  0.00     0.134 C 
HETATM   21 CL1  UNL     1      31.386   6.949  49.254  1.00  0.00    -0.129 Cl
ENDBRANCH  19  20
ENDBRANCH  18  19
BRANCH  18  22
HETATM   22  C13 UNL     1      28.845   7.820  46.386  1.00  0.00     0.138 C 
BRANCH  22  23
HETATM   23  C14 UNL     1      28.277   9.031  45.747  1.00  0.00     0.134 C 
HETATM   24 CL2  UNL     1      26.568   8.586  45.321  1.00  0.00    -0.129 Cl
ENDBRANCH  22  23
ENDBRANCH  18  22
ENDBRANCH   4  18
TORSDOF 7
ENDMDL
MODEL 7
REMARK VINA RESULT:      -6.7      3.304      4.692
REMARK  7 active torsions:
REMARK  status: ('A' for Active; 'I' for Inactive)
REMARK       I    between atoms: C1_2  and  N1_3 
REMARK    1  A    between atoms: C1_2  and  C7_11 
REMARK    2  A    between atoms: N1_3  and  C2_4 
REMARK    3  A    between atoms: C10_14  and  N2_15 
REMARK    4  A    between atoms: N2_15  and  C11_16 
REMARK    5  A    between atoms: N2_15  and  C13_19 
REMARK    6  A    between atoms: C11_16  and  C12_17 
REMARK    7  A    between atoms: C13_19  and  C14_20 
ROOT
HETATM    1  C7  UNL     1      26.741   5.228  48.849  1.00  0.00     0.032 A 
HETATM    2  C8  UNL     1      26.965   3.944  49.298  1.00  0.00     0.019 A 
HETATM    3  C9  UNL     1      25.882   3.174  49.656  1.00  0.00     0.030 A 
HETATM    4  C10 UNL     1      24.561   3.548  49.618  1.00  0.00     0.030 A 
HETATM    5  C15 UNL     1      24.414   4.840  49.161  1.00  0.00     0.030 A 
HETATM    6  C16 UNL     1      25.441   5.674  48.783  1.00  0.00     0.019 A 
ENDROOT
BRANCH   1   7
HETATM    7  C1  UNL     1      27.767   6.177  48.435  1.00  0.00     0.256 C 
HETATM    8  O1  UNL     1      27.543   7.196  47.728  1.00  0.00    -0.267 OA
HETATM    9  N1  UNL     1      29.106   5.954  48.845  1.00  0.00    -0.322 N 
HETATM   10  H1  UNL     1      29.466   5.170  49.424  1.00  0.00     0.169 HD
BRANCH   9  11
HETATM   11  C2  UNL     1      30.359   6.599  48.673  1.00  0.00     0.048 A 
HETATM   12  C3  UNL     1      31.539   5.848  48.765  1.00  0.00     0.032 A 
HETATM   13  C4  UNL     1      32.827   6.283  48.626  1.00  0.00     0.021 A 
HETATM   14  C5  UNL     1      33.312   7.550  48.364  1.00  0.00     0.012 A 
HETATM   15 BR1  UNL     1      35.179   7.922  48.215  1.00  0.00    -0.051 Br
HETATM   16  C6  UNL     1      32.405   8.598  48.204  1.00  0.00     0.037 A 
HETATM   17  P1  UNL     1      30.683   8.284  48.339  1.00  0.00    -0.002 P 
ENDBRANCH   9  11
ENDBRANCH   1   7
BRANCH   4  18
HETATM   18  N2  UNL     1      23.492   2.664  50.021  1.00  0.00    -0.379 N 
BRANCH  18  19
HETATM   19  C11 UNL     1      22.302   2.719  49.212  1.00  0.00     0.138 C 
BRANCH  19  20
HETATM   20  C12 UNL     1      22.333   2.033  47.897  1.00  0.00     0.134 C 
HETATM   21 CL1  UNL     1      22.042   3.294  46.621  1.00  0.00    -0.129 Cl
ENDBRANCH  19  20
ENDBRANCH  18  19
BRANCH  18  22
HETATM   22  C13 UNL     1      23.657   1.835  51.189  1.00  0.00     0.138 C 
BRANCH  22  23
HETATM   23  C14 UNL     1      23.098   2.331  52.469  1.00  0.00     0.134 C 
HETATM   24 CL2  UNL     1      24.513   3.035  53.364  1.00  0.00    -0.129 Cl
ENDBRANCH  22  23
ENDBRANCH  18  22
ENDBRANCH   4  18
TORSDOF 7
ENDMDL
MODEL 8
REMARK VINA RESULT:      -6.7      1.771      3.075
REMARK  7 active torsions:
REMARK  status: ('A' for Active; 'I' for Inactive)
REMARK       I    between atoms: C1_2  and  N1_3 
REMARK    1  A    between atoms: C1_2  and  C7_11 
REMARK    2  A    between atoms: N1_3  and  C2_4 
REMARK    3  A    between atoms: C10_14  and  N2_15 
REMARK    4  A    between atoms: N2_15  and  C11_16 
REMARK    5  A    between atoms: N2_15  and  C13_19 
REMARK    6  A    between atoms: C11_16  and  C12_17 
REMARK    7  A    between atoms: C13_19  and  C14_20 
ROOT
HETATM    1  C7  UNL     1      25.259   3.417  50.837  1.00  0.00     0.032 A 
HETATM    2  C8  UNL     1      24.296   2.785  51.594  1.00  0.00     0.019 A 
HETATM    3  C9  UNL     1      24.629   1.618  52.242  1.00  0.00     0.030 A 
HETATM    4  C10 UNL     1      25.850   0.988  52.222  1.00  0.00     0.030 A 
HETATM    5  C15 UNL     1      26.760   1.674  51.448  1.00  0.00     0.030 A 
HETATM    6  C16 UNL     1      26.508   2.845  50.769  1.00  0.00     0.019 A 
ENDROOT
BRANCH   1   7
HETATM    7  C1  UNL     1      25.076   4.652  50.084  1.00  0.00     0.256 C 
HETATM    8  O1  UNL     1      23.991   4.994  49.541  1.00  0.00    -0.267 OA
HETATM    9  N1  UNL     1      26.177   5.534  49.946  1.00  0.00    -0.322 N 
HETATM   10  H1  UNL     1      27.137   5.410  50.325  1.00  0.00     0.169 HD
BRANCH   9  11
HETATM   11  C2  UNL     1      26.426   6.786  49.324  1.00  0.00     0.048 A 
HETATM   12  C3  UNL     1      27.080   6.822  48.085  1.00  0.00     0.032 A 
HETATM   13  C4  UNL     1      27.402   7.919  47.334  1.00  0.00     0.021 A 
HETATM   14  C5  UNL     1      27.176   9.259  47.581  1.00  0.00     0.012 A 
HETATM   15 BR1  UNL     1      27.725  10.629  46.370  1.00  0.00    -0.051 Br
HETATM   16  C6  UNL     1      26.525   9.627  48.759  1.00  0.00     0.037 A 
HETATM   17  P1  UNL     1      26.012   8.388  49.891  1.00  0.00    -0.002 P 
ENDBRANCH   9  11
ENDBRANCH   1   7
BRANCH   4  18
HETATM   18  N2  UNL     1      26.101  -0.242  52.936  1.00  0.00    -0.379 N 
BRANCH  18  19
HETATM   19  C11 UNL     1      24.949  -0.850  53.551  1.00  0.00     0.138 C 
BRANCH  19  20
HETATM   20  C12 UNL     1      24.908  -0.900  55.033  1.00  0.00     0.134 C 
HETATM   21 CL1  UNL     1      23.220  -1.375  55.513  1.00  0.00    -0.129 Cl
ENDBRANCH  19  20
ENDBRANCH  18  19
BRANCH  18  22
HETATM   22  C13 UNL     1      27.446  -0.754  53.020  1.00  0.00     0.138 C 
BRANCH  22  23
HETATM   23  C14 UNL     1      28.328  -0.198  54.074  1.00  0.00     0.134 C 
HETATM   24 CL2  UNL     1      30.014  -0.641  53.564  1.00  0.00    -0.129 Cl
ENDBRANCH  22  23
ENDBRANCH  18  22
ENDBRANCH   4  18
TORSDOF 7
ENDMDL
MODEL 9
REMARK VINA RESULT:      -6.5      5.187      9.370
REMARK  7 active torsions:
REMARK  status: ('A' for Active; 'I' for Inactive)
REMARK       I    between atoms: C1_2  and  N1_3 
REMARK    1  A    between atoms: C1_2  and  C7_11 
REMARK    2  A    between atoms: N1_3  and  C2_4 
REMARK    3  A    between atoms: C10_14  and  N2_15 
REMARK    4  A    between atoms: N2_15  and  C11_16 
REMARK    5  A    between atoms: N2_15  and  C13_19 
REMARK    6  A    between atoms: C11_16  and  C12_17 
REMARK    7  A    between atoms: C13_19  and  C14_20 
ROOT
HETATM    1  C7  UNL     1      26.914   5.655  48.697  1.00  0.00     0.032 A 
HETATM    2  C8  UNL     1      26.762   6.957  48.270  1.00  0.00     0.019 A 
HETATM    3  C9  UNL     1      27.852   7.606  47.736  1.00  0.00     0.030 A 
HETATM    4  C10 UNL     1      29.115   7.092  47.574  1.00  0.00     0.030 A 
HETATM    5  C15 UNL     1      29.193   5.791  48.021  1.00  0.00     0.030 A 
HETATM    6  C16 UNL     1      28.153   5.071  48.565  1.00  0.00     0.019 A 
ENDROOT
BRANCH   1   7
HETATM    7  C1  UNL     1      25.872   4.825  49.287  1.00  0.00     0.256 C 
HETATM    8  O1  UNL     1      24.685   4.776  48.866  1.00  0.00    -0.267 OA
HETATM    9  N1  UNL     1      26.198   4.017  50.405  1.00  0.00    -0.322 N 
HETATM   10  H1  UNL     1      27.120   3.936  50.879  1.00  0.00     0.169 HD
BRANCH   9  11
HETATM   11  C2  UNL     1      25.518   3.099  51.249  1.00  0.00     0.048 A 
HETATM   12  C3  UNL     1      26.106   1.860  51.535  1.00  0.00     0.032 A 
HETATM   13  C4  UNL     1      25.615   0.855  52.321  1.00  0.00     0.021 A 
HETATM   14  C5  UNL     1      24.433   0.784  53.034  1.00  0.00     0.012 A 
HETATM   15 BR1  UNL     1      23.954  -0.744  54.073  1.00  0.00    -0.051 Br
HETATM   16  C6  UNL     1      23.556   1.868  52.992  1.00  0.00     0.037 A 
HETATM   17  P1  UNL     1      23.971   3.285  52.042  1.00  0.00    -0.002 P 
ENDBRANCH   9  11
ENDBRANCH   1   7
BRANCH   4  18
HETATM   18  N2  UNL     1      30.198   7.859  47.005  1.00  0.00    -0.379 N 
BRANCH  18  19
HETATM   19  C11 UNL     1      31.369   7.105  46.640  1.00  0.00     0.138 C 
BRANCH  19  20
HETATM   20  C12 UNL     1      32.645   7.446  47.317  1.00  0.00     0.134 C 
HETATM   21 CL1  UNL     1      32.361   7.305  49.107  1.00  0.00    -0.129 Cl
ENDBRANCH  19  20
ENDBRANCH  18  19
BRANCH  18  22
HETATM   22  C13 UNL     1      30.065   9.289  46.873  1.00  0.00     0.138 C 
BRANCH  22  23
HETATM   23  C14 UNL     1      30.307  10.116  48.080  1.00  0.00     0.134 C 
HETATM   24 CL2  UNL     1      31.873  10.978  47.759  1.00  0.00    -0.129 Cl
ENDBRANCH  22  23
ENDBRANCH  18  22
ENDBRANCH   4  18
TORSDOF 7
ENDMDL
