MODEL 1
REMARK VINA RESULT:      -8.0      0.000      0.000
REMARK  2 active torsions:
REMARK  status: ('A' for Active; 'I' for Inactive)
REMARK    1  A    between atoms: O1_2  and  C2_3 
REMARK    2  A    between atoms: N1_16  and  O5_17 
ROOT
HETATM    1  C2  UNL     1      25.931   2.550  51.056  1.00  0.00     0.070 A 
HETATM    2  C3  UNL     1      24.588   2.636  50.758  1.00  0.00     0.038 A 
HETATM    3  C4  UNL     1      23.668   1.886  51.459  1.00  0.00     0.019 A 
HETATM    4  C5  UNL     1      24.120   1.052  52.462  1.00  0.00     0.028 A 
HETATM    5  C6  UNL     1      23.154   0.326  53.130  1.00  0.00     0.107 A 
HETATM    6  O2  UNL     1      21.874   0.396  52.858  1.00  0.00    -0.274 OA
HETATM    7  C7  UNL     1      20.973  -0.307  53.512  1.00  0.00     0.288 A 
HETATM    8  O3  UNL     1      19.818  -0.062  53.063  1.00  0.00    -0.260 OA
HETATM    9  C8  UNL     1      21.327  -1.160  54.520  1.00  0.00     0.084 A 
HETATM   10  C9  UNL     1      22.675  -1.288  54.866  1.00  0.00     0.026 A 
HETATM   11  C10 UNL     1      23.594  -0.522  54.146  1.00  0.00     0.069 A 
HETATM   12  C11 UNL     1      24.946  -0.639  54.480  1.00  0.00     0.285 A 
HETATM   13  O4  UNL     1      25.305  -1.417  55.405  1.00  0.00    -0.265 OA
HETATM   14  N1  UNL     1      25.812   0.106  53.775  1.00  0.00    -0.184 N 
HETATM   15  C13 UNL     1      25.455   0.943  52.783  1.00  0.00     0.082 A 
HETATM   16  C14 UNL     1      26.356   1.707  52.064  1.00  0.00     0.069 A 
ENDROOT
BRANCH   1  17
HETATM   17  O1  UNL     1      26.990   3.221  50.462  1.00  0.00    -0.356 OA
HETATM   18  C1  UNL     1      26.778   4.075  49.326  1.00  0.00     0.210 C 
ENDBRANCH   1  17
BRANCH  14  19
HETATM   19  O5  UNL     1      27.141   0.003  54.089  1.00  0.00    -0.275 OA
HETATM   20  C12 UNL     1      28.067  -0.806  53.435  1.00  0.00     0.238 C 
ENDBRANCH  14  19
TORSDOF 2
ENDMDL
MODEL 2
REMARK VINA RESULT:      -7.8      1.720      5.876
REMARK  2 active torsions:
REMARK  status: ('A' for Active; 'I' for Inactive)
REMARK    1  A    between atoms: O1_2  and  C2_3 
REMARK    2  A    between atoms: N1_16  and  O5_17 
ROOT
HETATM    1  C2  UNL     1      20.993  -0.738  53.754  1.00  0.00     0.070 A 
HETATM    2  C3  UNL     1      21.941  -1.268  54.602  1.00  0.00     0.038 A 
HETATM    3  C4  UNL     1      23.269  -0.922  54.467  1.00  0.00     0.019 A 
HETATM    4  C5  UNL     1      23.624  -0.037  53.470  1.00  0.00     0.028 A 
HETATM    5  C6  UNL     1      24.967   0.273  53.383  1.00  0.00     0.107 A 
HETATM    6  O2  UNL     1      25.881  -0.223  54.180  1.00  0.00    -0.274 OA
HETATM    7  C7  UNL     1      27.156   0.089  54.077  1.00  0.00     0.288 A 
HETATM    8  O3  UNL     1      27.828  -0.518  54.957  1.00  0.00    -0.260 OA
HETATM    9  C8  UNL     1      27.602   0.957  53.119  1.00  0.00     0.084 A 
HETATM   10  C9  UNL     1      26.685   1.526  52.231  1.00  0.00     0.026 A 
HETATM   11  C10 UNL     1      25.344   1.166  52.380  1.00  0.00     0.069 A 
HETATM   12  C11 UNL     1      24.415   1.726  51.500  1.00  0.00     0.285 A 
HETATM   13  O4  UNL     1      24.794   2.530  50.606  1.00  0.00    -0.265 OA
HETATM   14  N1  UNL     1      23.132   1.365  51.661  1.00  0.00    -0.184 N 
HETATM   15  C13 UNL     1      22.701   0.510  52.607  1.00  0.00     0.082 A 
HETATM   16  C14 UNL     1      21.376   0.146  52.764  1.00  0.00     0.069 A 
ENDROOT
BRANCH   1  17
HETATM   17  O1  UNL     1      19.624  -0.969  53.739  1.00  0.00    -0.356 OA
HETATM   18  C1  UNL     1      18.811  -0.515  52.645  1.00  0.00     0.210 C 
ENDBRANCH   1  17
BRANCH  14  19
HETATM   19  O5  UNL     1      22.208   1.905  50.807  1.00  0.00    -0.275 OA
HETATM   20  C12 UNL     1      21.884   1.409  49.546  1.00  0.00     0.238 C 
ENDBRANCH  14  19
TORSDOF 2
ENDMDL
MODEL 3
REMARK VINA RESULT:      -7.7      1.816      4.808
REMARK  2 active torsions:
REMARK  status: ('A' for Active; 'I' for Inactive)
REMARK    1  A    between atoms: O1_2  and  C2_3 
REMARK    2  A    between atoms: N1_16  and  O5_17 
ROOT
HETATM    1  C2  UNL     1      22.517   1.687  50.895  1.00  0.00     0.070 A 
HETATM    2  C3  UNL     1      23.613   2.474  50.611  1.00  0.00     0.038 A 
HETATM    3  C4  UNL     1      24.780   2.330  51.331  1.00  0.00     0.019 A 
HETATM    4  C5  UNL     1      24.826   1.386  52.336  1.00  0.00     0.028 A 
HETATM    5  C6  UNL     1      26.020   1.286  53.023  1.00  0.00     0.107 A 
HETATM    6  O2  UNL     1      27.070   2.027  52.766  1.00  0.00    -0.274 OA
HETATM    7  C7  UNL     1      28.198   1.912  53.436  1.00  0.00     0.288 A 
HETATM    8  O3  UNL     1      29.052   2.734  52.998  1.00  0.00    -0.260 OA
HETATM    9  C8  UNL     1      28.337   1.005  54.448  1.00  0.00     0.084 A 
HETATM   10  C9  UNL     1      27.258   0.179  54.781  1.00  0.00     0.026 A 
HETATM   11  C10 UNL     1      26.083   0.336  54.042  1.00  0.00     0.069 A 
HETATM   12  C11 UNL     1      24.996  -0.480  54.362  1.00  0.00     0.285 A 
HETATM   13  O4  UNL     1      25.092  -1.328  55.291  1.00  0.00    -0.265 OA
HETATM   14  N1  UNL     1      23.877  -0.312  53.640  1.00  0.00    -0.184 N 
HETATM   15  C13 UNL     1      23.749   0.585  52.644  1.00  0.00     0.082 A 
HETATM   16  C14 UNL     1      22.591   0.749  51.906  1.00  0.00     0.069 A 
ENDROOT
BRANCH   1  17
HETATM   17  O1  UNL     1      21.272   1.691  50.282  1.00  0.00    -0.356 OA
HETATM   18  C1  UNL     1      20.223   0.821  50.738  1.00  0.00     0.210 C 
ENDBRANCH   1  17
BRANCH  14  19
HETATM   19  O5  UNL     1      22.802  -1.104  53.940  1.00  0.00    -0.275 OA
HETATM   20  C12 UNL     1      21.835  -0.828  54.903  1.00  0.00     0.238 C 
ENDBRANCH  14  19
TORSDOF 2
ENDMDL
MODEL 4
REMARK VINA RESULT:      -7.7      1.698      3.758
REMARK  2 active torsions:
REMARK  status: ('A' for Active; 'I' for Inactive)
REMARK    1  A    between atoms: O1_2  and  C2_3 
REMARK    2  A    between atoms: N1_16  and  O5_17 
ROOT
HETATM    1  C2  UNL     1      27.529   0.690  53.370  1.00  0.00     0.070 A 
HETATM    2  C3  UNL     1      26.940  -0.165  54.277  1.00  0.00     0.038 A 
HETATM    3  C4  UNL     1      25.580  -0.388  54.244  1.00  0.00     0.019 A 
HETATM    4  C5  UNL     1      24.826   0.260  53.288  1.00  0.00     0.028 A 
HETATM    5  C6  UNL     1      23.471  -0.002  53.302  1.00  0.00     0.107 A 
HETATM    6  O2  UNL     1      22.896  -0.811  54.158  1.00  0.00    -0.274 OA
HETATM    7  C7  UNL     1      21.600  -1.044  54.151  1.00  0.00     0.288 A 
HETATM    8  O3  UNL     1      21.296  -1.856  55.070  1.00  0.00    -0.260 OA
HETATM    9  C8  UNL     1      20.773  -0.447  53.240  1.00  0.00     0.084 A 
HETATM   10  C9  UNL     1      21.314   0.430  52.296  1.00  0.00     0.026 A 
HETATM   11  C10 UNL     1      22.693   0.645  52.342  1.00  0.00     0.069 A 
HETATM   12  C11 UNL     1      23.250   1.519  51.405  1.00  0.00     0.285 A 
HETATM   13  O4  UNL     1      22.514   2.086  50.552  1.00  0.00    -0.265 OA
HETATM   14  N1  UNL     1      24.577   1.712  51.468  1.00  0.00    -0.184 N 
HETATM   15  C13 UNL     1      25.384   1.120  52.368  1.00  0.00     0.082 A 
HETATM   16  C14 UNL     1      26.750   1.325  52.423  1.00  0.00     0.069 A 
ENDROOT
BRANCH   1  17
HETATM   17  O1  UNL     1      28.869   1.033  53.254  1.00  0.00    -0.356 OA
HETATM   18  C1  UNL     1      29.903   0.088  53.574  1.00  0.00     0.210 C 
ENDBRANCH   1  17
BRANCH  14  19
HETATM   19  O5  UNL     1      25.139   2.565  50.557  1.00  0.00    -0.275 OA
HETATM   20  C12 UNL     1      25.159   3.955  50.653  1.00  0.00     0.238 C 
ENDBRANCH  14  19
TORSDOF 2
ENDMDL
MODEL 5
REMARK VINA RESULT:      -7.6      1.911      4.449
REMARK  2 active torsions:
REMARK  status: ('A' for Active; 'I' for Inactive)
REMARK    1  A    between atoms: O1_2  and  C2_3 
REMARK    2  A    between atoms: N1_16  and  O5_17 
ROOT
HETATM    1  C2  UNL     1      24.727  -0.756  54.830  1.00  0.00     0.070 A 
HETATM    2  C3  UNL     1      23.620  -1.373  55.373  1.00  0.00     0.038 A 
HETATM    3  C4  UNL     1      22.385  -1.245  54.774  1.00  0.00     0.019 A 
HETATM    4  C5  UNL     1      22.283  -0.488  53.624  1.00  0.00     0.028 A 
HETATM    5  C6  UNL     1      21.022  -0.396  53.068  1.00  0.00     0.107 A 
HETATM    6  O2  UNL     1      19.961  -0.975  53.572  1.00  0.00    -0.274 OA
HETATM    7  C7  UNL     1      18.769  -0.871  53.022  1.00  0.00     0.288 A 
HETATM    8  O3  UNL     1      17.918  -1.519  53.695  1.00  0.00    -0.260 OA
HETATM    9  C8  UNL     1      18.571  -0.143  51.882  1.00  0.00     0.084 A 
HETATM   10  C9  UNL     1      19.657   0.506  51.287  1.00  0.00     0.026 A 
HETATM   11  C10 UNL     1      20.901   0.365  51.905  1.00  0.00     0.069 A 
HETATM   12  C11 UNL     1      21.996   1.007  51.323  1.00  0.00     0.285 A 
HETATM   13  O4  UNL     1      21.847   1.687  50.272  1.00  0.00    -0.265 OA
HETATM   14  N1  UNL     1      23.182   0.860  51.935  1.00  0.00    -0.184 N 
HETATM   15  C13 UNL     1      23.369   0.141  53.057  1.00  0.00     0.082 A 
HETATM   16  C14 UNL     1      24.595  -0.005  53.678  1.00  0.00     0.069 A 
ENDROOT
BRANCH   1  17
HETATM   17  O1  UNL     1      26.036  -0.773  55.291  1.00  0.00    -0.356 OA
HETATM   18  C1  UNL     1      27.038   0.065  54.694  1.00  0.00     0.210 C 
ENDBRANCH   1  17
BRANCH  14  19
HETATM   19  O5  UNL     1      24.267   1.482  51.377  1.00  0.00    -0.275 OA
HETATM   20  C12 UNL     1      24.648   2.802  51.604  1.00  0.00     0.238 C 
ENDBRANCH  14  19
TORSDOF 2
ENDMDL
MODEL 6
REMARK VINA RESULT:      -7.4      1.917      2.996
REMARK  2 active torsions:
REMARK  status: ('A' for Active; 'I' for Inactive)
REMARK    1  A    between atoms: O1_2  and  C2_3 
REMARK    2  A    between atoms: N1_16  and  O5_17 
ROOT
HETATM    1  C2  UNL     1      27.401   0.753  53.149  1.00  0.00     0.070 A 
HETATM    2  C3  UNL     1      26.793   1.378  52.082  1.00  0.00     0.038 A 
HETATM    3  C4  UNL     1      25.432   1.268  51.892  1.00  0.00     0.019 A 
HETATM    4  C5  UNL     1      24.697   0.521  52.789  1.00  0.00     0.028 A 
HETATM    5  C6  UNL     1      23.339   0.446  52.549  1.00  0.00     0.107 A 
HETATM    6  O2  UNL     1      22.746   1.034  51.539  1.00  0.00    -0.274 OA
HETATM    7  C7  UNL     1      21.449   0.947  51.333  1.00  0.00     0.288 A 
HETATM    8  O3  UNL     1      21.125   1.599  50.300  1.00  0.00    -0.260 OA
HETATM    9  C8  UNL     1      20.639   0.229  52.169  1.00  0.00     0.084 A 
HETATM   10  C9  UNL     1      21.201  -0.427  53.268  1.00  0.00     0.026 A 
HETATM   11  C10 UNL     1      22.580  -0.305  53.447  1.00  0.00     0.069 A 
HETATM   12  C11 UNL     1      23.157  -0.954  54.541  1.00  0.00     0.285 A 
HETATM   13  O4  UNL     1      22.438  -1.625  55.331  1.00  0.00    -0.265 OA
HETATM   14  N1  UNL     1      24.485  -0.825  54.694  1.00  0.00    -0.184 N 
HETATM   15  C13 UNL     1      25.274  -0.116  53.865  1.00  0.00     0.082 A 
HETATM   16  C14 UNL     1      26.641   0.012  54.032  1.00  0.00     0.069 A 
ENDROOT
BRANCH   1  17
HETATM   17  O1  UNL     1      28.745   0.752  53.495  1.00  0.00    -0.356 OA
HETATM   18  C1  UNL     1      29.418  -0.471  53.836  1.00  0.00     0.210 C 
ENDBRANCH   1  17
BRANCH  14  19
HETATM   19  O5  UNL     1      25.067  -1.455  55.761  1.00  0.00    -0.275 OA
HETATM   20  C12 UNL     1      25.292  -0.887  57.012  1.00  0.00     0.238 C 
ENDBRANCH  14  19
TORSDOF 2
ENDMDL
MODEL 7
REMARK VINA RESULT:      -7.3      1.807      4.622
REMARK  2 active torsions:
REMARK  status: ('A' for Active; 'I' for Inactive)
REMARK    1  A    between atoms: O1_2  and  C2_3 
REMARK    2  A    between atoms: N1_16  and  O5_17 
ROOT
HETATM    1  C2  UNL     1      26.986  -0.465  53.067  1.00  0.00     0.070 A 
HETATM    2  C3  UNL     1      27.388   0.733  52.517  1.00  0.00     0.038 A 
HETATM    3  C4  UNL     1      26.463   1.713  52.225  1.00  0.00     0.019 A 
HETATM    4  C5  UNL     1      25.132   1.467  52.495  1.00  0.00     0.028 A 
HETATM    5  C6  UNL     1      24.251   2.483  52.182  1.00  0.00     0.107 A 
HETATM    6  O2  UNL     1      24.617   3.627  51.659  1.00  0.00    -0.274 OA
HETATM    7  C7  UNL     1      23.756   4.581  51.371  1.00  0.00     0.288 A 
HETATM    8  O3  UNL     1      24.357   5.578  50.880  1.00  0.00    -0.260 OA
HETATM    9  C8  UNL     1      22.418   4.428  51.602  1.00  0.00     0.084 A 
HETATM   10  C9  UNL     1      21.952   3.233  52.157  1.00  0.00     0.026 A 
HETATM   11  C10 UNL     1      22.901   2.251  52.448  1.00  0.00     0.069 A 
HETATM   12  C11 UNL     1      22.452   1.051  53.003  1.00  0.00     0.285 A 
HETATM   13  O4  UNL     1      21.223   0.878  53.229  1.00  0.00    -0.265 OA
HETATM   14  N1  UNL     1      23.381   0.121  53.273  1.00  0.00    -0.184 N 
HETATM   15  C13 UNL     1      24.698   0.280  53.043  1.00  0.00     0.082 A 
HETATM   16  C14 UNL     1      25.647  -0.685  53.326  1.00  0.00     0.069 A 
ENDROOT
BRANCH   1  17
HETATM   17  O1  UNL     1      27.768  -1.556  53.422  1.00  0.00    -0.356 OA
HETATM   18  C1  UNL     1      29.202  -1.477  53.391  1.00  0.00     0.210 C 
ENDBRANCH   1  17
BRANCH  14  19
HETATM   19  O5  UNL     1      22.958  -1.062  53.818  1.00  0.00    -0.275 OA
HETATM   20  C12 UNL     1      22.704  -1.286  55.169  1.00  0.00     0.238 C 
ENDBRANCH  14  19
TORSDOF 2
ENDMDL
MODEL 8
REMARK VINA RESULT:      -7.2      1.992      5.068
REMARK  2 active torsions:
REMARK  status: ('A' for Active; 'I' for Inactive)
REMARK    1  A    between atoms: O1_2  and  C2_3 
REMARK    2  A    between atoms: N1_16  and  O5_17 
ROOT
HETATM    1  C2  UNL     1      21.495   1.195  50.809  1.00  0.00     0.070 A 
HETATM    2  C3  UNL     1      21.534   0.392  51.929  1.00  0.00     0.038 A 
HETATM    3  C4  UNL     1      22.697   0.271  52.660  1.00  0.00     0.019 A 
HETATM    4  C5  UNL     1      23.814   0.968  52.247  1.00  0.00     0.028 A 
HETATM    5  C6  UNL     1      24.948   0.808  53.018  1.00  0.00     0.107 A 
HETATM    6  O2  UNL     1      25.002   0.048  54.084  1.00  0.00    -0.274 OA
HETATM    7  C7  UNL     1      26.098  -0.087  54.802  1.00  0.00     0.288 A 
HETATM    8  O3  UNL     1      25.891  -0.869  55.772  1.00  0.00    -0.260 OA
HETATM    9  C8  UNL     1      27.253   0.564  54.470  1.00  0.00     0.084 A 
HETATM   10  C9  UNL     1      27.272   1.393  53.344  1.00  0.00     0.026 A 
HETATM   11  C10 UNL     1      26.087   1.506  52.615  1.00  0.00     0.069 A 
HETATM   12  C11 UNL     1      26.090   2.329  51.487  1.00  0.00     0.285 A 
HETATM   13  O4  UNL     1      27.140   2.944  51.153  1.00  0.00    -0.265 OA
HETATM   14  N1  UNL     1      24.940   2.423  50.800  1.00  0.00    -0.184 N 
HETATM   15  C13 UNL     1      23.807   1.778  51.133  1.00  0.00     0.082 A 
HETATM   16  C14 UNL     1      22.628   1.882  50.419  1.00  0.00     0.069 A 
ENDROOT
BRANCH   1  17
HETATM   17  O1  UNL     1      20.425   1.436  49.959  1.00  0.00    -0.356 OA
HETATM   18  C1  UNL     1      19.091   1.046  50.323  1.00  0.00     0.210 C 
ENDBRANCH   1  17
BRANCH  14  19
HETATM   19  O5  UNL     1      24.925   3.226  49.691  1.00  0.00    -0.275 OA
HETATM   20  C12 UNL     1      24.728   4.605  49.693  1.00  0.00     0.238 C 
ENDBRANCH  14  19
TORSDOF 2
ENDMDL
MODEL 9
REMARK VINA RESULT:      -7.1      1.968      4.607
REMARK  2 active torsions:
REMARK  status: ('A' for Active; 'I' for Inactive)
REMARK    1  A    between atoms: O1_2  and  C2_3 
REMARK    2  A    between atoms: N1_16  and  O5_17 
ROOT
HETATM    1  C2  UNL     1      24.491   3.673  49.477  1.00  0.00     0.070 A 
HETATM    2  C3  UNL     1      25.858   3.683  49.655  1.00  0.00     0.038 A 
HETATM    3  C4  UNL     1      26.440   2.903  50.633  1.00  0.00     0.019 A 
HETATM    4  C5  UNL     1      25.626   2.118  51.424  1.00  0.00     0.028 A 
HETATM    5  C6  UNL     1      26.263   1.359  52.385  1.00  0.00     0.107 A 
HETATM    6  O2  UNL     1      27.561   1.357  52.568  1.00  0.00    -0.274 OA
HETATM    7  C7  UNL     1      28.144   0.623  53.492  1.00  0.00     0.288 A 
HETATM    8  O3  UNL     1      29.395   0.798  53.465  1.00  0.00    -0.260 OA
HETATM    9  C8  UNL     1      27.420  -0.186  54.323  1.00  0.00     0.084 A 
HETATM   10  C9  UNL     1      26.029  -0.236  54.188  1.00  0.00     0.026 A 
HETATM   11  C10 UNL     1      25.456   0.559  53.194  1.00  0.00     0.069 A 
HETATM   12  C11 UNL     1      24.067   0.521  53.047  1.00  0.00     0.285 A 
HETATM   13  O4  UNL     1      23.370  -0.215  53.797  1.00  0.00    -0.265 OA
HETATM   14  N1  UNL     1      23.537   1.293  52.085  1.00  0.00    -0.184 N 
HETATM   15  C13 UNL     1      24.258   2.087  51.271  1.00  0.00     0.082 A 
HETATM   16  C14 UNL     1      23.701   2.878  50.283  1.00  0.00     0.069 A 
ENDROOT
BRANCH   1  17
HETATM   17  O1  UNL     1      23.738   4.385  48.554  1.00  0.00    -0.356 OA
HETATM   18  C1  UNL     1      22.390   3.995  48.244  1.00  0.00     0.210 C 
ENDBRANCH   1  17
BRANCH  14  19
HETATM   19  O5  UNL     1      22.177   1.267  51.926  1.00  0.00    -0.275 OA
HETATM   20  C12 UNL     1      21.467   0.334  51.176  1.00  0.00     0.238 C 
ENDBRANCH  14  19
TORSDOF 2
ENDMDL
