MODEL 1
REMARK VINA RESULT:      -7.2      0.000      0.000
REMARK  4 active torsions:
REMARK  status: ('A' for Active; 'I' for Inactive)
REMARK    1  A    between atoms: O1_2  and  C2_3 
REMARK    2  A    between atoms: C9_12  and  N3_13 
REMARK    3  A    between atoms: C11_15  and  O2_16 
REMARK    4  A    between atoms: C15_20  and  O3_21 
ROOT
HETATM    1  C2  UNL     1      22.428   1.772  50.661  1.00  0.00     0.069 C 
HETATM    2  C3  UNL     1      23.158   2.835  50.493  1.00  0.00     0.049 C 
HETATM    3  C4  UNL     1      23.909   3.512  51.525  1.00  0.00     0.141 C 
HETATM    4  N1  UNL     1      25.029   4.363  51.034  1.00  0.00    -0.368 N 
HETATM    5  C5  UNL     1      24.890   5.738  50.617  1.00  0.00     0.026 C 
HETATM    6  C6  UNL     1      24.058   6.751  50.988  1.00  0.00     0.016 C 
HETATM    7  C7  UNL     1      22.777   6.675  50.118  1.00  0.00     0.075 C 
HETATM    8  C8  UNL     1      21.849   6.271  51.074  1.00  0.00     0.098 C 
HETATM    9  N2  UNL     1      21.961   5.124  51.768  1.00  0.00    -0.276 NA
HETATM   10  C9  UNL     1      22.992   4.345  52.379  1.00  0.00     0.237 C 
HETATM   11  C10 UNL     1      22.968   7.737  49.233  1.00  0.00     0.019 C 
HETATM   12  C11 UNL     1      24.008   7.886  48.341  1.00  0.00     0.044 C 
HETATM   13  C12 UNL     1      25.266   7.404  47.771  1.00  0.00     0.091 C 
HETATM   14  C13 UNL     1      26.022   6.330  48.430  1.00  0.00    -0.018 C 
HETATM   15  C14 UNL     1      25.951   5.642  49.592  1.00  0.00     0.025 C 
HETATM   16  C15 UNL     1      24.620   2.591  52.454  1.00  0.00     0.101 C 
HETATM   17  C16 UNL     1      24.330   1.345  52.815  1.00  0.00     0.170 C 
HETATM   18  O4  UNL     1      23.293   0.532  52.444  1.00  0.00    -0.354 OA
HETATM   19  C17 UNL     1      22.088   0.905  51.819  1.00  0.00     0.238 C 
HETATM   20  H5  UNL     1      26.063   4.191  50.888  1.00  0.00     0.161 HD
ENDROOT
BRANCH  10  21
HETATM   21  N3  UNL     1      23.733   5.058  53.399  1.00  0.00    -0.407 N 
HETATM   22  H10 UNL     1      23.862   4.568  54.282  1.00  0.00     0.152 HD
HETATM   23  H11 UNL     1      24.558   5.557  53.031  1.00  0.00     0.152 HD
ENDBRANCH  10  21
BRANCH  16  24
HETATM   24  O3  UNL     1      25.789   3.018  53.094  1.00  0.00    -0.360 OA
HETATM   25  H18 UNL     1      26.194   2.608  53.901  1.00  0.00     0.217 HD
ENDBRANCH  16  24
BRANCH   1  26
HETATM   26  O1  UNL     1      21.858   1.413  49.423  1.00  0.00    -0.358 OA
HETATM   27  C1  UNL     1      22.355   2.151  48.308  1.00  0.00     0.209 C 
ENDBRANCH   1  26
BRANCH  12  28
HETATM   28  O2  UNL     1      23.719   9.089  47.631  1.00  0.00    -0.365 OA
HETATM   29  H13 UNL     1      24.265   9.355  46.829  1.00  0.00     0.217 HD
ENDBRANCH  12  28
TORSDOF 4
ENDMDL
MODEL 2
REMARK VINA RESULT:      -7.1      2.389      5.891
REMARK  4 active torsions:
REMARK  status: ('A' for Active; 'I' for Inactive)
REMARK    1  A    between atoms: O1_2  and  C2_3 
REMARK    2  A    between atoms: C9_12  and  N3_13 
REMARK    3  A    between atoms: C11_15  and  O2_16 
REMARK    4  A    between atoms: C15_20  and  O3_21 
ROOT
HETATM    1  C2  UNL     1      22.659   3.594  48.231  1.00  0.00     0.069 C 
HETATM    2  C3  UNL     1      22.858   3.153  49.438  1.00  0.00     0.049 C 
HETATM    3  C4  UNL     1      22.990   3.971  50.622  1.00  0.00     0.141 C 
HETATM    4  N1  UNL     1      22.713   3.269  51.907  1.00  0.00    -0.368 N 
HETATM    5  C5  UNL     1      23.689   2.514  52.655  1.00  0.00     0.026 C 
HETATM    6  C6  UNL     1      25.039   2.618  52.807  1.00  0.00     0.016 C 
HETATM    7  C7  UNL     1      25.723   1.806  51.678  1.00  0.00     0.075 C 
HETATM    8  C8  UNL     1      26.260   2.841  50.916  1.00  0.00     0.098 C 
HETATM    9  N2  UNL     1      25.511   3.805  50.353  1.00  0.00    -0.276 NA
HETATM   10  C9  UNL     1      24.361   4.588  50.682  1.00  0.00     0.237 C 
HETATM   11  C10 UNL     1      26.168   0.677  52.365  1.00  0.00     0.019 C 
HETATM   12  C11 UNL     1      25.387  -0.232  53.047  1.00  0.00     0.044 C 
HETATM   13  C12 UNL     1      24.073  -0.667  53.520  1.00  0.00     0.091 C 
HETATM   14  C13 UNL     1      22.919   0.240  53.461  1.00  0.00    -0.018 C 
HETATM   15  C14 UNL     1      22.699   1.540  53.162  1.00  0.00     0.025 C 
HETATM   16  C15 UNL     1      22.022   5.100  50.684  1.00  0.00     0.101 C 
HETATM   17  C16 UNL     1      21.423   5.771  49.705  1.00  0.00     0.170 C 
HETATM   18  O4  UNL     1      21.515   5.630  48.347  1.00  0.00    -0.354 OA
HETATM   19  C17 UNL     1      22.502   4.938  47.618  1.00  0.00     0.238 C 
HETATM   20  H5  UNL     1      21.846   3.165  52.506  1.00  0.00     0.161 HD
ENDROOT
BRANCH  10  21
HETATM   21  N3  UNL     1      24.523   5.386  51.880  1.00  0.00    -0.407 N 
HETATM   22  H10 UNL     1      25.389   5.246  52.396  1.00  0.00     0.152 HD
HETATM   23  H11 UNL     1      24.216   6.364  51.764  1.00  0.00     0.152 HD
ENDBRANCH  10  21
BRANCH  16  24
HETATM   24  O3  UNL     1      21.619   5.600  51.927  1.00  0.00    -0.360 OA
HETATM   25  H18 UNL     1      22.214   5.987  52.620  1.00  0.00     0.217 HD
ENDBRANCH  16  24
BRANCH   1  26
HETATM   26  O1  UNL     1      22.585   2.494  47.354  1.00  0.00    -0.358 OA
HETATM   27  C1  UNL     1      21.900   1.360  47.884  1.00  0.00     0.209 C 
ENDBRANCH   1  26
BRANCH  12  28
HETATM   28  O2  UNL     1      26.297  -1.225  53.517  1.00  0.00    -0.365 OA
HETATM   29  H13 UNL     1      25.970  -2.144  53.761  1.00  0.00     0.217 HD
ENDBRANCH  12  28
TORSDOF 4
ENDMDL
MODEL 3
REMARK VINA RESULT:      -7.1      7.755     10.632
REMARK  4 active torsions:
REMARK  status: ('A' for Active; 'I' for Inactive)
REMARK    1  A    between atoms: O1_2  and  C2_3 
REMARK    2  A    between atoms: C9_12  and  N3_13 
REMARK    3  A    between atoms: C11_15  and  O2_16 
REMARK    4  A    between atoms: C15_20  and  O3_21 
ROOT
HETATM    1  C2  UNL     1      30.931   9.515  46.004  1.00  0.00     0.069 C 
HETATM    2  C3  UNL     1      31.160   8.310  46.437  1.00  0.00     0.049 C 
HETATM    3  C4  UNL     1      30.835   7.814  47.755  1.00  0.00     0.141 C 
HETATM    4  N1  UNL     1      30.723   6.332  47.860  1.00  0.00    -0.368 N 
HETATM    5  C5  UNL     1      31.833   5.442  48.099  1.00  0.00     0.026 C 
HETATM    6  C6  UNL     1      33.010   5.570  48.774  1.00  0.00     0.016 C 
HETATM    7  C7  UNL     1      34.072   6.143  47.801  1.00  0.00     0.075 C 
HETATM    8  C8  UNL     1      34.236   7.419  48.335  1.00  0.00     0.098 C 
HETATM    9  N2  UNL     1      33.232   8.307  48.439  1.00  0.00    -0.276 NA
HETATM   10  C9  UNL     1      31.840   8.307  48.762  1.00  0.00     0.237 C 
HETATM   11  C10 UNL     1      34.850   5.018  47.530  1.00  0.00     0.019 C 
HETATM   12  C11 UNL     1      34.421   3.842  46.952  1.00  0.00     0.044 C 
HETATM   13  C12 UNL     1      33.343   3.023  46.401  1.00  0.00     0.091 C 
HETATM   14  C13 UNL     1      31.937   3.407  46.595  1.00  0.00    -0.018 C 
HETATM   15  C14 UNL     1      31.258   4.342  47.296  1.00  0.00     0.025 C 
HETATM   16  C15 UNL     1      29.501   8.251  48.250  1.00  0.00     0.101 C 
HETATM   17  C16 UNL     1      28.793   9.339  47.962  1.00  0.00     0.170 C 
HETATM   18  O4  UNL     1      29.075  10.386  47.127  1.00  0.00    -0.354 OA
HETATM   19  C17 UNL     1      30.325  10.741  46.585  1.00  0.00     0.238 C 
HETATM   20  H5  UNL     1      29.909   5.659  47.792  1.00  0.00     0.161 HD
ENDROOT
BRANCH  10  21
HETATM   21  N3  UNL     1      31.549   7.791  50.084  1.00  0.00    -0.407 N 
HETATM   22  H10 UNL     1      31.870   6.845  50.276  1.00  0.00     0.152 HD
HETATM   23  H11 UNL     1      31.701   8.483  50.835  1.00  0.00     0.152 HD
ENDBRANCH  10  21
BRANCH  16  24
HETATM   24  O3  UNL     1      28.806   7.452  49.165  1.00  0.00    -0.360 OA
HETATM   25  H18 UNL     1      28.400   6.567  48.974  1.00  0.00     0.217 HD
ENDBRANCH  16  24
BRANCH   1  26
HETATM   26  O1  UNL     1      31.388   9.612  44.675  1.00  0.00    -0.358 OA
HETATM   27  C1  UNL     1      32.669   9.028  44.445  1.00  0.00     0.209 C 
ENDBRANCH   1  26
BRANCH  12  28
HETATM   28  O2  UNL     1      35.593   3.036  46.835  1.00  0.00    -0.365 OA
HETATM   29  H13 UNL     1      36.091   2.981  45.963  1.00  0.00     0.217 HD
ENDBRANCH  12  28
TORSDOF 4
ENDMDL
MODEL 4
REMARK VINA RESULT:      -6.9      1.929      5.957
REMARK  4 active torsions:
REMARK  status: ('A' for Active; 'I' for Inactive)
REMARK    1  A    between atoms: O1_2  and  C2_3 
REMARK    2  A    between atoms: C9_12  and  N3_13 
REMARK    3  A    between atoms: C11_15  and  O2_16 
REMARK    4  A    between atoms: C15_20  and  O3_21 
ROOT
HETATM    1  C2  UNL     1      22.599   5.197  47.794  1.00  0.00     0.069 C 
HETATM    2  C3  UNL     1      22.372   4.698  48.973  1.00  0.00     0.049 C 
HETATM    3  C4  UNL     1      22.542   5.395  50.229  1.00  0.00     0.141 C 
HETATM    4  N1  UNL     1      21.773   4.829  51.372  1.00  0.00    -0.368 N 
HETATM    5  C5  UNL     1      22.235   3.757  52.220  1.00  0.00     0.026 C 
HETATM    6  C6  UNL     1      23.470   3.353  52.631  1.00  0.00     0.016 C 
HETATM    7  C7  UNL     1      24.034   2.360  51.583  1.00  0.00     0.075 C 
HETATM    8  C8  UNL     1      25.052   3.133  51.030  1.00  0.00     0.098 C 
HETATM    9  N2  UNL     1      24.833   4.313  50.423  1.00  0.00    -0.276 NA
HETATM   10  C9  UNL     1      24.000   5.461  50.598  1.00  0.00     0.237 C 
HETATM   11  C10 UNL     1      23.892   1.138  52.240  1.00  0.00     0.019 C 
HETATM   12  C11 UNL     1      22.714   0.574  52.681  1.00  0.00     0.044 C 
HETATM   13  C12 UNL     1      21.264   0.649  52.859  1.00  0.00     0.091 C 
HETATM   14  C13 UNL     1      20.551   1.920  52.665  1.00  0.00    -0.018 C 
HETATM   15  C14 UNL     1      20.880   3.212  52.446  1.00  0.00     0.025 C 
HETATM   16  C15 UNL     1      22.054   6.801  50.207  1.00  0.00     0.101 C 
HETATM   17  C16 UNL     1      21.953   7.658  49.195  1.00  0.00     0.170 C 
HETATM   18  O4  UNL     1      22.266   7.509  47.871  1.00  0.00    -0.354 OA
HETATM   19  C17 UNL     1      23.066   6.512  47.283  1.00  0.00     0.238 C 
HETATM   20  H5  UNL     1      20.823   5.045  51.786  1.00  0.00     0.161 HD
ENDROOT
BRANCH  10  21
HETATM   21  N3  UNL     1      24.186   6.127  51.870  1.00  0.00    -0.407 N 
HETATM   22  H10 UNL     1      24.629   5.576  52.602  1.00  0.00     0.152 HD
HETATM   23  H11 UNL     1      24.511   7.102  51.777  1.00  0.00     0.152 HD
ENDBRANCH  10  21
BRANCH  16  24
HETATM   24  O3  UNL     1      21.610   7.399  51.391  1.00  0.00    -0.360 OA
HETATM   25  H18 UNL     1      21.863   7.127  52.311  1.00  0.00     0.217 HD
ENDBRANCH  16  24
BRANCH   1  26
HETATM   26  O1  UNL     1      22.317   4.213  46.825  1.00  0.00    -0.358 OA
HETATM   27  C1  UNL     1      22.103   2.906  47.355  1.00  0.00     0.209 C 
ENDBRANCH   1  26
BRANCH  12  28
HETATM   28  O2  UNL     1      23.087  -0.691  53.225  1.00  0.00    -0.365 OA
HETATM   29  H13 UNL     1      23.474  -0.756  54.151  1.00  0.00     0.217 HD
ENDBRANCH  12  28
TORSDOF 4
ENDMDL
MODEL 5
REMARK VINA RESULT:      -6.9      5.866      8.708
REMARK  4 active torsions:
REMARK  status: ('A' for Active; 'I' for Inactive)
REMARK    1  A    between atoms: O1_2  and  C2_3 
REMARK    2  A    between atoms: C9_12  and  N3_13 
REMARK    3  A    between atoms: C11_15  and  O2_16 
REMARK    4  A    between atoms: C15_20  and  O3_21 
ROOT
HETATM    1  C2  UNL     1      27.425   8.782  45.977  1.00  0.00     0.069 C 
HETATM    2  C3  UNL     1      28.341   8.207  46.699  1.00  0.00     0.049 C 
HETATM    3  C4  UNL     1      28.390   8.193  48.144  1.00  0.00     0.141 C 
HETATM    4  N1  UNL     1      29.203   7.095  48.736  1.00  0.00    -0.368 N 
HETATM    5  C5  UNL     1      30.627   7.161  48.964  1.00  0.00     0.026 C 
HETATM    6  C6  UNL     1      31.483   8.181  49.252  1.00  0.00     0.016 C 
HETATM    7  C7  UNL     1      31.974   8.799  47.918  1.00  0.00     0.075 C 
HETATM    8  C8  UNL     1      31.329  10.033  47.963  1.00  0.00     0.098 C 
HETATM    9  N2  UNL     1      29.992  10.161  48.025  1.00  0.00    -0.276 NA
HETATM   10  C9  UNL     1      28.889   9.515  48.663  1.00  0.00     0.237 C 
HETATM   11  C10 UNL     1      33.276   8.306  47.835  1.00  0.00     0.019 C 
HETATM   12  C11 UNL     1      33.651   6.980  47.782  1.00  0.00     0.044 C 
HETATM   13  C12 UNL     1      33.292   5.562  47.801  1.00  0.00     0.091 C 
HETATM   14  C13 UNL     1      31.944   5.137  48.203  1.00  0.00    -0.018 C 
HETATM   15  C14 UNL     1      30.838   5.719  48.717  1.00  0.00     0.025 C 
HETATM   16  C15 UNL     1      27.067   7.966  48.787  1.00  0.00     0.101 C 
HETATM   17  C16 UNL     1      25.842   8.248  48.353  1.00  0.00     0.170 C 
HETATM   18  O4  UNL     1      25.426   8.832  47.188  1.00  0.00    -0.354 OA
HETATM   19  C17 UNL     1      26.199   9.568  46.271  1.00  0.00     0.238 C 
HETATM   20  H5  UNL     1      28.967   6.124  49.087  1.00  0.00     0.161 HD
ENDROOT
BRANCH  10  21
HETATM   21  N3  UNL     1      28.975   9.507  50.109  1.00  0.00    -0.407 N 
HETATM   22  H10 UNL     1      29.897   9.327  50.501  1.00  0.00     0.152 HD
HETATM   23  H11 UNL     1      28.433  10.264  50.554  1.00  0.00     0.152 HD
ENDBRANCH  10  21
BRANCH  16  24
HETATM   24  O3  UNL     1      27.004   7.364  50.049  1.00  0.00    -0.360 OA
HETATM   25  H18 UNL     1      26.886   7.835  50.914  1.00  0.00     0.217 HD
ENDBRANCH  16  24
BRANCH   1  26
HETATM   26  O1  UNL     1      27.724   8.574  44.616  1.00  0.00    -0.358 OA
HETATM   27  C1  UNL     1      26.609   8.713  43.738  1.00  0.00     0.209 C 
ENDBRANCH   1  26
BRANCH  12  28
HETATM   28  O2  UNL     1      35.070   7.000  47.642  1.00  0.00    -0.365 OA
HETATM   29  H13 UNL     1      35.533   7.794  47.232  1.00  0.00     0.217 HD
ENDBRANCH  12  28
TORSDOF 4
ENDMDL
MODEL 6
REMARK VINA RESULT:      -6.6      2.929      4.079
REMARK  4 active torsions:
REMARK  status: ('A' for Active; 'I' for Inactive)
REMARK    1  A    between atoms: O1_2  and  C2_3 
REMARK    2  A    between atoms: C9_12  and  N3_13 
REMARK    3  A    between atoms: C11_15  and  O2_16 
REMARK    4  A    between atoms: C15_20  and  O3_21 
ROOT
HETATM    1  C2  UNL     1      24.699   0.655  52.950  1.00  0.00     0.069 C 
HETATM    2  C3  UNL     1      24.214   1.299  51.930  1.00  0.00     0.049 C 
HETATM    3  C4  UNL     1      24.659   2.592  51.461  1.00  0.00     0.141 C 
HETATM    4  N1  UNL     1      24.328   2.895  50.041  1.00  0.00    -0.368 N 
HETATM    5  C5  UNL     1      23.082   3.469  49.594  1.00  0.00     0.026 C 
HETATM    6  C6  UNL     1      22.188   4.326  50.162  1.00  0.00     0.016 C 
HETATM    7  C7  UNL     1      21.164   3.495  50.977  1.00  0.00     0.075 C 
HETATM    8  C8  UNL     1      21.527   3.853  52.273  1.00  0.00     0.098 C 
HETATM    9  N2  UNL     1      22.753   3.632  52.780  1.00  0.00    -0.276 NA
HETATM   10  C9  UNL     1      24.112   3.684  52.340  1.00  0.00     0.237 C 
HETATM   11  C10 UNL     1      20.035   3.548  50.158  1.00  0.00     0.019 C 
HETATM   12  C11 UNL     1      19.937   3.082  48.864  1.00  0.00     0.044 C 
HETATM   13  C12 UNL     1      20.555   2.467  47.690  1.00  0.00     0.091 C 
HETATM   14  C13 UNL     1      22.015   2.333  47.598  1.00  0.00    -0.018 C 
HETATM   15  C14 UNL     1      23.091   2.746  48.305  1.00  0.00     0.025 C 
HETATM   16  C15 UNL     1      26.138   2.756  51.465  1.00  0.00     0.101 C 
HETATM   17  C16 UNL     1      27.063   2.180  52.227  1.00  0.00     0.170 C 
HETATM   18  O4  UNL     1      26.937   1.266  53.237  1.00  0.00    -0.354 OA
HETATM   19  C17 UNL     1      25.770   0.920  53.945  1.00  0.00     0.238 C 
HETATM   20  H5  UNL     1      24.857   2.777  49.130  1.00  0.00     0.161 HD
ENDROOT
BRANCH  10  21
HETATM   21  N3  UNL     1      24.521   4.990  51.865  1.00  0.00    -0.407 N 
HETATM   22  H10 UNL     1      24.622   5.087  50.857  1.00  0.00     0.152 HD
HETATM   23  H11 UNL     1      24.048   5.768  52.352  1.00  0.00     0.152 HD
ENDBRANCH  10  21
BRANCH  16  24
HETATM   24  O3  UNL     1      26.741   3.633  50.556  1.00  0.00    -0.360 OA
HETATM   25  H18 UNL     1      27.569   4.156  50.713  1.00  0.00     0.217 HD
ENDBRANCH  16  24
BRANCH   1  26
HETATM   26  O1  UNL     1      24.007  -0.564  53.087  1.00  0.00    -0.358 OA
HETATM   27  C1  UNL     1      22.586  -0.446  53.041  1.00  0.00     0.209 C 
ENDBRANCH   1  26
BRANCH  12  28
HETATM   28  O2  UNL     1      18.579   3.310  48.490  1.00  0.00    -0.365 OA
HETATM   29  H13 UNL     1      18.325   3.411  47.522  1.00  0.00     0.217 HD
ENDBRANCH  12  28
TORSDOF 4
ENDMDL
MODEL 7
REMARK VINA RESULT:      -6.4      3.452      5.247
REMARK  4 active torsions:
REMARK  status: ('A' for Active; 'I' for Inactive)
REMARK    1  A    between atoms: O1_2  and  C2_3 
REMARK    2  A    between atoms: C9_12  and  N3_13 
REMARK    3  A    between atoms: C11_15  and  O2_16 
REMARK    4  A    between atoms: C15_20  and  O3_21 
ROOT
HETATM    1  C2  UNL     1      27.705  -1.041  52.671  1.00  0.00     0.069 C 
HETATM    2  C3  UNL     1      27.083  -0.010  52.181  1.00  0.00     0.049 C 
HETATM    3  C4  UNL     1      27.123   1.332  52.719  1.00  0.00     0.141 C 
HETATM    4  N1  UNL     1      26.769   2.408  51.753  1.00  0.00    -0.368 N 
HETATM    5  C5  UNL     1      25.424   2.854  51.480  1.00  0.00     0.026 C 
HETATM    6  C6  UNL     1      24.287   2.919  52.229  1.00  0.00     0.016 C 
HETATM    7  C7  UNL     1      23.541   1.567  52.103  1.00  0.00     0.075 C 
HETATM    8  C8  UNL     1      23.727   1.059  53.387  1.00  0.00     0.098 C 
HETATM    9  N2  UNL     1      24.940   0.827  53.917  1.00  0.00    -0.276 NA
HETATM   10  C9  UNL     1      26.232   1.438  53.927  1.00  0.00     0.237 C 
HETATM   11  C10 UNL     1      22.483   1.900  51.257  1.00  0.00     0.019 C 
HETATM   12  C11 UNL     1      22.582   2.383  49.970  1.00  0.00     0.044 C 
HETATM   13  C12 UNL     1      23.404   2.831  48.846  1.00  0.00     0.091 C 
HETATM   14  C13 UNL     1      24.837   3.103  49.029  1.00  0.00    -0.018 C 
HETATM   15  C14 UNL     1      25.705   3.170  50.063  1.00  0.00     0.025 C 
HETATM   16  C15 UNL     1      28.478   1.761  53.161  1.00  0.00     0.101 C 
HETATM   17  C16 UNL     1      29.506   1.040  53.599  1.00  0.00     0.170 C 
HETATM   18  O4  UNL     1      29.631  -0.311  53.776  1.00  0.00    -0.354 OA
HETATM   19  C17 UNL     1      28.603  -1.270  53.833  1.00  0.00     0.238 C 
HETATM   20  H5  UNL     1      27.342   3.028  51.112  1.00  0.00     0.161 HD
ENDROOT
BRANCH  10  21
HETATM   21  N3  UNL     1      26.235   2.785  54.460  1.00  0.00    -0.407 N 
HETATM   22  H10 UNL     1      27.143   3.238  54.524  1.00  0.00     0.152 HD
HETATM   23  H11 UNL     1      25.461   3.367  54.102  1.00  0.00     0.152 HD
ENDBRANCH  10  21
BRANCH  16  24
HETATM   24  O3  UNL     1      28.813   3.119  53.147  1.00  0.00    -0.360 OA
HETATM   25  H18 UNL     1      28.701   3.739  52.381  1.00  0.00     0.217 HD
ENDBRANCH  16  24
BRANCH   1  26
HETATM   26  O1  UNL     1      27.419  -2.165  51.871  1.00  0.00    -0.358 OA
HETATM   27  C1  UNL     1      26.028  -2.420  51.685  1.00  0.00     0.209 C 
ENDBRANCH   1  26
BRANCH  12  28
HETATM   28  O2  UNL     1      21.236   2.506  49.514  1.00  0.00    -0.365 OA
HETATM   29  H13 UNL     1      20.989   3.199  48.828  1.00  0.00     0.217 HD
ENDBRANCH  12  28
TORSDOF 4
ENDMDL
MODEL 8
REMARK VINA RESULT:      -6.4      3.098      4.744
REMARK  4 active torsions:
REMARK  status: ('A' for Active; 'I' for Inactive)
REMARK    1  A    between atoms: O1_2  and  C2_3 
REMARK    2  A    between atoms: C9_12  and  N3_13 
REMARK    3  A    between atoms: C11_15  and  O2_16 
REMARK    4  A    between atoms: C15_20  and  O3_21 
ROOT
HETATM    1  C2  UNL     1      19.753   2.990  51.911  1.00  0.00     0.069 C 
HETATM    2  C3  UNL     1      20.498   3.911  51.375  1.00  0.00     0.049 C 
HETATM    3  C4  UNL     1      20.206   4.621  50.149  1.00  0.00     0.141 C 
HETATM    4  N1  UNL     1      20.903   5.929  49.999  1.00  0.00    -0.368 N 
HETATM    5  C5  UNL     1      22.229   6.093  49.454  1.00  0.00     0.026 C 
HETATM    6  C6  UNL     1      22.952   5.408  48.524  1.00  0.00     0.016 C 
HETATM    7  C7  UNL     1      23.715   4.266  49.240  1.00  0.00     0.075 C 
HETATM    8  C8  UNL     1      23.027   3.159  48.749  1.00  0.00     0.098 C 
HETATM    9  N2  UNL     1      21.709   2.971  48.935  1.00  0.00    -0.276 NA
HETATM   10  C9  UNL     1      20.514   3.756  48.957  1.00  0.00     0.237 C 
HETATM   11  C10 UNL     1      25.020   4.759  49.257  1.00  0.00     0.019 C 
HETATM   12  C11 UNL     1      25.451   5.921  49.860  1.00  0.00     0.044 C 
HETATM   13  C12 UNL     1      25.158   7.141  50.612  1.00  0.00     0.091 C 
HETATM   14  C13 UNL     1      23.771   7.599  50.782  1.00  0.00    -0.018 C 
HETATM   15  C14 UNL     1      22.552   7.251  50.315  1.00  0.00     0.025 C 
HETATM   16  C15 UNL     1      18.780   5.025  50.013  1.00  0.00     0.101 C 
HETATM   17  C16 UNL     1      17.680   4.474  50.519  1.00  0.00     0.170 C 
HETATM   18  O4  UNL     1      17.525   3.371  51.314  1.00  0.00    -0.354 OA
HETATM   19  C17 UNL     1      18.461   2.348  51.558  1.00  0.00     0.238 C 
HETATM   20  H5  UNL     1      20.632   6.928  50.226  1.00  0.00     0.161 HD
ENDROOT
BRANCH  10  21
HETATM   21  N3  UNL     1      20.259   4.464  47.720  1.00  0.00    -0.407 N 
HETATM   22  H10 UNL     1      20.962   5.146  47.442  1.00  0.00     0.152 HD
HETATM   23  H11 UNL     1      19.895   3.856  46.969  1.00  0.00     0.152 HD
ENDBRANCH  10  21
BRANCH  16  24
HETATM   24  O3  UNL     1      18.448   6.152  49.253  1.00  0.00    -0.360 OA
HETATM   25  H18 UNL     1      19.086   6.729  48.758  1.00  0.00     0.217 HD
ENDBRANCH  16  24
BRANCH   1  26
HETATM   26  O1  UNL     1      20.372   2.541  53.095  1.00  0.00    -0.358 OA
HETATM   27  C1  UNL     1      20.582   1.132  53.155  1.00  0.00     0.209 C 
ENDBRANCH   1  26
BRANCH  12  28
HETATM   28  O2  UNL     1      26.862   5.948  49.650  1.00  0.00    -0.365 OA
HETATM   29  H13 UNL     1      27.243   5.856  48.724  1.00  0.00     0.217 HD
ENDBRANCH  12  28
TORSDOF 4
ENDMDL
MODEL 9
REMARK VINA RESULT:      -6.3      2.249      3.001
REMARK  4 active torsions:
REMARK  status: ('A' for Active; 'I' for Inactive)
REMARK    1  A    between atoms: O1_2  and  C2_3 
REMARK    2  A    between atoms: C9_12  and  N3_13 
REMARK    3  A    between atoms: C11_15  and  O2_16 
REMARK    4  A    between atoms: C15_20  and  O3_21 
ROOT
HETATM    1  C2  UNL     1      22.125   4.710  48.686  1.00  0.00     0.069 C 
HETATM    2  C3  UNL     1      23.328   5.194  48.789  1.00  0.00     0.049 C 
HETATM    3  C4  UNL     1      24.068   5.354  50.021  1.00  0.00     0.141 C 
HETATM    4  N1  UNL     1      25.546   5.444  49.860  1.00  0.00    -0.368 N 
HETATM    5  C5  UNL     1      26.267   6.665  49.591  1.00  0.00     0.026 C 
HETATM    6  C6  UNL     1      26.052   7.971  49.911  1.00  0.00     0.016 C 
HETATM    7  C7  UNL     1      25.169   8.607  48.807  1.00  0.00     0.075 C 
HETATM    8  C8  UNL     1      23.981   8.787  49.511  1.00  0.00     0.098 C 
HETATM    9  N2  UNL     1      23.297   7.774  50.072  1.00  0.00    -0.276 NA
HETATM   10  C9  UNL     1      23.577   6.561  50.774  1.00  0.00     0.237 C 
HETATM   11  C10 UNL     1      26.095   9.381  48.109  1.00  0.00     0.019 C 
HETATM   12  C11 UNL     1      27.223   8.926  47.458  1.00  0.00     0.044 C 
HETATM   13  C12 UNL     1      28.114   7.827  47.089  1.00  0.00     0.091 C 
HETATM   14  C13 UNL     1      28.001   6.519  47.750  1.00  0.00    -0.018 C 
HETATM   15  C14 UNL     1      27.310   5.993  48.786  1.00  0.00     0.025 C 
HETATM   16  C15 UNL     1      23.939   4.201  50.954  1.00  0.00     0.101 C 
HETATM   17  C16 UNL     1      22.951   3.323  51.100  1.00  0.00     0.170 C 
HETATM   18  O4  UNL     1      21.756   3.213  50.443  1.00  0.00    -0.354 OA
HETATM   19  C17 UNL     1      21.120   4.183  49.645  1.00  0.00     0.238 C 
HETATM   20  H5  UNL     1      26.326   4.729  49.898  1.00  0.00     0.161 HD
ENDROOT
BRANCH  10  21
HETATM   21  N3  UNL     1      24.330   6.756  51.995  1.00  0.00    -0.407 N 
HETATM   22  H10 UNL     1      24.310   5.986  52.660  1.00  0.00     0.152 HD
HETATM   23  H11 UNL     1      25.250   7.199  51.842  1.00  0.00     0.152 HD
ENDBRANCH  10  21
BRANCH  16  24
HETATM   24  O3  UNL     1      24.972   3.918  51.853  1.00  0.00    -0.360 OA
HETATM   25  H18 UNL     1      25.733   3.303  51.692  1.00  0.00     0.217 HD
ENDBRANCH  16  24
BRANCH   1  26
HETATM   26  O1  UNL     1      21.751   4.715  47.327  1.00  0.00    -0.358 OA
HETATM   27  C1  UNL     1      21.944   3.471  46.656  1.00  0.00     0.209 C 
ENDBRANCH   1  26
BRANCH  12  28
HETATM   28  O2  UNL     1      27.796  10.084  46.854  1.00  0.00    -0.365 OA
HETATM   29  H13 UNL     1      28.790  10.151  46.717  1.00  0.00     0.217 HD
ENDBRANCH  12  28
TORSDOF 4
ENDMDL
