MODEL 1
REMARK VINA RESULT:      -8.5      0.000      0.000
REMARK  2 active torsions:
REMARK  status: ('A' for Active; 'I' for Inactive)
REMARK    1  A    between atoms: C1_2  and  C4_7 
REMARK    2  A    between atoms: C4_7  and  C5_8 
ROOT
HETATM    1  C5  UNL     1      25.701   3.244  50.901  1.00  0.00     0.228 C 
HETATM    2  C6  UNL     1      25.635   3.784  49.457  1.00  0.00     0.054 C 
HETATM    3  C7  UNL     1      27.004   4.183  49.046  1.00  0.00     0.033 A 
HETATM    4  C8  UNL     1      26.827   5.751  48.613  1.00  0.00     0.064 A 
HETATM    5  C9  UNL     1      27.327   7.363  48.027  1.00  0.00     0.043 A 
HETATM    6  C10 UNL     1      29.024   6.692  47.866  1.00  0.00     0.040 A 
HETATM    7  C11 UNL     1      28.259   5.694  48.327  1.00  0.00    -0.043 A 
HETATM    8  C12 UNL     1      27.709   5.014  48.648  1.00  0.00    -0.031 A 
HETATM    9  N1  UNL     1      25.466   6.310  48.664  1.00  0.00    -0.369 N 
HETATM   10  C13 UNL     1      24.622   7.062  49.513  1.00  0.00     0.205 C 
HETATM   11  N2  UNL     1      24.056   7.178  50.642  1.00  0.00    -0.238 NA
HETATM   12  C14 UNL     1      24.231   6.195  51.650  1.00  0.00     0.229 C 
HETATM   13  N3  UNL     1      23.638   5.148  51.160  1.00  0.00    -0.253 NA
HETATM   14  C15 UNL     1      23.593   3.909  51.891  1.00  0.00     0.419 C 
HETATM   15  N4  UNL     1      24.376   2.869  51.261  1.00  0.00     0.107 N 
HETATM   16  H12 UNL     1      25.057   6.012  47.740  1.00  0.00     0.161 HD
HETATM   17  H17 UNL     1      23.810   2.587  50.404  1.00  0.00     0.318 HD
ENDROOT
BRANCH   1  18
HETATM   18  C4  UNL     1      26.556   1.978  50.752  1.00  0.00     0.086 C 
BRANCH  18  19
HETATM   19  C1  UNL     1      26.841   1.372  52.067  1.00  0.00     0.007 C 
HETATM   20 CL1  UNL     1      27.704   2.355  53.223  1.00  0.00    -0.115 Cl
HETATM   21 BR1  UNL     1      28.030   0.268  54.720  1.00  0.00    -0.043 Br
HETATM   22  C3  UNL     1      26.691  -0.547  53.623  1.00  0.00     0.182 C 
HETATM   23  C2  UNL     1      26.451   0.134  52.344  1.00  0.00     0.024 C 
HETATM   24 CL2  UNL     1      25.173  -0.666  54.568  1.00  0.00    -0.108 Cl
ENDBRANCH  18  19
ENDBRANCH   1  18
TORSDOF 2
ENDMDL
MODEL 2
REMARK VINA RESULT:      -8.3      4.129      7.218
REMARK  2 active torsions:
REMARK  status: ('A' for Active; 'I' for Inactive)
REMARK    1  A    between atoms: C1_2  and  C4_7 
REMARK    2  A    between atoms: C4_7  and  C5_8 
ROOT
HETATM    1  C5  UNL     1      23.835   0.240  52.871  1.00  0.00     0.228 C 
HETATM    2  C6  UNL     1      22.547   0.726  53.569  1.00  0.00     0.054 C 
HETATM    3  C7  UNL     1      21.735  -0.463  53.929  1.00  0.00     0.033 A 
HETATM    4  C8  UNL     1      20.298  -0.175  53.201  1.00  0.00     0.064 A 
HETATM    5  C9  UNL     1      18.608  -0.487  52.714  1.00  0.00     0.043 A 
HETATM    6  C10 UNL     1      18.711  -2.058  53.652  1.00  0.00     0.040 A 
HETATM    7  C11 UNL     1      19.902  -1.458  53.777  1.00  0.00    -0.043 A 
HETATM    8  C12 UNL     1      20.723  -1.024  53.850  1.00  0.00    -0.031 A 
HETATM    9  N1  UNL     1      20.152   1.109  52.494  1.00  0.00    -0.369 N 
HETATM   10  C13 UNL     1      20.251   1.661  51.196  1.00  0.00     0.205 C 
HETATM   11  N2  UNL     1      20.958   1.868  50.165  1.00  0.00    -0.238 NA
HETATM   12  C14 UNL     1      22.299   1.408  50.095  1.00  0.00     0.229 C 
HETATM   13  N3  UNL     1      22.913   2.125  50.988  1.00  0.00    -0.253 NA
HETATM   14  C15 UNL     1      24.321   1.958  51.235  1.00  0.00     0.419 C 
HETATM   15  N4  UNL     1      24.588   1.401  52.543  1.00  0.00     0.107 N 
HETATM   16  H12 UNL     1      19.890   1.773  53.268  1.00  0.00     0.161 HD
HETATM   17  H17 UNL     1      24.385   2.196  53.222  1.00  0.00     0.318 HD
ENDROOT
BRANCH   1  18
HETATM   18  C4  UNL     1      24.558  -0.527  53.987  1.00  0.00     0.086 C 
BRANCH  18  19
HETATM   19  C1  UNL     1      26.022  -0.445  53.825  1.00  0.00     0.007 C 
HETATM   20 CL1  UNL     1      26.729  -1.365  52.521  1.00  0.00    -0.115 Cl
HETATM   21 BR1  UNL     1      29.081  -0.895  53.495  1.00  0.00    -0.043 Br
HETATM   22  C3  UNL     1      28.215   0.441  54.555  1.00  0.00     0.182 C 
HETATM   23  C2  UNL     1      26.755   0.300  54.642  1.00  0.00     0.024 C 
HETATM   24 CL2  UNL     1      28.655   2.055  53.913  1.00  0.00    -0.108 Cl
ENDBRANCH  18  19
ENDBRANCH   1  18
TORSDOF 2
ENDMDL
MODEL 3
REMARK VINA RESULT:      -8.0      4.073      7.527
REMARK  2 active torsions:
REMARK  status: ('A' for Active; 'I' for Inactive)
REMARK    1  A    between atoms: C1_2  and  C4_7 
REMARK    2  A    between atoms: C4_7  and  C5_8 
ROOT
HETATM    1  C5  UNL     1      24.870   2.399  51.665  1.00  0.00     0.228 C 
HETATM    2  C6  UNL     1      24.291   0.970  51.705  1.00  0.00     0.054 C 
HETATM    3  C7  UNL     1      22.906   1.041  52.233  1.00  0.00     0.033 A 
HETATM    4  C8  UNL     1      22.937   0.028  53.517  1.00  0.00     0.064 A 
HETATM    5  C9  UNL     1      22.299  -0.853  54.934  1.00  0.00     0.043 A 
HETATM    6  C10 UNL     1      20.688  -0.041  54.615  1.00  0.00     0.040 A 
HETATM    7  C11 UNL     1      21.532   0.399  53.673  1.00  0.00    -0.043 A 
HETATM    8  C12 UNL     1      22.136   0.692  53.027  1.00  0.00    -0.031 A 
HETATM    9  N1  UNL     1      24.194  -0.697  53.767  1.00  0.00    -0.369 N 
HETATM   10  C13 UNL     1      25.367  -0.615  54.552  1.00  0.00     0.205 C 
HETATM   11  N2  UNL     1      26.392   0.049  54.892  1.00  0.00    -0.238 NA
HETATM   12  C14 UNL     1      26.653   1.326  54.329  1.00  0.00     0.229 C 
HETATM   13  N3  UNL     1      26.907   1.062  53.083  1.00  0.00    -0.253 NA
HETATM   14  C15 UNL     1      27.225   2.111  52.150  1.00  0.00     0.419 C 
HETATM   15  N4  UNL     1      26.193   2.293  51.153  1.00  0.00     0.107 N 
HETATM   16  H12 UNL     1      24.120  -1.524  53.120  1.00  0.00     0.161 HD
HETATM   17  H17 UNL     1      26.290   1.452  50.508  1.00  0.00     0.318 HD
ENDROOT
BRANCH   1  18
HETATM   18  C4  UNL     1      23.984   3.096  50.623  1.00  0.00     0.086 C 
BRANCH  18  19
HETATM   19  C1  UNL     1      24.365   4.513  50.465  1.00  0.00     0.007 C 
HETATM   20 CL1  UNL     1      25.431   4.904  49.139  1.00  0.00    -0.115 Cl
HETATM   21 BR1  UNL     1      25.752   7.276  50.126  1.00  0.00    -0.043 Br
HETATM   22  C3  UNL     1      24.235   6.867  51.218  1.00  0.00     0.182 C 
HETATM   23  C2  UNL     1      23.909   5.437  51.300  1.00  0.00     0.024 C 
HETATM   24 CL2  UNL     1      22.829   7.800  50.616  1.00  0.00    -0.108 Cl
ENDBRANCH  18  19
ENDBRANCH   1  18
TORSDOF 2
ENDMDL
MODEL 4
REMARK VINA RESULT:      -7.7      1.754      2.168
REMARK  2 active torsions:
REMARK  status: ('A' for Active; 'I' for Inactive)
REMARK    1  A    between atoms: C1_2  and  C4_7 
REMARK    2  A    between atoms: C4_7  and  C5_8 
ROOT
HETATM    1  C5  UNL     1      23.555   2.449  51.710  1.00  0.00     0.228 C 
HETATM    2  C6  UNL     1      23.757   2.759  50.212  1.00  0.00     0.054 C 
HETATM    3  C7  UNL     1      25.207   2.959  49.968  1.00  0.00     0.033 A 
HETATM    4  C8  UNL     1      25.278   4.449  49.296  1.00  0.00     0.064 A 
HETATM    5  C9  UNL     1      26.039   5.895  48.574  1.00  0.00     0.043 A 
HETATM    6  C10 UNL     1      27.652   5.050  48.778  1.00  0.00     0.040 A 
HETATM    7  C11 UNL     1      26.719   4.213  49.249  1.00  0.00    -0.043 A 
HETATM    8  C12 UNL     1      26.053   3.647  49.573  1.00  0.00    -0.031 A 
HETATM    9  N1  UNL     1      23.997   5.134  49.053  1.00  0.00    -0.369 N 
HETATM   10  C13 UNL     1      23.135   6.086  49.645  1.00  0.00     0.205 C 
HETATM   11  N2  UNL     1      22.433   6.430  50.643  1.00  0.00    -0.238 NA
HETATM   12  C14 UNL     1      22.349   5.605  51.795  1.00  0.00     0.229 C 
HETATM   13  N3  UNL     1      21.712   4.555  51.370  1.00  0.00    -0.253 NA
HETATM   14  C15 UNL     1      21.421   3.456  52.253  1.00  0.00     0.419 C 
HETATM   15  N4  UNL     1      22.158   2.261  51.906  1.00  0.00     0.107 N 
HETATM   16  H12 UNL     1      23.691   4.735  48.128  1.00  0.00     0.161 HD
HETATM   17  H17 UNL     1      21.690   1.902  51.019  1.00  0.00     0.318 HD
ENDROOT
BRANCH   1  18
HETATM   18  C4  UNL     1      24.269   1.100  51.877  1.00  0.00     0.086 C 
BRANCH  18  19
HETATM   19  C1  UNL     1      25.596   1.276  52.499  1.00  0.00     0.007 C 
HETATM   20 CL1  UNL     1      25.738   2.506  53.729  1.00  0.00    -0.115 Cl
HETATM   21 BR1  UNL     1      28.313   2.248  53.658  1.00  0.00    -0.043 Br
HETATM   22  C3  UNL     1      27.977   0.631  52.692  1.00  0.00     0.182 C 
HETATM   23  C2  UNL     1      26.625   0.525  52.129  1.00  0.00     0.024 C 
HETATM   24 CL2  UNL     1      28.322  -0.760  53.769  1.00  0.00    -0.108 Cl
ENDBRANCH  18  19
ENDBRANCH   1  18
TORSDOF 2
ENDMDL
MODEL 5
REMARK VINA RESULT:      -7.7      2.197      3.304
REMARK  2 active torsions:
REMARK  status: ('A' for Active; 'I' for Inactive)
REMARK    1  A    between atoms: C1_2  and  C4_7 
REMARK    2  A    between atoms: C4_7  and  C5_8 
ROOT
HETATM    1  C5  UNL     1      25.700   5.865  49.657  1.00  0.00     0.228 C 
HETATM    2  C6  UNL     1      26.477   6.278  48.389  1.00  0.00     0.054 C 
HETATM    3  C7  UNL     1      27.747   5.512  48.349  1.00  0.00     0.033 A 
HETATM    4  C8  UNL     1      28.891   6.678  48.260  1.00  0.00     0.064 A 
HETATM    5  C9  UNL     1      30.538   7.364  48.163  1.00  0.00     0.043 A 
HETATM    6  C10 UNL     1      31.170   5.645  48.180  1.00  0.00     0.040 A 
HETATM    7  C11 UNL     1      29.835   5.563  48.247  1.00  0.00    -0.043 A 
HETATM    8  C12 UNL     1      28.905   5.528  48.293  1.00  0.00    -0.031 A 
HETATM    9  N1  UNL     1      28.421   8.071  48.175  1.00  0.00    -0.369 N 
HETATM   10  C13 UNL     1      28.178   9.196  48.996  1.00  0.00     0.205 C 
HETATM   11  N2  UNL     1      27.570   9.692  49.992  1.00  0.00    -0.238 NA
HETATM   12  C14 UNL     1      26.674   8.907  50.764  1.00  0.00     0.229 C 
HETATM   13  N3  UNL     1      25.695   8.670  49.944  1.00  0.00    -0.253 NA
HETATM   14  C15 UNL     1      24.558   7.885  50.351  1.00  0.00     0.419 C 
HETATM   15  N4  UNL     1      24.492   6.615  49.661  1.00  0.00     0.107 N 
HETATM   16  H12 UNL     1      28.225   8.189  47.147  1.00  0.00     0.161 HD
HETATM   17  H17 UNL     1      24.188   6.861  48.671  1.00  0.00     0.318 HD
ENDROOT
BRANCH   1  18
HETATM   18  C4  UNL     1      25.373   4.390  49.390  1.00  0.00     0.086 C 
BRANCH  18  19
HETATM   19  C1  UNL     1      25.454   3.595  50.630  1.00  0.00     0.007 C 
HETATM   20 CL1  UNL     1      24.043   3.581  51.657  1.00  0.00    -0.115 Cl
HETATM   21 BR1  UNL     1      25.438   2.447  53.520  1.00  0.00    -0.043 Br
HETATM   22  C3  UNL     1      26.727   2.111  52.147  1.00  0.00     0.182 C 
HETATM   23  C2  UNL     1      26.558   2.925  50.937  1.00  0.00     0.024 C 
HETATM   24 CL2  UNL     1      26.687   0.365  51.743  1.00  0.00    -0.108 Cl
ENDBRANCH  18  19
ENDBRANCH   1  18
TORSDOF 2
ENDMDL
MODEL 6
REMARK VINA RESULT:      -7.7      2.925      5.792
REMARK  2 active torsions:
REMARK  status: ('A' for Active; 'I' for Inactive)
REMARK    1  A    between atoms: C1_2  and  C4_7 
REMARK    2  A    between atoms: C4_7  and  C5_8 
ROOT
HETATM    1  C5  UNL     1      25.307   2.632  51.833  1.00  0.00     0.228 C 
HETATM    2  C6  UNL     1      23.985   2.757  52.619  1.00  0.00     0.054 C 
HETATM    3  C7  UNL     1      23.714   1.459  53.286  1.00  0.00     0.033 A 
HETATM    4  C8  UNL     1      22.227   1.055  52.736  1.00  0.00     0.064 A 
HETATM    5  C9  UNL     1      20.752   0.062  52.557  1.00  0.00     0.043 A 
HETATM    6  C10 UNL     1      21.511  -1.134  53.717  1.00  0.00     0.040 A 
HETATM    7  C11 UNL     1      22.390  -0.135  53.568  1.00  0.00    -0.043 A 
HETATM    8  C12 UNL     1      22.988   0.570  53.449  1.00  0.00    -0.031 A 
HETATM    9  N1  UNL     1      21.554   2.023  51.854  1.00  0.00    -0.369 N 
HETATM   10  C13 UNL     1      21.342   2.291  50.482  1.00  0.00     0.205 C 
HETATM   11  N2  UNL     1      21.841   2.518  49.339  1.00  0.00    -0.238 NA
HETATM   12  C14 UNL     1      23.247   2.566  49.154  1.00  0.00     0.229 C 
HETATM   13  N3  UNL     1      23.605   3.624  49.817  1.00  0.00    -0.253 NA
HETATM   14  C15 UNL     1      24.985   4.030  49.882  1.00  0.00     0.419 C 
HETATM   15  N4  UNL     1      25.537   3.891  51.212  1.00  0.00     0.107 N 
HETATM   16  H12 UNL     1      21.115   2.694  52.536  1.00  0.00     0.161 HD
HETATM   17  H17 UNL     1      25.096   4.682  51.771  1.00  0.00     0.318 HD
ENDROOT
BRANCH   1  18
HETATM   18  C4  UNL     1      26.346   2.426  52.945  1.00  0.00     0.086 C 
BRANCH  18  19
HETATM   19  C1  UNL     1      26.917   1.067  52.892  1.00  0.00     0.007 C 
HETATM   20 CL1  UNL     1      26.490   0.080  51.517  1.00  0.00    -0.115 Cl
HETATM   21 BR1  UNL     1      27.528  -1.977  52.698  1.00  0.00    -0.043 Br
HETATM   22  C3  UNL     1      28.330  -0.707  53.883  1.00  0.00     0.182 C 
HETATM   23  C2  UNL     1      27.718   0.628  53.854  1.00  0.00     0.024 C 
HETATM   24 CL2  UNL     1      30.081  -0.606  53.511  1.00  0.00    -0.108 Cl
ENDBRANCH  18  19
ENDBRANCH   1  18
TORSDOF 2
ENDMDL
MODEL 7
REMARK VINA RESULT:      -7.2      3.666      6.828
REMARK  2 active torsions:
REMARK  status: ('A' for Active; 'I' for Inactive)
REMARK    1  A    between atoms: C1_2  and  C4_7 
REMARK    2  A    between atoms: C4_7  and  C5_8 
ROOT
HETATM    1  C5  UNL     1      22.859   4.176  50.899  1.00  0.00     0.228 C 
HETATM    2  C6  UNL     1      22.454   3.451  52.199  1.00  0.00     0.054 C 
HETATM    3  C7  UNL     1      23.620   2.669  52.681  1.00  0.00     0.033 A 
HETATM    4  C8  UNL     1      23.036   1.145  52.790  1.00  0.00     0.064 A 
HETATM    5  C9  UNL     1      23.069  -0.611  53.117  1.00  0.00     0.043 A 
HETATM    6  C10 UNL     1      24.827  -0.409  53.592  1.00  0.00     0.040 A 
HETATM    7  C11 UNL     1      24.383   0.805  53.242  1.00  0.00    -0.043 A 
HETATM    8  C12 UNL     1      24.053   1.640  52.993  1.00  0.00    -0.031 A 
HETATM    9  N1  UNL     1      21.609   0.952  52.482  1.00  0.00    -0.369 N 
HETATM   10  C13 UNL     1      20.760   0.571  51.417  1.00  0.00     0.205 C 
HETATM   11  N2  UNL     1      20.363   0.773  50.230  1.00  0.00    -0.238 NA
HETATM   12  C14 UNL     1      20.906   1.828  49.450  1.00  0.00     0.229 C 
HETATM   13  N3  UNL     1      20.491   2.899  50.056  1.00  0.00    -0.253 NA
HETATM   14  C15 UNL     1      20.834   4.209  49.570  1.00  0.00     0.419 C 
HETATM   15  N4  UNL     1      21.722   4.915  50.468  1.00  0.00     0.107 N 
HETATM   16  H12 UNL     1      21.139   1.194  53.393  1.00  0.00     0.161 HD
HETATM   17  H17 UNL     1      21.107   5.191  51.293  1.00  0.00     0.318 HD
ENDROOT
BRANCH   1  18
HETATM   18  C4  UNL     1      23.940   5.154  51.377  1.00  0.00     0.086 C 
BRANCH  18  19
HETATM   19  C1  UNL     1      25.015   5.289  50.376  1.00  0.00     0.007 C 
HETATM   20 CL1  UNL     1      25.586   3.822  49.623  1.00  0.00    -0.115 Cl
HETATM   21 BR1  UNL     1      27.570   5.140  48.610  1.00  0.00    -0.043 Br
HETATM   22  C3  UNL     1      26.584   6.707  49.090  1.00  0.00     0.182 C 
HETATM   23  C2  UNL     1      25.515   6.480  50.072  1.00  0.00     0.024 C 
HETATM   24 CL2  UNL     1      25.921   7.444  47.597  1.00  0.00    -0.108 Cl
ENDBRANCH  18  19
ENDBRANCH   1  18
TORSDOF 2
ENDMDL
MODEL 8
REMARK VINA RESULT:      -7.1      4.867      6.230
REMARK  2 active torsions:
REMARK  status: ('A' for Active; 'I' for Inactive)
REMARK    1  A    between atoms: C1_2  and  C4_7 
REMARK    2  A    between atoms: C4_7  and  C5_8 
ROOT
HETATM    1  C5  UNL     1      23.668   1.104  53.134  1.00  0.00     0.228 C 
HETATM    2  C6  UNL     1      22.896   1.045  51.800  1.00  0.00     0.054 C 
HETATM    3  C7  UNL     1      22.476   2.423  51.442  1.00  0.00     0.033 A 
HETATM    4  C8  UNL     1      20.853   2.293  51.276  1.00  0.00     0.064 A 
HETATM    5  C9  UNL     1      19.183   2.839  50.955  1.00  0.00     0.043 A 
HETATM    6  C10 UNL     1      19.870   4.512  50.665  1.00  0.00     0.040 A 
HETATM    7  C11 UNL     1      20.906   3.720  50.965  1.00  0.00    -0.043 A 
HETATM    8  C12 UNL     1      21.613   3.151  51.177  1.00  0.00    -0.031 A 
HETATM    9  N1  UNL     1      20.270   0.950  51.434  1.00  0.00    -0.369 N 
HETATM   10  C13 UNL     1      19.643   0.137  52.406  1.00  0.00     0.205 C 
HETATM   11  N2  UNL     1      19.697  -0.416  53.546  1.00  0.00    -0.238 NA
HETATM   12  C14 UNL     1      20.838  -0.264  54.377  1.00  0.00     0.229 C 
HETATM   13  N3  UNL     1      21.771  -0.895  53.729  1.00  0.00    -0.253 NA
HETATM   14  C15 UNL     1      23.112  -0.974  54.247  1.00  0.00     0.419 C 
HETATM   15  N4  UNL     1      24.057  -0.229  53.444  1.00  0.00     0.107 N 
HETATM   16  H12 UNL     1      20.399   0.525  50.480  1.00  0.00     0.161 HD
HETATM   17  H17 UNL     1      24.177  -0.810  52.560  1.00  0.00     0.318 HD
ENDROOT
BRANCH   1  18
HETATM   18  C4  UNL     1      24.918   1.917  52.769  1.00  0.00     0.086 C 
BRANCH  18  19
HETATM   19  C1  UNL     1      26.147   1.139  53.011  1.00  0.00     0.007 C 
HETATM   20 CL1  UNL     1      26.728   0.144  51.700  1.00  0.00    -0.115 Cl
HETATM   21 BR1  UNL     1      28.397  -0.985  53.325  1.00  0.00    -0.043 Br
HETATM   22  C3  UNL     1      28.000   0.466  54.508  1.00  0.00     0.182 C 
HETATM   23  C2  UNL     1      26.773   1.204  54.179  1.00  0.00     0.024 C 
HETATM   24 CL2  UNL     1      29.409   1.572  54.548  1.00  0.00    -0.108 Cl
ENDBRANCH  18  19
ENDBRANCH   1  18
TORSDOF 2
ENDMDL
MODEL 9
REMARK VINA RESULT:      -6.9      4.035      6.911
REMARK  2 active torsions:
REMARK  status: ('A' for Active; 'I' for Inactive)
REMARK    1  A    between atoms: C1_2  and  C4_7 
REMARK    2  A    between atoms: C4_7  and  C5_8 
ROOT
HETATM    1  C5  UNL     1      23.586   2.609  50.246  1.00  0.00     0.228 C 
HETATM    2  C6  UNL     1      24.185   2.515  51.666  1.00  0.00     0.054 C 
HETATM    3  C7  UNL     1      25.471   1.780  51.582  1.00  0.00     0.033 A 
HETATM    4  C8  UNL     1      25.268   0.541  52.631  1.00  0.00     0.064 A 
HETATM    5  C9  UNL     1      25.702  -0.936  53.538  1.00  0.00     0.043 A 
HETATM    6  C10 UNL     1      27.324  -0.887  52.688  1.00  0.00     0.040 A 
HETATM    7  C11 UNL     1      26.624   0.163  52.238  1.00  0.00    -0.043 A 
HETATM    8  C12 UNL     1      26.118   0.886  51.938  1.00  0.00    -0.031 A 
HETATM    9  N1  UNL     1      24.004   0.504  53.386  1.00  0.00    -0.369 N 
HETATM   10  C13 UNL     1      22.724  -0.094  53.348  1.00  0.00     0.205 C 
HETATM   11  N2  UNL     1      21.644  -0.289  52.713  1.00  0.00    -0.238 NA
HETATM   12  C14 UNL     1      21.442   0.276  51.426  1.00  0.00     0.229 C 
HETATM   13  N3  UNL     1      21.388   1.553  51.661  1.00  0.00    -0.253 NA
HETATM   14  C15 UNL     1      21.192   2.497  50.592  1.00  0.00     0.419 C 
HETATM   15  N4  UNL     1      22.360   3.320  50.364  1.00  0.00     0.107 N 
HETATM   16  H12 UNL     1      24.196   1.152  54.193  1.00  0.00     0.161 HD
HETATM   17  H17 UNL     1      22.382   3.992  51.189  1.00  0.00     0.318 HD
ENDROOT
BRANCH   1  18
HETATM   18  C4  UNL     1      24.605   3.486  49.505  1.00  0.00     0.086 C 
BRANCH  18  19
HETATM   19  C1  UNL     1      24.142   4.884  49.426  1.00  0.00     0.007 C 
HETATM   20 CL1  UNL     1      24.453   5.902  50.810  1.00  0.00    -0.115 Cl
HETATM   21 BR1  UNL     1      22.892   7.707  49.806  1.00  0.00    -0.043 Br
HETATM   22  C3  UNL     1      23.027   6.708  48.179  1.00  0.00     0.182 C 
HETATM   23  C2  UNL     1      23.520   5.334  48.344  1.00  0.00     0.024 C 
HETATM   24 CL2  UNL     1      24.065   7.617  47.035  1.00  0.00    -0.108 Cl
ENDBRANCH  18  19
ENDBRANCH   1  18
TORSDOF 2
ENDMDL
