MODEL 1
REMARK VINA RESULT:      -8.4      0.000      0.000
REMARK  4 active torsions:
REMARK  status: ('A' for Active; 'I' for Inactive)
REMARK    1  A    between atoms: C11_15  and  N4_16 
REMARK       I    between atoms: N4_16  and  C12_17 
REMARK    2  A    between atoms: C12_17  and  C13_19 
REMARK    3  A    between atoms: C14_20  and  C15_21 
REMARK    4  A    between atoms: C15_21  and  N5_22 
ROOT
HETATM    1  C1  UNL     1      32.374   8.383  44.655  1.00  0.00     0.064 C 
HETATM    2  C2  UNL     1      32.049   7.316  45.418  1.00  0.00     0.029 C 
HETATM    3  C3  UNL     1      33.070   6.206  45.462  1.00  0.00     0.099 C 
HETATM    4  F1  UNL     1      34.197   6.495  44.704  1.00  0.00    -0.211 F 
HETATM    5  C4  UNL     1      33.220   4.978  46.032  1.00  0.00     0.031 C 
HETATM    6  C5  UNL     1      32.632   3.912  46.897  1.00  0.00     0.151 C 
HETATM    7  N1  UNL     1      33.383   3.681  48.114  1.00  0.00    -0.371 N 
HETATM    8  C6  UNL     1      34.199   4.787  48.376  1.00  0.00     0.131 A 
HETATM    9  N2  UNL     1      35.294   5.441  48.545  1.00  0.00    -0.225 NA
HETATM   10  C7  UNL     1      35.550   6.732  48.661  1.00  0.00     0.230 A 
HETATM   11  N3  UNL     1      34.490   7.526  48.594  1.00  0.00    -0.262 NA
HETATM   12  C8  UNL     1      33.182   7.289  48.437  1.00  0.00     0.114 A 
HETATM   13  C9  UNL     1      32.530   8.388  48.485  1.00  0.00     0.026 A 
HETATM   14  C10 UNL     1      31.698   7.211  48.586  1.00  0.00     0.111 A 
HETATM   15  C11 UNL     1      30.932   6.073  48.681  1.00  0.00     0.065 A 
HETATM   16  C18 UNL     1      32.234   6.108  48.548  1.00  0.00     0.181 A 
HETATM   17  C19 UNL     1      33.658   6.056  48.404  1.00  0.00     0.013 A 
HETATM   18  O2  UNL     1      30.823   8.381  48.445  1.00  0.00    -0.365 OA
HETATM   19  C20 UNL     1      30.647   8.700  47.020  1.00  0.00     0.154 C 
HETATM   20  C21 UNL     1      29.259   9.234  46.882  1.00  0.00     0.061 C 
HETATM   21  C22 UNL     1      28.807   8.582  45.604  1.00  0.00     0.171 C 
HETATM   22  O3  UNL     1      29.875   7.960  44.994  1.00  0.00    -0.382 OA
HETATM   23  C23 UNL     1      30.695   7.596  46.077  1.00  0.00     0.161 C 
HETATM   24  H6  UNL     1      33.474   2.956  48.839  1.00  0.00     0.161 HD
ENDROOT
BRANCH  15  25
HETATM   25  N4  UNL     1      29.601   6.507  48.896  1.00  0.00    -0.348 N 
HETATM   26  C12 UNL     1      28.608   5.577  48.429  1.00  0.00     0.241 C 
HETATM   27  O1  UNL     1      29.231   4.668  47.906  1.00  0.00    -0.269 OA
HETATM   28  H9  UNL     1      29.390   7.457  49.328  1.00  0.00     0.163 HD
BRANCH  26  29
HETATM   29  C13 UNL     1      27.268   5.999  48.721  1.00  0.00     0.071 C 
HETATM   30  C14 UNL     1      26.084   5.572  49.071  1.00  0.00    -0.002 C 
BRANCH  30  31
HETATM   31  C15 UNL     1      24.960   6.480  49.239  1.00  0.00     0.143 C 
BRANCH  31  32
HETATM   32  N5  UNL     1      24.365   6.663  50.497  1.00  0.00    -0.418 N 
HETATM   33  C16 UNL     1      23.910   5.561  51.240  1.00  0.00     0.142 C 
HETATM   34  C17 UNL     1      23.730   7.929  50.698  1.00  0.00     0.142 C 
ENDBRANCH  31  32
ENDBRANCH  30  31
ENDBRANCH  26  29
ENDBRANCH  15  25
TORSDOF 4
ENDMDL
MODEL 2
REMARK VINA RESULT:      -8.4      8.109     11.632
REMARK  4 active torsions:
REMARK  status: ('A' for Active; 'I' for Inactive)
REMARK    1  A    between atoms: C11_15  and  N4_16 
REMARK       I    between atoms: N4_16  and  C12_17 
REMARK    2  A    between atoms: C12_17  and  C13_19 
REMARK    3  A    between atoms: C14_20  and  C15_21 
REMARK    4  A    between atoms: C15_21  and  N5_22 
ROOT
HETATM    1  C1  UNL     1      19.811   0.308  51.840  1.00  0.00     0.064 C 
HETATM    2  C2  UNL     1      20.806   0.704  51.017  1.00  0.00     0.029 C 
HETATM    3  C3  UNL     1      20.374   1.210  49.662  1.00  0.00     0.099 C 
HETATM    4  F1  UNL     1      18.994   1.194  49.508  1.00  0.00    -0.211 F 
HETATM    5  C4  UNL     1      20.943   1.687  48.520  1.00  0.00     0.031 C 
HETATM    6  C5  UNL     1      22.199   2.028  47.788  1.00  0.00     0.151 C 
HETATM    7  N1  UNL     1      22.320   3.439  47.482  1.00  0.00    -0.371 N 
HETATM    8  C6  UNL     1      21.464   4.171  48.312  1.00  0.00     0.131 A 
HETATM    9  N2  UNL     1      20.482   4.943  48.620  1.00  0.00    -0.225 NA
HETATM   10  C7  UNL     1      19.933   5.267  49.777  1.00  0.00     0.230 A 
HETATM   11  N3  UNL     1      20.483   4.699  50.842  1.00  0.00    -0.262 NA
HETATM   12  C8  UNL     1      21.509   3.852  50.994  1.00  0.00     0.114 A 
HETATM   13  C9  UNL     1      21.701   3.619  52.237  1.00  0.00     0.026 A 
HETATM   14  C10 UNL     1      22.783   3.179  51.386  1.00  0.00     0.111 A 
HETATM   15  C11 UNL     1      23.798   2.772  50.552  1.00  0.00     0.065 A 
HETATM   16  C18 UNL     1      22.688   3.358  50.176  1.00  0.00     0.181 A 
HETATM   17  C19 UNL     1      21.505   3.993  49.680  1.00  0.00     0.013 A 
HETATM   18  O2  UNL     1      23.030   2.673  52.742  1.00  0.00    -0.365 OA
HETATM   19  C20 UNL     1      22.319   1.400  52.934  1.00  0.00     0.154 C 
HETATM   20  C21 UNL     1      23.173   0.579  53.842  1.00  0.00     0.061 C 
HETATM   21  C22 UNL     1      23.063  -0.785  53.215  1.00  0.00     0.171 C 
HETATM   22  O3  UNL     1      22.095  -0.771  52.234  1.00  0.00    -0.382 OA
HETATM   23  C23 UNL     1      22.133   0.555  51.766  1.00  0.00     0.161 C 
HETATM   24  H6  UNL     1      22.859   4.049  46.853  1.00  0.00     0.161 HD
ENDROOT
BRANCH  15  25
HETATM   25  N4  UNL     1      24.824   2.272  51.389  1.00  0.00    -0.348 N 
HETATM   26  C12 UNL     1      26.149   2.630  50.957  1.00  0.00     0.241 C 
HETATM   27  O1  UNL     1      25.997   3.239  49.911  1.00  0.00    -0.269 OA
HETATM   28  H9  UNL     1      24.604   1.657  52.231  1.00  0.00     0.163 HD
BRANCH  26  29
HETATM   29  C13 UNL     1      27.170   2.177  51.857  1.00  0.00     0.071 C 
HETATM   30  C14 UNL     1      27.592   2.251  53.092  1.00  0.00    -0.002 C 
BRANCH  30  31
HETATM   31  C15 UNL     1      28.788   1.554  53.536  1.00  0.00     0.143 C 
BRANCH  31  32
HETATM   32  N5  UNL     1      28.696   0.347  54.247  1.00  0.00    -0.418 N 
HETATM   33  C16 UNL     1      29.495  -0.754  53.896  1.00  0.00     0.142 C 
HETATM   34  C17 UNL     1      27.436   0.100  54.876  1.00  0.00     0.142 C 
ENDBRANCH  31  32
ENDBRANCH  30  31
ENDBRANCH  26  29
ENDBRANCH  15  25
TORSDOF 4
ENDMDL
MODEL 3
REMARK VINA RESULT:      -8.3      4.418      9.776
REMARK  4 active torsions:
REMARK  status: ('A' for Active; 'I' for Inactive)
REMARK    1  A    between atoms: C11_15  and  N4_16 
REMARK       I    between atoms: N4_16  and  C12_17 
REMARK    2  A    between atoms: C12_17  and  C13_19 
REMARK    3  A    between atoms: C14_20  and  C15_21 
REMARK    4  A    between atoms: C15_21  and  N5_22 
ROOT
HETATM    1  C1  UNL     1      20.915   6.557  50.763  1.00  0.00     0.064 C 
HETATM    2  C2  UNL     1      21.955   5.724  50.986  1.00  0.00     0.029 C 
HETATM    3  C3  UNL     1      21.625   4.439  51.706  1.00  0.00     0.099 C 
HETATM    4  F1  UNL     1      20.272   4.333  52.002  1.00  0.00    -0.211 F 
HETATM    5  C4  UNL     1      22.269   3.329  52.163  1.00  0.00     0.031 C 
HETATM    6  C5  UNL     1      23.563   2.601  52.322  1.00  0.00     0.151 C 
HETATM    7  N1  UNL     1      23.608   1.347  51.599  1.00  0.00    -0.371 N 
HETATM    8  C6  UNL     1      22.622   1.344  50.607  1.00  0.00     0.131 A 
HETATM    9  N2  UNL     1      21.559   0.962  49.991  1.00  0.00    -0.225 NA
HETATM   10  C7  UNL     1      20.874   1.485  48.989  1.00  0.00     0.230 A 
HETATM   11  N3  UNL     1      21.356   2.624  48.511  1.00  0.00    -0.262 NA
HETATM   12  C8  UNL     1      22.421   3.370  48.831  1.00  0.00     0.114 A 
HETATM   13  C9  UNL     1      22.505   4.373  48.044  1.00  0.00     0.026 A 
HETATM   14  C10 UNL     1      23.697   4.147  48.829  1.00  0.00     0.111 A 
HETATM   15  C11 UNL     1      24.817   3.906  49.589  1.00  0.00     0.065 A 
HETATM   16  C18 UNL     1      23.710   3.206  49.616  1.00  0.00     0.181 A 
HETATM   17  C19 UNL     1      22.539   2.389  49.709  1.00  0.00     0.013 A 
HETATM   18  O2  UNL     1      23.844   5.431  48.131  1.00  0.00    -0.365 OA
HETATM   19  C20 UNL     1      23.213   6.499  48.921  1.00  0.00     0.154 C 
HETATM   20  C21 UNL     1      24.030   7.727  48.687  1.00  0.00     0.061 C 
HETATM   21  C22 UNL     1      24.086   8.325  50.067  1.00  0.00     0.171 C 
HETATM   22  O3  UNL     1      23.223   7.649  50.902  1.00  0.00    -0.382 OA
HETATM   23  C23 UNL     1      23.208   6.350  50.366  1.00  0.00     0.161 C 
HETATM   24  H6  UNL     1      24.161   0.479  51.594  1.00  0.00     0.161 HD
ENDROOT
BRANCH  15  25
HETATM   25  N4  UNL     1      25.789   4.849  49.174  1.00  0.00    -0.348 N 
HETATM   26  C12 UNL     1      27.112   4.298  49.049  1.00  0.00     0.241 C 
HETATM   27  O1  UNL     1      27.018   3.138  49.412  1.00  0.00    -0.269 OA
HETATM   28  H9  UNL     1      25.538   5.872  49.016  1.00  0.00     0.163 HD
BRANCH  26  29
HETATM   29  C13 UNL     1      28.067   5.249  48.557  1.00  0.00     0.071 C 
HETATM   30  C14 UNL     1      28.203   6.472  48.117  1.00  0.00    -0.002 C 
BRANCH  30  31
HETATM   31  C15 UNL     1      29.493   6.996  47.697  1.00  0.00     0.143 C 
BRANCH  31  32
HETATM   32  N5  UNL     1      30.225   7.858  48.528  1.00  0.00    -0.418 N 
HETATM   33  C16 UNL     1      31.352   7.391  49.226  1.00  0.00     0.142 C 
HETATM   34  C17 UNL     1      29.489   8.953  49.079  1.00  0.00     0.142 C 
ENDBRANCH  31  32
ENDBRANCH  30  31
ENDBRANCH  26  29
ENDBRANCH  15  25
TORSDOF 4
ENDMDL
MODEL 4
REMARK VINA RESULT:      -7.6      5.741     11.417
REMARK  4 active torsions:
REMARK  status: ('A' for Active; 'I' for Inactive)
REMARK    1  A    between atoms: C11_15  and  N4_16 
REMARK       I    between atoms: N4_16  and  C12_17 
REMARK    2  A    between atoms: C12_17  and  C13_19 
REMARK    3  A    between atoms: C14_20  and  C15_21 
REMARK    4  A    between atoms: C15_21  and  N5_22 
ROOT
HETATM    1  C1  UNL     1      22.581   0.367  53.199  1.00  0.00     0.064 C 
HETATM    2  C2  UNL     1      22.510   0.877  51.951  1.00  0.00     0.029 C 
HETATM    3  C3  UNL     1      21.314   0.451  51.135  1.00  0.00     0.099 C 
HETATM    4  F1  UNL     1      20.470  -0.398  51.839  1.00  0.00    -0.211 F 
HETATM    5  C4  UNL     1      20.803   0.651  49.887  1.00  0.00     0.031 C 
HETATM    6  C5  UNL     1      20.960   1.306  48.554  1.00  0.00     0.151 C 
HETATM    7  N1  UNL     1      19.917   2.267  48.261  1.00  0.00    -0.371 N 
HETATM    8  C6  UNL     1      19.289   2.653  49.451  1.00  0.00     0.131 A 
HETATM    9  N2  UNL     1      18.331   2.783  50.299  1.00  0.00    -0.225 NA
HETATM   10  C7  UNL     1      18.306   3.178  51.560  1.00  0.00     0.230 A 
HETATM   11  N3  UNL     1      19.484   3.508  52.072  1.00  0.00    -0.262 NA
HETATM   12  C8  UNL     1      20.722   3.534  51.564  1.00  0.00     0.114 A 
HETATM   13  C9  UNL     1      21.543   3.977  52.439  1.00  0.00     0.026 A 
HETATM   14  C10 UNL     1      22.088   3.922  51.102  1.00  0.00     0.111 A 
HETATM   15  C11 UNL     1      22.580   3.860  49.819  1.00  0.00     0.065 A 
HETATM   16  C18 UNL     1      21.375   3.508  50.194  1.00  0.00     0.181 A 
HETATM   17  C19 UNL     1      20.041   3.102  50.518  1.00  0.00     0.013 A 
HETATM   18  O2  UNL     1      23.180   4.246  52.030  1.00  0.00    -0.365 OA
HETATM   19  C20 UNL     1      23.739   3.005  52.588  1.00  0.00     0.154 C 
HETATM   20  C21 UNL     1      25.197   3.260  52.789  1.00  0.00     0.061 C 
HETATM   21  C22 UNL     1      25.800   1.960  52.330  1.00  0.00     0.171 C 
HETATM   22  O3  UNL     1      24.804   1.030  52.126  1.00  0.00    -0.382 OA
HETATM   23  C23 UNL     1      23.702   1.818  51.751  1.00  0.00     0.161 C 
HETATM   24  H6  UNL     1      19.524   2.755  47.445  1.00  0.00     0.161 HD
ENDROOT
BRANCH  15  25
HETATM   25  N4  UNL     1      23.882   4.414  49.865  1.00  0.00    -0.348 N 
HETATM   26  C12 UNL     1      24.169   5.306  48.773  1.00  0.00     0.241 C 
HETATM   27  O1  UNL     1      23.181   5.277  48.059  1.00  0.00    -0.269 OA
HETATM   28  H9  UNL     1      24.574   4.144  50.628  1.00  0.00     0.163 HD
BRANCH  26  29
HETATM   29  C13 UNL     1      25.465   5.914  48.876  1.00  0.00     0.071 C 
HETATM   30  C14 UNL     1      26.298   6.722  48.275  1.00  0.00    -0.002 C 
BRANCH  30  31
HETATM   31  C15 UNL     1      27.603   7.033  48.836  1.00  0.00     0.143 C 
BRANCH  31  32
HETATM   32  N5  UNL     1      28.051   8.360  48.923  1.00  0.00    -0.418 N 
HETATM   33  C16 UNL     1      27.600   9.201  49.954  1.00  0.00     0.142 C 
HETATM   34  C17 UNL     1      28.454   8.955  47.687  1.00  0.00     0.142 C 
ENDBRANCH  31  32
ENDBRANCH  30  31
ENDBRANCH  26  29
ENDBRANCH  15  25
TORSDOF 4
ENDMDL
MODEL 5
REMARK VINA RESULT:      -7.5      7.936     10.709
REMARK  4 active torsions:
REMARK  status: ('A' for Active; 'I' for Inactive)
REMARK    1  A    between atoms: C11_15  and  N4_16 
REMARK       I    between atoms: N4_16  and  C12_17 
REMARK    2  A    between atoms: C12_17  and  C13_19 
REMARK    3  A    between atoms: C14_20  and  C15_21 
REMARK    4  A    between atoms: C15_21  and  N5_22 
ROOT
HETATM    1  C1  UNL     1      19.523   2.856  50.268  1.00  0.00     0.064 C 
HETATM    2  C2  UNL     1      20.756   3.185  49.825  1.00  0.00     0.029 C 
HETATM    3  C3  UNL     1      20.804   4.216  48.724  1.00  0.00     0.099 C 
HETATM    4  F1  UNL     1      19.540   4.666  48.367  1.00  0.00    -0.211 F 
HETATM    5  C4  UNL     1      21.735   4.850  47.958  1.00  0.00     0.031 C 
HETATM    6  C5  UNL     1      23.179   5.022  47.617  1.00  0.00     0.151 C 
HETATM    7  N1  UNL     1      23.683   6.349  47.904  1.00  0.00    -0.371 N 
HETATM    8  C6  UNL     1      22.830   6.986  48.812  1.00  0.00     0.131 A 
HETATM    9  N2  UNL     1      21.998   7.869  49.242  1.00  0.00    -0.225 NA
HETATM   10  C7  UNL     1      21.260   7.940  50.335  1.00  0.00     0.230 A 
HETATM   11  N3  UNL     1      21.383   6.913  51.166  1.00  0.00    -0.262 NA
HETATM   12  C8  UNL     1      22.122   5.798  51.133  1.00  0.00     0.114 A 
HETATM   13  C9  UNL     1      21.937   5.120  52.201  1.00  0.00     0.026 A 
HETATM   14  C10 UNL     1      23.074   4.684  51.423  1.00  0.00     0.111 A 
HETATM   15  C11 UNL     1      24.150   4.292  50.662  1.00  0.00     0.065 A 
HETATM   16  C18 UNL     1      23.331   5.273  50.378  1.00  0.00     0.181 A 
HETATM   17  C19 UNL     1      22.483   6.361  49.993  1.00  0.00     0.013 A 
HETATM   18  O2  UNL     1      22.852   3.707  52.497  1.00  0.00    -0.365 OA
HETATM   19  C20 UNL     1      21.851   2.719  52.069  1.00  0.00     0.154 C 
HETATM   20  C21 UNL     1      22.243   1.427  52.706  1.00  0.00     0.061 C 
HETATM   21  C22 UNL     1      21.996   0.447  51.591  1.00  0.00     0.171 C 
HETATM   22  O3  UNL     1      21.336   1.075  50.557  1.00  0.00    -0.382 OA
HETATM   23  C23 UNL     1      21.784   2.405  50.651  1.00  0.00     0.161 C 
HETATM   24  H6  UNL     1      24.485   6.942  47.652  1.00  0.00     0.161 HD
ENDROOT
BRANCH  15  25
HETATM   25  N4  UNL     1      24.794   3.259  51.386  1.00  0.00    -0.348 N 
HETATM   26  C12 UNL     1      25.935   2.703  50.709  1.00  0.00     0.241 C 
HETATM   27  O1  UNL     1      25.983   3.270  49.630  1.00  0.00    -0.269 OA
HETATM   28  H9  UNL     1      24.419   2.921  52.323  1.00  0.00     0.163 HD
BRANCH  26  29
HETATM   29  C13 UNL     1      26.618   1.711  51.488  1.00  0.00     0.071 C 
HETATM   30  C14 UNL     1      26.510   0.507  51.985  1.00  0.00    -0.002 C 
BRANCH  30  31
HETATM   31  C15 UNL     1      27.570  -0.091  52.782  1.00  0.00     0.143 C 
BRANCH  31  32
HETATM   32  N5  UNL     1      27.511  -0.075  54.184  1.00  0.00    -0.418 N 
HETATM   33  C16 UNL     1      26.291   0.139  54.847  1.00  0.00     0.142 C 
HETATM   34  C17 UNL     1      28.720   0.305  54.846  1.00  0.00     0.142 C 
ENDBRANCH  31  32
ENDBRANCH  30  31
ENDBRANCH  26  29
ENDBRANCH  15  25
TORSDOF 4
ENDMDL
MODEL 6
REMARK VINA RESULT:      -7.5      7.821     11.593
REMARK  4 active torsions:
REMARK  status: ('A' for Active; 'I' for Inactive)
REMARK    1  A    between atoms: C11_15  and  N4_16 
REMARK       I    between atoms: N4_16  and  C12_17 
REMARK    2  A    between atoms: C12_17  and  C13_19 
REMARK    3  A    between atoms: C14_20  and  C15_21 
REMARK    4  A    between atoms: C15_21  and  N5_22 
ROOT
HETATM    1  C1  UNL     1      21.969   6.582  49.133  1.00  0.00     0.064 C 
HETATM    2  C2  UNL     1      21.619   5.495  49.854  1.00  0.00     0.029 C 
HETATM    3  C3  UNL     1      20.143   5.337  50.129  1.00  0.00     0.099 C 
HETATM    4  F1  UNL     1      19.389   6.356  49.562  1.00  0.00    -0.211 F 
HETATM    5  C4  UNL     1      19.312   4.478  50.782  1.00  0.00     0.031 C 
HETATM    6  C5  UNL     1      19.177   3.242  51.610  1.00  0.00     0.151 C 
HETATM    7  N1  UNL     1      18.437   2.187  50.949  1.00  0.00    -0.371 N 
HETATM    8  C6  UNL     1      18.414   2.425  49.570  1.00  0.00     0.131 A 
HETATM    9  N2  UNL     1      17.903   2.675  48.417  1.00  0.00    -0.225 NA
HETATM   10  C7  UNL     1      18.442   2.991  47.253  1.00  0.00     0.230 A 
HETATM   11  N3  UNL     1      19.766   3.071  47.248  1.00  0.00    -0.262 NA
HETATM   12  C8  UNL     1      20.693   2.887  48.196  1.00  0.00     0.114 A 
HETATM   13  C9  UNL     1      21.862   3.030  47.697  1.00  0.00     0.026 A 
HETATM   14  C10 UNL     1      21.858   2.428  49.010  1.00  0.00     0.111 A 
HETATM   15  C11 UNL     1      21.824   1.856  50.261  1.00  0.00     0.065 A 
HETATM   16  C18 UNL     1      20.782   2.252  49.572  1.00  0.00     0.181 A 
HETATM   17  C19 UNL     1      19.591   2.657  48.888  1.00  0.00     0.013 A 
HETATM   18  O2  UNL     1      23.250   2.723  48.644  1.00  0.00    -0.365 OA
HETATM   19  C20 UNL     1      23.571   4.114  48.999  1.00  0.00     0.154 C 
HETATM   20  C21 UNL     1      25.010   4.120  49.396  1.00  0.00     0.061 C 
HETATM   21  C22 UNL     1      24.995   5.037  50.588  1.00  0.00     0.171 C 
HETATM   22  O3  UNL     1      23.761   5.642  50.696  1.00  0.00    -0.382 OA
HETATM   23  C23 UNL     1      22.887   4.688  50.146  1.00  0.00     0.161 C 
HETATM   24  H6  UNL     1      17.947   1.316  51.196  1.00  0.00     0.161 HD
ENDROOT
BRANCH  15  25
HETATM   25  N4  UNL     1      23.160   1.514  50.578  1.00  0.00    -0.348 N 
HETATM   26  C12 UNL     1      23.426   1.474  51.992  1.00  0.00     0.241 C 
HETATM   27  O1  UNL     1      22.387   1.820  52.529  1.00  0.00    -0.269 OA
HETATM   28  H9  UNL     1      23.887   1.348  49.817  1.00  0.00     0.163 HD
BRANCH  26  29
HETATM   29  C13 UNL     1      24.764   1.054  52.296  1.00  0.00     0.071 C 
HETATM   30  C14 UNL     1      26.016   1.204  51.953  1.00  0.00    -0.002 C 
BRANCH  30  31
HETATM   31  C15 UNL     1      27.085   0.481  52.624  1.00  0.00     0.143 C 
BRANCH  31  32
HETATM   32  N5  UNL     1      27.806   1.073  53.673  1.00  0.00    -0.418 N 
HETATM   33  C16 UNL     1      28.398   2.337  53.511  1.00  0.00     0.142 C 
HETATM   34  C17 UNL     1      28.393   0.162  54.606  1.00  0.00     0.142 C 
ENDBRANCH  31  32
ENDBRANCH  30  31
ENDBRANCH  26  29
ENDBRANCH  15  25
TORSDOF 4
ENDMDL
MODEL 7
REMARK VINA RESULT:      -7.4      7.602     10.487
REMARK  4 active torsions:
REMARK  status: ('A' for Active; 'I' for Inactive)
REMARK    1  A    between atoms: C11_15  and  N4_16 
REMARK       I    between atoms: N4_16  and  C12_17 
REMARK    2  A    between atoms: C12_17  and  C13_19 
REMARK    3  A    between atoms: C14_20  and  C15_21 
REMARK    4  A    between atoms: C15_21  and  N5_22 
ROOT
HETATM    1  C1  UNL     1      21.291   4.208  46.520  1.00  0.00     0.064 C 
HETATM    2  C2  UNL     1      22.146   4.468  47.532  1.00  0.00     0.029 C 
HETATM    3  C3  UNL     1      22.911   5.765  47.428  1.00  0.00     0.099 C 
HETATM    4  F1  UNL     1      22.576   6.485  46.289  1.00  0.00    -0.211 F 
HETATM    5  C4  UNL     1      23.853   6.455  48.129  1.00  0.00     0.031 C 
HETATM    6  C5  UNL     1      24.745   6.505  49.326  1.00  0.00     0.151 C 
HETATM    7  N1  UNL     1      24.432   7.593  50.230  1.00  0.00    -0.371 N 
HETATM    8  C6  UNL     1      23.131   8.044  49.985  1.00  0.00     0.131 A 
HETATM    9  N2  UNL     1      22.205   8.869  49.642  1.00  0.00    -0.225 NA
HETATM   10  C7  UNL     1      20.912   8.714  49.421  1.00  0.00     0.230 A 
HETATM   11  N3  UNL     1      20.457   7.478  49.576  1.00  0.00    -0.262 NA
HETATM   12  C8  UNL     1      21.045   6.328  49.926  1.00  0.00     0.114 A 
HETATM   13  C9  UNL     1      20.174   5.394  49.989  1.00  0.00     0.026 A 
HETATM   14  C10 UNL     1      21.444   5.050  50.588  1.00  0.00     0.111 A 
HETATM   15  C11 UNL     1      22.662   4.751  51.152  1.00  0.00     0.065 A 
HETATM   16  C18 UNL     1      22.344   5.883  50.574  1.00  0.00     0.181 A 
HETATM   17  C19 UNL     1      22.080   7.150  49.961  1.00  0.00     0.013 A 
HETATM   18  O2  UNL     1      20.614   3.839  50.542  1.00  0.00    -0.365 OA
HETATM   19  C20 UNL     1      20.762   3.187  49.232  1.00  0.00     0.154 C 
HETATM   20  C21 UNL     1      20.650   1.719  49.483  1.00  0.00     0.061 C 
HETATM   21  C22 UNL     1      21.725   1.172  48.584  1.00  0.00     0.171 C 
HETATM   22  O3  UNL     1      22.207   2.175  47.770  1.00  0.00    -0.382 OA
HETATM   23  C23 UNL     1      22.038   3.331  48.552  1.00  0.00     0.161 C 
HETATM   24  H6  UNL     1      24.878   8.108  51.002  1.00  0.00     0.161 HD
ENDROOT
BRANCH  15  25
HETATM   25  N4  UNL     1      22.529   3.464  51.726  1.00  0.00    -0.348 N 
HETATM   26  C12 UNL     1      23.731   2.676  51.662  1.00  0.00     0.241 C 
HETATM   27  O1  UNL     1      24.536   3.357  51.048  1.00  0.00    -0.269 OA
HETATM   28  H9  UNL     1      21.601   3.127  52.124  1.00  0.00     0.163 HD
BRANCH  26  29
HETATM   29  C13 UNL     1      23.600   1.404  52.314  1.00  0.00     0.071 C 
HETATM   30  C14 UNL     1      22.805   0.378  52.466  1.00  0.00    -0.002 C 
BRANCH  30  31
HETATM   31  C15 UNL     1      23.161  -0.747  53.316  1.00  0.00     0.143 C 
BRANCH  31  32
HETATM   32  N5  UNL     1      22.463  -0.997  54.508  1.00  0.00    -0.418 N 
HETATM   33  C16 UNL     1      21.279  -0.301  54.803  1.00  0.00     0.142 C 
HETATM   34  C17 UNL     1      23.256  -1.482  55.595  1.00  0.00     0.142 C 
ENDBRANCH  31  32
ENDBRANCH  30  31
ENDBRANCH  26  29
ENDBRANCH  15  25
TORSDOF 4
ENDMDL
MODEL 8
REMARK VINA RESULT:      -7.3      8.121     11.747
REMARK  4 active torsions:
REMARK  status: ('A' for Active; 'I' for Inactive)
REMARK    1  A    between atoms: C11_15  and  N4_16 
REMARK       I    between atoms: N4_16  and  C12_17 
REMARK    2  A    between atoms: C12_17  and  C13_19 
REMARK    3  A    between atoms: C14_20  and  C15_21 
REMARK    4  A    between atoms: C15_21  and  N5_22 
ROOT
HETATM    1  C1  UNL     1      23.759  -0.072  53.054  1.00  0.00     0.064 C 
HETATM    2  C2  UNL     1      23.263   1.185  53.071  1.00  0.00     0.029 C 
HETATM    3  C3  UNL     1      24.285   2.292  53.146  1.00  0.00     0.099 C 
HETATM    4  F1  UNL     1      25.587   1.809  53.167  1.00  0.00    -0.211 F 
HETATM    5  C4  UNL     1      24.316   3.653  53.202  1.00  0.00     0.031 C 
HETATM    6  C5  UNL     1      23.539   4.929  53.242  1.00  0.00     0.151 C 
HETATM    7  N1  UNL     1      23.763   5.773  52.086  1.00  0.00    -0.371 N 
HETATM    8  C6  UNL     1      24.295   5.006  51.044  1.00  0.00     0.131 A 
HETATM    9  N2  UNL     1      25.162   4.623  50.174  1.00  0.00    -0.225 NA
HETATM   10  C7  UNL     1      25.224   3.567  49.383  1.00  0.00     0.230 A 
HETATM   11  N3  UNL     1      24.206   2.723  49.488  1.00  0.00    -0.262 NA
HETATM   12  C8  UNL     1      23.098   2.721  50.239  1.00  0.00     0.114 A 
HETATM   13  C9  UNL     1      22.378   1.705  49.951  1.00  0.00     0.026 A 
HETATM   14  C10 UNL     1      21.693   2.700  50.745  1.00  0.00     0.111 A 
HETATM   15  C11 UNL     1      21.067   3.665  51.499  1.00  0.00     0.065 A 
HETATM   16  C18 UNL     1      22.305   3.711  51.072  1.00  0.00     0.181 A 
HETATM   17  C19 UNL     1      23.666   3.842  50.648  1.00  0.00     0.013 A 
HETATM   18  O2  UNL     1      20.836   1.510  50.661  1.00  0.00    -0.365 OA
HETATM   19  C20 UNL     1      21.211   0.554  51.714  1.00  0.00     0.154 C 
HETATM   20  C21 UNL     1      19.948  -0.127  52.126  1.00  0.00     0.061 C 
HETATM   21  C22 UNL     1      20.108  -0.190  53.621  1.00  0.00     0.171 C 
HETATM   22  O3  UNL     1      21.386   0.191  53.970  1.00  0.00    -0.382 OA
HETATM   23  C23 UNL     1      21.738   1.098  52.955  1.00  0.00     0.161 C 
HETATM   24  H6  UNL     1      23.627   6.755  51.809  1.00  0.00     0.161 HD
ENDROOT
BRANCH  15  25
HETATM   25  N4  UNL     1      19.726   3.240  51.654  1.00  0.00    -0.348 N 
HETATM   26  C12 UNL     1      18.762   4.153  51.100  1.00  0.00     0.241 C 
HETATM   27  O1  UNL     1      19.410   5.102  50.691  1.00  0.00    -0.269 OA
HETATM   28  H9  UNL     1      19.484   2.342  52.173  1.00  0.00     0.163 HD
BRANCH  26  29
HETATM   29  C13 UNL     1      17.414   3.671  51.201  1.00  0.00     0.071 C 
HETATM   30  C14 UNL     1      16.161   4.023  51.092  1.00  0.00    -0.002 C 
BRANCH  30  31
HETATM   31  C15 UNL     1      15.077   3.081  51.327  1.00  0.00     0.143 C 
BRANCH  31  32
HETATM   32  N5  UNL     1      14.117   3.322  52.321  1.00  0.00    -0.418 N 
HETATM   33  C16 UNL     1      14.396   4.192  53.389  1.00  0.00     0.142 C 
HETATM   34  C17 UNL     1      13.171   2.271  52.530  1.00  0.00     0.142 C 
ENDBRANCH  31  32
ENDBRANCH  30  31
ENDBRANCH  26  29
ENDBRANCH  15  25
TORSDOF 4
ENDMDL
MODEL 9
REMARK VINA RESULT:      -7.3      7.755     10.587
REMARK  4 active torsions:
REMARK  status: ('A' for Active; 'I' for Inactive)
REMARK    1  A    between atoms: C11_15  and  N4_16 
REMARK       I    between atoms: N4_16  and  C12_17 
REMARK    2  A    between atoms: C12_17  and  C13_19 
REMARK    3  A    between atoms: C14_20  and  C15_21 
REMARK    4  A    between atoms: C15_21  and  N5_22 
ROOT
HETATM    1  C1  UNL     1      20.771   5.121  47.328  1.00  0.00     0.064 C 
HETATM    2  C2  UNL     1      21.623   4.561  48.215  1.00  0.00     0.029 C 
HETATM    3  C3  UNL     1      23.074   4.951  48.067  1.00  0.00     0.099 C 
HETATM    4  F1  UNL     1      23.275   5.852  47.030  1.00  0.00    -0.211 F 
HETATM    5  C4  UNL     1      24.271   4.677  48.657  1.00  0.00     0.031 C 
HETATM    6  C5  UNL     1      25.011   3.918  49.709  1.00  0.00     0.151 C 
HETATM    7  N1  UNL     1      25.626   4.770  50.705  1.00  0.00    -0.371 N 
HETATM    8  C6  UNL     1      25.020   6.031  50.680  1.00  0.00     0.131 A 
HETATM    9  N2  UNL     1      24.936   7.305  50.522  1.00  0.00    -0.225 NA
HETATM   10  C7  UNL     1      23.906   8.132  50.487  1.00  0.00     0.230 A 
HETATM   11  N3  UNL     1      22.719   7.561  50.643  1.00  0.00    -0.262 NA
HETATM   12  C8  UNL     1      22.336   6.294  50.841  1.00  0.00     0.114 A 
HETATM   13  C9  UNL     1      21.066   6.238  50.983  1.00  0.00     0.026 A 
HETATM   14  C10 UNL     1      21.750   5.025  51.368  1.00  0.00     0.111 A 
HETATM   15  C11 UNL     1      22.428   3.884  51.728  1.00  0.00     0.065 A 
HETATM   16  C18 UNL     1      22.972   4.982  51.265  1.00  0.00     0.181 A 
HETATM   17  C19 UNL     1      23.646   6.142  50.765  1.00  0.00     0.013 A 
HETATM   18  O2  UNL     1      20.305   4.762  51.381  1.00  0.00    -0.365 OA
HETATM   19  C20 UNL     1      19.857   4.388  50.031  1.00  0.00     0.154 C 
HETATM   20  C21 UNL     1      18.751   3.402  50.219  1.00  0.00     0.061 C 
HETATM   21  C22 UNL     1      19.054   2.396  49.142  1.00  0.00     0.171 C 
HETATM   22  O3  UNL     1      20.051   2.877  48.320  1.00  0.00    -0.382 OA
HETATM   23  C23 UNL     1      20.807   3.694  49.179  1.00  0.00     0.161 C 
HETATM   24  H6  UNL     1      26.356   4.710  51.429  1.00  0.00     0.161 HD
ENDROOT
BRANCH  15  25
HETATM   25  N4  UNL     1      21.458   2.993  52.247  1.00  0.00    -0.348 N 
HETATM   26  C12 UNL     1      21.749   1.607  51.989  1.00  0.00     0.241 C 
HETATM   27  O1  UNL     1      22.766   1.608  51.314  1.00  0.00    -0.269 OA
HETATM   28  H9  UNL     1      20.585   3.349  52.742  1.00  0.00     0.163 HD
BRANCH  26  29
HETATM   29  C13 UNL     1      20.796   0.717  52.585  1.00  0.00     0.071 C 
HETATM   30  C14 UNL     1      19.845  -0.139  52.317  1.00  0.00    -0.002 C 
BRANCH  30  31
HETATM   31  C15 UNL     1      19.114  -0.827  53.370  1.00  0.00     0.143 C 
BRANCH  31  32
HETATM   32  N5  UNL     1      17.909  -1.491  53.093  1.00  0.00    -0.418 N 
HETATM   33  C16 UNL     1      16.746  -0.766  52.787  1.00  0.00     0.142 C 
HETATM   34  C17 UNL     1      17.768  -2.783  53.690  1.00  0.00     0.142 C 
ENDBRANCH  31  32
ENDBRANCH  30  31
ENDBRANCH  26  29
ENDBRANCH  15  25
TORSDOF 4
ENDMDL
