MODEL 1
REMARK VINA RESULT:      -8.0      0.000      0.000
REMARK  9 active torsions:
REMARK  status: ('A' for Active; 'I' for Inactive)
REMARK    1  A    between atoms: C1_2  and  C2_3 
REMARK       I    between atoms: C1_2  and  N3_16 
REMARK    2  A    between atoms: C2_3  and  C3_4 
REMARK    3  A    between atoms: C4_5  and  C5_6 
REMARK    4  A    between atoms: C6_7  and  N1_8 
REMARK    5  A    between atoms: N1_8  and  C7_9 
REMARK    6  A    between atoms: C7_9  and  C8_10 
REMARK    7  A    between atoms: N3_16  and  O2_17 
REMARK    8  A    between atoms: O2_17  and  C13_18 
REMARK    9  A    between atoms: C17_22  and  C18_23 
ROOT
HETATM    1  O1  UNL     1      27.542   4.339  49.127  1.00  0.00    -0.271 OA
HETATM    2  C1  UNL     1      26.396   4.258  49.667  1.00  0.00     0.244 C 
HETATM    3  N3  UNL     1      26.316   3.552  50.899  1.00  0.00    -0.229 N 
HETATM    4  H14 UNL     1      25.562   3.309  51.578  1.00  0.00     0.198 HD
ENDROOT
BRANCH   2   5
HETATM    5  C2  UNL     1      25.015   4.745  49.322  1.00  0.00     0.132 C 
BRANCH   5   6
HETATM    6  C3  UNL     1      24.217   3.538  49.009  1.00  0.00    -0.017 C 
HETATM    7  C4  UNL     1      23.122   3.087  49.583  1.00  0.00    -0.002 C 
BRANCH   7   8
HETATM    8  C5  UNL     1      22.497   3.778  50.699  1.00  0.00     0.016 C 
HETATM    9  C6  UNL     1      22.486   3.207  51.891  1.00  0.00     0.083 C 
BRANCH   9  10
HETATM   10  N1  UNL     1      23.049   1.936  52.193  1.00  0.00    -0.395 N 
HETATM   11  H7  UNL     1      23.971   1.672  52.561  1.00  0.00     0.159 HD
BRANCH  10  12
HETATM   12  C7  UNL     1      22.035   0.948  51.876  1.00  0.00     0.157 C 
BRANCH  12  13
HETATM   13  C8  UNL     1      21.947  -0.005  53.014  1.00  0.00    -0.038 A 
HETATM   14  C9  UNL     1      23.054  -0.233  53.787  1.00  0.00     0.028 A 
HETATM   15  C10 UNL     1      23.102  -1.090  54.864  1.00  0.00     0.116 A 
HETATM   16  N2  UNL     1      21.952  -1.733  55.146  1.00  0.00    -0.273 NA
HETATM   17  C11 UNL     1      20.829  -1.554  54.425  1.00  0.00     0.116 A 
HETATM   18  C12 UNL     1      20.788  -0.685  53.337  1.00  0.00     0.028 A 
ENDBRANCH  12  13
ENDBRANCH  10  12
ENDBRANCH   9  10
ENDBRANCH   7   8
ENDBRANCH   5   6
ENDBRANCH   2   5
BRANCH   3  19
HETATM   19  O2  UNL     1      27.220   2.903  51.688  1.00  0.00    -0.235 OA
BRANCH  19  20
HETATM   20  C13 UNL     1      27.117   1.558  52.015  1.00  0.00     0.099 A 
HETATM   21  C14 UNL     1      26.117   0.668  51.676  1.00  0.00     0.039 A 
HETATM   22  C15 UNL     1      26.200  -0.643  52.104  1.00  0.00     0.004 A 
HETATM   23  C16 UNL     1      27.262  -1.095  52.868  1.00  0.00     0.016 A 
HETATM   24  C17 UNL     1      28.271  -0.188  53.207  1.00  0.00     0.050 A 
HETATM   25  C19 UNL     1      28.194   1.127  52.781  1.00  0.00     0.055 A 
BRANCH  24  26
HETATM   26  C18 UNL     1      29.422  -0.675  54.034  1.00  0.00     0.417 C 
HETATM   27  F1  UNL     1      29.591  -2.031  53.846  1.00  0.00    -0.166 F 
HETATM   28  F2  UNL     1      29.235  -0.378  55.354  1.00  0.00    -0.166 F 
HETATM   29  F3  UNL     1      30.602  -0.080  53.577  1.00  0.00    -0.166 F 
ENDBRANCH  24  26
ENDBRANCH  19  20
ENDBRANCH   3  19
TORSDOF 9
ENDMDL
MODEL 2
REMARK VINA RESULT:      -7.9      4.169      7.751
REMARK  9 active torsions:
REMARK  status: ('A' for Active; 'I' for Inactive)
REMARK    1  A    between atoms: C1_2  and  C2_3 
REMARK       I    between atoms: C1_2  and  N3_16 
REMARK    2  A    between atoms: C2_3  and  C3_4 
REMARK    3  A    between atoms: C4_5  and  C5_6 
REMARK    4  A    between atoms: C6_7  and  N1_8 
REMARK    5  A    between atoms: N1_8  and  C7_9 
REMARK    6  A    between atoms: C7_9  and  C8_10 
REMARK    7  A    between atoms: N3_16  and  O2_17 
REMARK    8  A    between atoms: O2_17  and  C13_18 
REMARK    9  A    between atoms: C17_22  and  C18_23 
ROOT
HETATM    1  O1  UNL     1      23.719   3.636  49.424  1.00  0.00    -0.271 OA
HETATM    2  C1  UNL     1      24.727   4.130  50.018  1.00  0.00     0.244 C 
HETATM    3  N3  UNL     1      25.009   3.635  51.321  1.00  0.00    -0.229 N 
HETATM    4  H14 UNL     1      25.730   3.817  52.053  1.00  0.00     0.198 HD
ENDROOT
BRANCH   2   5
HETATM    5  C2  UNL     1      25.764   5.166  49.681  1.00  0.00     0.132 C 
BRANCH   5   6
HETATM    6  C3  UNL     1      26.932   4.424  49.152  1.00  0.00    -0.017 C 
HETATM    7  C4  UNL     1      27.981   4.873  48.498  1.00  0.00    -0.002 C 
BRANCH   7   8
HETATM    8  C5  UNL     1      28.146   6.283  48.180  1.00  0.00     0.016 C 
HETATM    9  C6  UNL     1      29.287   6.884  48.467  1.00  0.00     0.083 C 
BRANCH   9  10
HETATM   10  N1  UNL     1      30.408   6.257  49.079  1.00  0.00    -0.395 N 
HETATM   11  H7  UNL     1      30.477   5.635  49.894  1.00  0.00     0.159 HD
BRANCH  10  12
HETATM   12  C7  UNL     1      31.575   6.656  48.314  1.00  0.00     0.157 C 
BRANCH  12  13
HETATM   13  C8  UNL     1      32.384   5.440  48.037  1.00  0.00    -0.038 A 
HETATM   14  C9  UNL     1      33.720   5.439  48.335  1.00  0.00     0.028 A 
HETATM   15  C10 UNL     1      34.575   4.380  48.127  1.00  0.00     0.116 A 
HETATM   16  N2  UNL     1      34.016   3.279  47.588  1.00  0.00    -0.273 NA
HETATM   17  C11 UNL     1      32.709   3.216  47.272  1.00  0.00     0.116 A 
HETATM   18  C12 UNL     1      31.850   4.291  47.485  1.00  0.00     0.028 A 
ENDBRANCH  12  13
ENDBRANCH  10  12
ENDBRANCH   9  10
ENDBRANCH   7   8
ENDBRANCH   5   6
ENDBRANCH   2   5
BRANCH   3  19
HETATM   19  O2  UNL     1      24.430   2.708  52.137  1.00  0.00    -0.235 OA
BRANCH  19  20
HETATM   20  C13 UNL     1      25.136   1.673  52.733  1.00  0.00     0.099 A 
HETATM   21  C14 UNL     1      24.692   0.407  53.056  1.00  0.00     0.039 A 
HETATM   22  C15 UNL     1      25.561  -0.488  53.651  1.00  0.00     0.004 A 
HETATM   23  C16 UNL     1      26.872  -0.152  53.935  1.00  0.00     0.016 A 
HETATM   24  C17 UNL     1      27.316   1.133  53.605  1.00  0.00     0.050 A 
HETATM   25  C19 UNL     1      26.451   2.033  53.009  1.00  0.00     0.055 A 
BRANCH  24  26
HETATM   26  C18 UNL     1      28.736   1.500  53.912  1.00  0.00     0.417 C 
HETATM   27  F1  UNL     1      29.061   1.086  55.187  1.00  0.00    -0.166 F 
HETATM   28  F2  UNL     1      28.936   2.843  53.762  1.00  0.00    -0.166 F 
HETATM   29  F3  UNL     1      29.589   0.796  53.056  1.00  0.00    -0.166 F 
ENDBRANCH  24  26
ENDBRANCH  19  20
ENDBRANCH   3  19
TORSDOF 9
ENDMDL
MODEL 3
REMARK VINA RESULT:      -7.9      5.005      6.521
REMARK  9 active torsions:
REMARK  status: ('A' for Active; 'I' for Inactive)
REMARK    1  A    between atoms: C1_2  and  C2_3 
REMARK       I    between atoms: C1_2  and  N3_16 
REMARK    2  A    between atoms: C2_3  and  C3_4 
REMARK    3  A    between atoms: C4_5  and  C5_6 
REMARK    4  A    between atoms: C6_7  and  N1_8 
REMARK    5  A    between atoms: N1_8  and  C7_9 
REMARK    6  A    between atoms: C7_9  and  C8_10 
REMARK    7  A    between atoms: N3_16  and  O2_17 
REMARK    8  A    between atoms: O2_17  and  C13_18 
REMARK    9  A    between atoms: C17_22  and  C18_23 
ROOT
HETATM    1  O1  UNL     1      29.116   8.741  48.461  1.00  0.00    -0.271 OA
HETATM    2  C1  UNL     1      28.867   7.495  48.470  1.00  0.00     0.244 C 
HETATM    3  N3  UNL     1      29.895   6.640  48.954  1.00  0.00    -0.229 N 
HETATM    4  H14 UNL     1      30.014   5.613  49.092  1.00  0.00     0.198 HD
ENDROOT
BRANCH   2   5
HETATM    5  C2  UNL     1      27.696   6.637  48.078  1.00  0.00     0.132 C 
BRANCH   5   6
HETATM    6  C3  UNL     1      28.004   5.272  48.562  1.00  0.00    -0.017 C 
HETATM    7  C4  UNL     1      27.201   4.366  49.076  1.00  0.00    -0.002 C 
BRANCH   7   8
HETATM    8  C5  UNL     1      25.778   4.609  49.254  1.00  0.00     0.016 C 
HETATM    9  C6  UNL     1      25.146   4.049  50.271  1.00  0.00     0.083 C 
BRANCH   9  10
HETATM   10  N1  UNL     1      25.750   3.202  51.240  1.00  0.00    -0.395 N 
HETATM   11  H7  UNL     1      26.693   3.201  51.648  1.00  0.00     0.159 HD
BRANCH  10  12
HETATM   12  C7  UNL     1      24.745   2.227  51.622  1.00  0.00     0.157 C 
BRANCH  12  13
HETATM   13  C8  UNL     1      25.430   1.102  52.310  1.00  0.00    -0.038 A 
HETATM   14  C9  UNL     1      24.794   0.452  53.333  1.00  0.00     0.028 A 
HETATM   15  C10 UNL     1      25.320  -0.601  54.048  1.00  0.00     0.116 A 
HETATM   16  N2  UNL     1      26.557  -0.991  53.682  1.00  0.00    -0.273 NA
HETATM   17  C11 UNL     1      27.237  -0.394  52.685  1.00  0.00     0.116 A 
HETATM   18  C12 UNL     1      26.698   0.671  51.966  1.00  0.00     0.028 A 
ENDBRANCH  12  13
ENDBRANCH  10  12
ENDBRANCH   9  10
ENDBRANCH   7   8
ENDBRANCH   5   6
ENDBRANCH   2   5
BRANCH   3  19
HETATM   19  O2  UNL     1      31.154   6.840  49.439  1.00  0.00    -0.235 OA
BRANCH  19  20
HETATM   20  C13 UNL     1      32.289   6.297  48.853  1.00  0.00     0.099 A 
HETATM   21  C14 UNL     1      33.533   6.874  48.699  1.00  0.00     0.039 A 
HETATM   22  C15 UNL     1      34.543   6.159  48.082  1.00  0.00     0.004 A 
HETATM   23  C16 UNL     1      34.343   4.874  47.611  1.00  0.00     0.016 A 
HETATM   24  C17 UNL     1      33.079   4.296  47.771  1.00  0.00     0.050 A 
HETATM   25  C19 UNL     1      32.065   5.005  48.388  1.00  0.00     0.055 A 
BRANCH  24  26
HETATM   26  C18 UNL     1      32.861   2.903  47.262  1.00  0.00     0.417 C 
HETATM   27  F1  UNL     1      33.843   2.580  46.348  1.00  0.00    -0.166 F 
HETATM   28  F2  UNL     1      31.615   2.773  46.716  1.00  0.00    -0.166 F 
HETATM   29  F3  UNL     1      33.012   1.997  48.316  1.00  0.00    -0.166 F 
ENDBRANCH  24  26
ENDBRANCH  19  20
ENDBRANCH   3  19
TORSDOF 9
ENDMDL
MODEL 4
REMARK VINA RESULT:      -7.8      4.620      8.335
REMARK  9 active torsions:
REMARK  status: ('A' for Active; 'I' for Inactive)
REMARK    1  A    between atoms: C1_2  and  C2_3 
REMARK       I    between atoms: C1_2  and  N3_16 
REMARK    2  A    between atoms: C2_3  and  C3_4 
REMARK    3  A    between atoms: C4_5  and  C5_6 
REMARK    4  A    between atoms: C6_7  and  N1_8 
REMARK    5  A    between atoms: N1_8  and  C7_9 
REMARK    6  A    between atoms: C7_9  and  C8_10 
REMARK    7  A    between atoms: N3_16  and  O2_17 
REMARK    8  A    between atoms: O2_17  and  C13_18 
REMARK    9  A    between atoms: C17_22  and  C18_23 
ROOT
HETATM    1  O1  UNL     1      24.469   6.467  51.173  1.00  0.00    -0.271 OA
HETATM    2  C1  UNL     1      25.006   5.658  50.354  1.00  0.00     0.244 C 
HETATM    3  N3  UNL     1      25.143   4.309  50.782  1.00  0.00    -0.229 N 
HETATM    4  H14 UNL     1      25.523   3.427  50.375  1.00  0.00     0.198 HD
ENDROOT
BRANCH   2   5
HETATM    5  C2  UNL     1      25.569   5.763  48.963  1.00  0.00     0.132 C 
BRANCH   5   6
HETATM    6  C3  UNL     1      26.730   4.845  48.918  1.00  0.00    -0.017 C 
HETATM    7  C4  UNL     1      27.964   5.077  48.524  1.00  0.00    -0.002 C 
BRANCH   7   8
HETATM    8  C5  UNL     1      28.385   6.381  48.038  1.00  0.00     0.016 C 
HETATM    9  C6  UNL     1      29.568   6.855  48.392  1.00  0.00     0.083 C 
BRANCH   9  10
HETATM   10  N1  UNL     1      30.498   6.183  49.232  1.00  0.00    -0.395 N 
HETATM   11  H7  UNL     1      30.358   5.547  50.027  1.00  0.00     0.159 HD
BRANCH  10  12
HETATM   12  C7  UNL     1      31.820   6.556  48.768  1.00  0.00     0.157 C 
BRANCH  12  13
HETATM   13  C8  UNL     1      32.166   5.689  47.611  1.00  0.00    -0.038 A 
HETATM   14  C9  UNL     1      32.063   4.330  47.734  1.00  0.00     0.028 A 
HETATM   15  C10 UNL     1      32.353   3.422  46.740  1.00  0.00     0.116 A 
HETATM   16  N2  UNL     1      32.766   3.952  45.572  1.00  0.00    -0.273 NA
HETATM   17  C11 UNL     1      32.889   5.280  45.386  1.00  0.00     0.116 A 
HETATM   18  C12 UNL     1      32.593   6.192  46.397  1.00  0.00     0.028 A 
ENDBRANCH  12  13
ENDBRANCH  10  12
ENDBRANCH   9  10
ENDBRANCH   7   8
ENDBRANCH   5   6
ENDBRANCH   2   5
BRANCH   3  19
HETATM   19  O2  UNL     1      24.821   3.631  51.922  1.00  0.00    -0.235 OA
BRANCH  19  20
HETATM   20  C13 UNL     1      25.168   2.306  52.141  1.00  0.00     0.099 A 
HETATM   21  C14 UNL     1      26.339   1.658  51.802  1.00  0.00     0.039 A 
HETATM   22  C15 UNL     1      26.491   0.320  52.112  1.00  0.00     0.004 A 
HETATM   23  C16 UNL     1      25.499  -0.396  52.757  1.00  0.00     0.016 A 
HETATM   24  C17 UNL     1      24.315   0.266  53.098  1.00  0.00     0.050 A 
HETATM   25  C19 UNL     1      24.156   1.606  52.791  1.00  0.00     0.055 A 
BRANCH  24  26
HETATM   26  C18 UNL     1      23.238  -0.507  53.797  1.00  0.00     0.417 C 
HETATM   27  F1  UNL     1      23.727  -1.023  54.980  1.00  0.00    -0.166 F 
HETATM   28  F2  UNL     1      22.746  -1.495  52.992  1.00  0.00    -0.166 F 
HETATM   29  F3  UNL     1      22.207   0.363  54.162  1.00  0.00    -0.166 F 
ENDBRANCH  24  26
ENDBRANCH  19  20
ENDBRANCH   3  19
TORSDOF 9
ENDMDL
MODEL 5
REMARK VINA RESULT:      -7.7      2.163      5.474
REMARK  9 active torsions:
REMARK  status: ('A' for Active; 'I' for Inactive)
REMARK    1  A    between atoms: C1_2  and  C2_3 
REMARK       I    between atoms: C1_2  and  N3_16 
REMARK    2  A    between atoms: C2_3  and  C3_4 
REMARK    3  A    between atoms: C4_5  and  C5_6 
REMARK    4  A    between atoms: C6_7  and  N1_8 
REMARK    5  A    between atoms: N1_8  and  C7_9 
REMARK    6  A    between atoms: C7_9  and  C8_10 
REMARK    7  A    between atoms: N3_16  and  O2_17 
REMARK    8  A    between atoms: O2_17  and  C13_18 
REMARK    9  A    between atoms: C17_22  and  C18_23 
ROOT
HETATM    1  O1  UNL     1      22.000  -1.917  55.006  1.00  0.00    -0.271 OA
HETATM    2  C1  UNL     1      21.904  -0.780  54.448  1.00  0.00     0.244 C 
HETATM    3  N3  UNL     1      23.082  -0.262  53.842  1.00  0.00    -0.229 N 
HETATM    4  H14 UNL     1      23.339   0.603  53.321  1.00  0.00     0.198 HD
ENDROOT
BRANCH   2   5
HETATM    5  C2  UNL     1      20.801   0.222  54.248  1.00  0.00     0.132 C 
BRANCH   5   6
HETATM    6  C3  UNL     1      20.442   0.160  52.812  1.00  0.00    -0.017 C 
HETATM    7  C4  UNL     1      20.569   1.077  51.878  1.00  0.00    -0.002 C 
BRANCH   7   8
HETATM    8  C5  UNL     1      21.128   2.390  52.158  1.00  0.00     0.016 C 
HETATM    9  C6  UNL     1      22.257   2.753  51.575  1.00  0.00     0.083 C 
BRANCH   9  10
HETATM   10  N1  UNL     1      23.000   1.950  50.667  1.00  0.00    -0.395 N 
HETATM   11  H7  UNL     1      23.499   1.061  50.797  1.00  0.00     0.159 HD
BRANCH  10  12
HETATM   12  C7  UNL     1      22.958   2.627  49.384  1.00  0.00     0.157 C 
BRANCH  12  13
HETATM   13  C8  UNL     1      24.103   3.573  49.323  1.00  0.00    -0.038 A 
HETATM   14  C9  UNL     1      25.356   3.135  49.654  1.00  0.00     0.028 A 
HETATM   15  C10 UNL     1      26.494   3.910  49.638  1.00  0.00     0.116 A 
HETATM   16  N2  UNL     1      26.318   5.192  49.262  1.00  0.00    -0.273 NA
HETATM   17  C11 UNL     1      25.112   5.686  48.925  1.00  0.00     0.116 A 
HETATM   18  C12 UNL     1      23.965   4.895  48.943  1.00  0.00     0.028 A 
ENDBRANCH  12  13
ENDBRANCH  10  12
ENDBRANCH   9  10
ENDBRANCH   7   8
ENDBRANCH   5   6
ENDBRANCH   2   5
BRANCH   3  19
HETATM   19  O2  UNL     1      24.363  -0.712  53.706  1.00  0.00    -0.235 OA
BRANCH  19  20
HETATM   20  C13 UNL     1      25.444   0.128  53.486  1.00  0.00     0.099 A 
HETATM   21  C14 UNL     1      25.436   1.476  53.186  1.00  0.00     0.039 A 
HETATM   22  C15 UNL     1      26.634   2.140  53.002  1.00  0.00     0.004 A 
HETATM   23  C16 UNL     1      27.850   1.491  53.111  1.00  0.00     0.016 A 
HETATM   24  C17 UNL     1      27.852   0.126  53.416  1.00  0.00     0.050 A 
HETATM   25  C19 UNL     1      26.656  -0.544  53.601  1.00  0.00     0.055 A 
BRANCH  24  26
HETATM   26  C18 UNL     1      29.169  -0.579  53.535  1.00  0.00     0.417 C 
HETATM   27  F1  UNL     1      29.483  -0.760  54.867  1.00  0.00    -0.166 F 
HETATM   28  F2  UNL     1      30.152   0.111  52.884  1.00  0.00    -0.166 F 
HETATM   29  F3  UNL     1      29.056  -1.864  52.995  1.00  0.00    -0.166 F 
ENDBRANCH  24  26
ENDBRANCH  19  20
ENDBRANCH   3  19
TORSDOF 9
ENDMDL
MODEL 6
REMARK VINA RESULT:      -7.7      3.634      5.933
REMARK  9 active torsions:
REMARK  status: ('A' for Active; 'I' for Inactive)
REMARK    1  A    between atoms: C1_2  and  C2_3 
REMARK       I    between atoms: C1_2  and  N3_16 
REMARK    2  A    between atoms: C2_3  and  C3_4 
REMARK    3  A    between atoms: C4_5  and  C5_6 
REMARK    4  A    between atoms: C6_7  and  N1_8 
REMARK    5  A    between atoms: N1_8  and  C7_9 
REMARK    6  A    between atoms: C7_9  and  C8_10 
REMARK    7  A    between atoms: N3_16  and  O2_17 
REMARK    8  A    between atoms: O2_17  and  C13_18 
REMARK    9  A    between atoms: C17_22  and  C18_23 
ROOT
HETATM    1  O1  UNL     1      27.580   2.551  51.892  1.00  0.00    -0.271 OA
HETATM    2  C1  UNL     1      26.746   2.809  50.969  1.00  0.00     0.244 C 
HETATM    3  N3  UNL     1      25.439   2.268  51.117  1.00  0.00    -0.229 N 
HETATM    4  H14 UNL     1      24.553   2.287  50.568  1.00  0.00     0.198 HD
ENDROOT
BRANCH   2   5
HETATM    5  C2  UNL     1      26.784   3.585  49.681  1.00  0.00     0.132 C 
BRANCH   5   6
HETATM    6  C3  UNL     1      25.376   3.897  49.346  1.00  0.00    -0.017 C 
HETATM    7  C4  UNL     1      24.830   5.048  49.019  1.00  0.00    -0.002 C 
BRANCH   7   8
HETATM    8  C5  UNL     1      25.607   6.275  48.939  1.00  0.00     0.016 C 
HETATM    9  C6  UNL     1      25.601   7.115  49.959  1.00  0.00     0.083 C 
BRANCH   9  10
HETATM   10  N1  UNL     1      24.879   6.923  51.170  1.00  0.00    -0.395 N 
HETATM   11  H7  UNL     1      25.128   6.436  52.040  1.00  0.00     0.159 HD
BRANCH  10  12
HETATM   12  C7  UNL     1      23.598   7.581  50.997  1.00  0.00     0.157 C 
BRANCH  12  13
HETATM   13  C8  UNL     1      22.537   6.540  51.012  1.00  0.00    -0.038 A 
HETATM   14  C9  UNL     1      22.641   5.486  51.880  1.00  0.00     0.028 A 
HETATM   15  C10 UNL     1      21.729   4.460  51.991  1.00  0.00     0.116 A 
HETATM   16  N2  UNL     1      20.667   4.536  51.164  1.00  0.00    -0.273 NA
HETATM   17  C11 UNL     1      20.506   5.545  50.288  1.00  0.00     0.116 A 
HETATM   18  C12 UNL     1      21.432   6.579  50.182  1.00  0.00     0.028 A 
ENDBRANCH  12  13
ENDBRANCH  10  12
ENDBRANCH   9  10
ENDBRANCH   7   8
ENDBRANCH   5   6
ENDBRANCH   2   5
BRANCH   3  19
HETATM   19  O2  UNL     1      24.826   1.497  52.060  1.00  0.00    -0.235 OA
BRANCH  19  20
HETATM   20  C13 UNL     1      23.496   1.108  51.977  1.00  0.00     0.099 A 
HETATM   21  C14 UNL     1      22.641   1.204  50.898  1.00  0.00     0.039 A 
HETATM   22  C15 UNL     1      21.339   0.755  51.019  1.00  0.00     0.004 A 
HETATM   23  C16 UNL     1      20.865   0.208  52.198  1.00  0.00     0.016 A 
HETATM   24  C17 UNL     1      21.737   0.113  53.287  1.00  0.00     0.050 A 
HETATM   25  C19 UNL     1      23.041   0.561  53.172  1.00  0.00     0.055 A 
BRANCH  24  26
HETATM   26  C18 UNL     1      21.224  -0.480  54.565  1.00  0.00     0.417 C 
HETATM   27  F1  UNL     1      22.285  -0.836  55.372  1.00  0.00    -0.166 F 
HETATM   28  F2  UNL     1      20.412  -1.549  54.315  1.00  0.00    -0.166 F 
HETATM   29  F3  UNL     1      20.518   0.495  55.275  1.00  0.00    -0.166 F 
ENDBRANCH  24  26
ENDBRANCH  19  20
ENDBRANCH   3  19
TORSDOF 9
ENDMDL
MODEL 7
REMARK VINA RESULT:      -7.6      3.091      4.044
REMARK  9 active torsions:
REMARK  status: ('A' for Active; 'I' for Inactive)
REMARK    1  A    between atoms: C1_2  and  C2_3 
REMARK       I    between atoms: C1_2  and  N3_16 
REMARK    2  A    between atoms: C2_3  and  C3_4 
REMARK    3  A    between atoms: C4_5  and  C5_6 
REMARK    4  A    between atoms: C6_7  and  N1_8 
REMARK    5  A    between atoms: N1_8  and  C7_9 
REMARK    6  A    between atoms: C7_9  and  C8_10 
REMARK    7  A    between atoms: N3_16  and  O2_17 
REMARK    8  A    between atoms: O2_17  and  C13_18 
REMARK    9  A    between atoms: C17_22  and  C18_23 
ROOT
HETATM    1  O1  UNL     1      27.837   4.356  48.889  1.00  0.00    -0.271 OA
HETATM    2  C1  UNL     1      26.688   4.415  49.427  1.00  0.00     0.244 C 
HETATM    3  N3  UNL     1      26.490   3.641  50.603  1.00  0.00    -0.229 N 
HETATM    4  H14 UNL     1      25.703   3.470  51.265  1.00  0.00     0.198 HD
ENDROOT
BRANCH   2   5
HETATM    5  C2  UNL     1      25.403   5.137  49.125  1.00  0.00     0.132 C 
BRANCH   5   6
HETATM    6  C3  UNL     1      24.340   4.408  49.853  1.00  0.00    -0.017 C 
HETATM    7  C4  UNL     1      23.214   3.900  49.400  1.00  0.00    -0.002 C 
BRANCH   7   8
HETATM    8  C5  UNL     1      22.833   3.998  48.000  1.00  0.00     0.016 C 
HETATM    9  C6  UNL     1      22.029   3.087  47.480  1.00  0.00     0.083 C 
BRANCH   9  10
HETATM   10  N1  UNL     1      21.482   1.982  48.189  1.00  0.00    -0.395 N 
HETATM   11  H7  UNL     1      21.879   1.063  48.425  1.00  0.00     0.159 HD
BRANCH  10  12
HETATM   12  C7  UNL     1      20.139   2.364  48.581  1.00  0.00     0.157 C 
BRANCH  12  13
HETATM   13  C8  UNL     1      19.954   2.002  50.011  1.00  0.00    -0.038 A 
HETATM   14  C9  UNL     1      19.709   0.699  50.349  1.00  0.00     0.028 A 
HETATM   15  C10 UNL     1      19.520   0.237  51.633  1.00  0.00     0.116 A 
HETATM   16  N2  UNL     1      19.589   1.172  52.602  1.00  0.00    -0.273 NA
HETATM   17  C11 UNL     1      19.826   2.470  52.336  1.00  0.00     0.116 A 
HETATM   18  C12 UNL     1      20.017   2.929  51.035  1.00  0.00     0.028 A 
ENDBRANCH  12  13
ENDBRANCH  10  12
ENDBRANCH   9  10
ENDBRANCH   7   8
ENDBRANCH   5   6
ENDBRANCH   2   5
BRANCH   3  19
HETATM   19  O2  UNL     1      27.276   2.802  51.337  1.00  0.00    -0.235 OA
BRANCH  19  20
HETATM   20  C13 UNL     1      26.781   1.699  52.019  1.00  0.00     0.099 A 
HETATM   21  C14 UNL     1      27.484   0.728  52.704  1.00  0.00     0.039 A 
HETATM   22  C15 UNL     1      26.798  -0.300  53.323  1.00  0.00     0.004 A 
HETATM   23  C16 UNL     1      25.418  -0.386  53.277  1.00  0.00     0.016 A 
HETATM   24  C17 UNL     1      24.712   0.601  52.581  1.00  0.00     0.050 A 
HETATM   25  C19 UNL     1      25.393   1.633  51.960  1.00  0.00     0.055 A 
BRANCH  24  26
HETATM   26  C18 UNL     1      23.217   0.509  52.530  1.00  0.00     0.417 C 
HETATM   27  F1  UNL     1      22.665   1.356  53.470  1.00  0.00    -0.166 F 
HETATM   28  F2  UNL     1      22.800  -0.778  52.718  1.00  0.00    -0.166 F 
HETATM   29  F3  UNL     1      22.768   0.976  51.291  1.00  0.00    -0.166 F 
ENDBRANCH  24  26
ENDBRANCH  19  20
ENDBRANCH   3  19
TORSDOF 9
ENDMDL
MODEL 8
REMARK VINA RESULT:      -7.6      5.429      8.323
REMARK  9 active torsions:
REMARK  status: ('A' for Active; 'I' for Inactive)
REMARK    1  A    between atoms: C1_2  and  C2_3 
REMARK       I    between atoms: C1_2  and  N3_16 
REMARK    2  A    between atoms: C2_3  and  C3_4 
REMARK    3  A    between atoms: C4_5  and  C5_6 
REMARK    4  A    between atoms: C6_7  and  N1_8 
REMARK    5  A    between atoms: N1_8  and  C7_9 
REMARK    6  A    between atoms: C7_9  and  C8_10 
REMARK    7  A    between atoms: N3_16  and  O2_17 
REMARK    8  A    between atoms: O2_17  and  C13_18 
REMARK    9  A    between atoms: C17_22  and  C18_23 
ROOT
HETATM    1  O1  UNL     1      21.966  -1.965  55.116  1.00  0.00    -0.271 OA
HETATM    2  C1  UNL     1      21.960  -1.243  54.071  1.00  0.00     0.244 C 
HETATM    3  N3  UNL     1      20.690  -0.951  53.500  1.00  0.00    -0.229 N 
HETATM    4  H14 UNL     1      20.343  -0.411  52.678  1.00  0.00     0.198 HD
ENDROOT
BRANCH   2   5
HETATM    5  C2  UNL     1      23.012  -0.575  53.228  1.00  0.00     0.132 C 
BRANCH   5   6
HETATM    6  C3  UNL     1      23.003   0.854  53.613  1.00  0.00    -0.017 C 
HETATM    7  C4  UNL     1      23.139   1.924  52.860  1.00  0.00    -0.002 C 
BRANCH   7   8
HETATM    8  C5  UNL     1      23.333   1.834  51.422  1.00  0.00     0.016 C 
HETATM    9  C6  UNL     1      24.413   2.367  50.878  1.00  0.00     0.083 C 
BRANCH   9  10
HETATM   10  N1  UNL     1      25.439   3.043  51.595  1.00  0.00    -0.395 N 
HETATM   11  H7  UNL     1      25.420   3.904  52.157  1.00  0.00     0.159 HD
BRANCH  10  12
HETATM   12  C7  UNL     1      26.653   2.272  51.407  1.00  0.00     0.157 C 
BRANCH  12  13
HETATM   13  C8  UNL     1      26.693   1.212  52.449  1.00  0.00    -0.038 A 
HETATM   14  C9  UNL     1      26.746  -0.102  52.071  1.00  0.00     0.028 A 
HETATM   15  C10 UNL     1      26.787  -1.172  52.936  1.00  0.00     0.116 A 
HETATM   16  N2  UNL     1      26.771  -0.860  54.247  1.00  0.00    -0.273 NA
HETATM   17  C11 UNL     1      26.719   0.412  54.685  1.00  0.00     0.116 A 
HETATM   18  C12 UNL     1      26.678   1.489  53.803  1.00  0.00     0.028 A 
ENDBRANCH  12  13
ENDBRANCH  10  12
ENDBRANCH   9  10
ENDBRANCH   7   8
ENDBRANCH   5   6
ENDBRANCH   2   5
BRANCH   3  19
HETATM   19  O2  UNL     1      19.404  -1.275  53.818  1.00  0.00    -0.235 OA
BRANCH  19  20
HETATM   20  C13 UNL     1      18.333  -1.064  52.960  1.00  0.00     0.099 A 
HETATM   21  C14 UNL     1      17.086  -1.653  52.986  1.00  0.00     0.039 A 
HETATM   22  C15 UNL     1      16.148  -1.304  52.033  1.00  0.00     0.004 A 
HETATM   23  C16 UNL     1      16.423  -0.373  51.047  1.00  0.00     0.016 A 
HETATM   24  C17 UNL     1      17.689   0.220  51.027  1.00  0.00     0.050 A 
HETATM   25  C19 UNL     1      18.632  -0.125  51.979  1.00  0.00     0.055 A 
BRANCH  24  26
HETATM   26  C18 UNL     1      17.990   1.229  49.960  1.00  0.00     0.417 C 
HETATM   27  F1  UNL     1      18.060   2.490  50.516  1.00  0.00    -0.166 F 
HETATM   28  F2  UNL     1      17.055   1.179  48.964  1.00  0.00    -0.166 F 
HETATM   29  F3  UNL     1      19.259   0.977  49.431  1.00  0.00    -0.166 F 
ENDBRANCH  24  26
ENDBRANCH  19  20
ENDBRANCH   3  19
TORSDOF 9
ENDMDL
MODEL 9
REMARK VINA RESULT:      -7.6      4.753      8.347
REMARK  9 active torsions:
REMARK  status: ('A' for Active; 'I' for Inactive)
REMARK    1  A    between atoms: C1_2  and  C2_3 
REMARK       I    between atoms: C1_2  and  N3_16 
REMARK    2  A    between atoms: C2_3  and  C3_4 
REMARK    3  A    between atoms: C4_5  and  C5_6 
REMARK    4  A    between atoms: C6_7  and  N1_8 
REMARK    5  A    between atoms: N1_8  and  C7_9 
REMARK    6  A    between atoms: C7_9  and  C8_10 
REMARK    7  A    between atoms: N3_16  and  O2_17 
REMARK    8  A    between atoms: O2_17  and  C13_18 
REMARK    9  A    between atoms: C17_22  and  C18_23 
ROOT
HETATM    1  O1  UNL     1      28.870   4.769  48.248  1.00  0.00    -0.271 OA
HETATM    2  C1  UNL     1      27.809   5.300  48.703  1.00  0.00     0.244 C 
HETATM    3  N3  UNL     1      27.013   4.502  49.569  1.00  0.00    -0.229 N 
HETATM    4  H14 UNL     1      26.120   4.625  50.094  1.00  0.00     0.198 HD
ENDROOT
BRANCH   2   5
HETATM    5  C2  UNL     1      27.136   6.637  48.554  1.00  0.00     0.132 C 
BRANCH   5   6
HETATM    6  C3  UNL     1      27.803   7.311  47.417  1.00  0.00    -0.017 C 
HETATM    7  C4  UNL     1      28.872   8.078  47.410  1.00  0.00    -0.002 C 
BRANCH   7   8
HETATM    8  C5  UNL     1      29.602   8.393  48.628  1.00  0.00     0.016 C 
HETATM    9  C6  UNL     1      30.703   7.721  48.917  1.00  0.00     0.083 C 
BRANCH   9  10
HETATM   10  N1  UNL     1      31.258   6.683  48.118  1.00  0.00    -0.395 N 
HETATM   11  H7  UNL     1      30.925   6.239  47.253  1.00  0.00     0.159 HD
BRANCH  10  12
HETATM   12  C7  UNL     1      32.499   6.288  48.757  1.00  0.00     0.157 C 
BRANCH  12  13
HETATM   13  C8  UNL     1      33.023   5.090  48.049  1.00  0.00    -0.038 A 
HETATM   14  C9  UNL     1      32.170   4.324  47.301  1.00  0.00     0.028 A 
HETATM   15  C10 UNL     1      32.530   3.195  46.600  1.00  0.00     0.116 A 
HETATM   16  N2  UNL     1      33.831   2.851  46.683  1.00  0.00    -0.273 NA
HETATM   17  C11 UNL     1      34.721   3.561  47.401  1.00  0.00     0.116 A 
HETATM   18  C12 UNL     1      34.348   4.703  48.107  1.00  0.00     0.028 A 
ENDBRANCH  12  13
ENDBRANCH  10  12
ENDBRANCH   9  10
ENDBRANCH   7   8
ENDBRANCH   5   6
ENDBRANCH   2   5
BRANCH   3  19
HETATM   19  O2  UNL     1      27.114   3.233  50.060  1.00  0.00    -0.235 OA
BRANCH  19  20
HETATM   20  C13 UNL     1      26.138   2.644  50.852  1.00  0.00     0.099 A 
HETATM   21  C14 UNL     1      24.845   3.071  51.078  1.00  0.00     0.039 A 
HETATM   22  C15 UNL     1      24.021   2.336  51.909  1.00  0.00     0.004 A 
HETATM   23  C16 UNL     1      24.455   1.177  52.525  1.00  0.00     0.016 A 
HETATM   24  C17 UNL     1      25.767   0.750  52.292  1.00  0.00     0.050 A 
HETATM   25  C19 UNL     1      26.596   1.481  51.460  1.00  0.00     0.055 A 
BRANCH  24  26
HETATM   26  C18 UNL     1      26.239  -0.507  52.958  1.00  0.00     0.417 C 
HETATM   27  F1  UNL     1      26.641  -1.419  52.003  1.00  0.00    -0.166 F 
HETATM   28  F2  UNL     1      25.266  -1.029  53.762  1.00  0.00    -0.166 F 
HETATM   29  F3  UNL     1      27.380  -0.227  53.716  1.00  0.00    -0.166 F 
ENDBRANCH  24  26
ENDBRANCH  19  20
ENDBRANCH   3  19
TORSDOF 9
ENDMDL
