MODEL 1
REMARK VINA RESULT:      -7.9      0.000      0.000
REMARK  4 active torsions:
REMARK  status: ('A' for Active; 'I' for Inactive)
REMARK    1  A    between atoms: C2_2  and  C3_3 
REMARK       I    between atoms: C3_3  and  N1_5 
REMARK    2  A    between atoms: C5_7  and  C6_8 
REMARK    3  A    between atoms: C9_14  and  C10_15 
REMARK    4  A    between atoms: C15_24  and  O3_25 
ROOT
HETATM    1  C6  UNL     1      26.414   3.075  50.769  1.00  0.00     0.030 A 
HETATM    2  O2  UNL     1      25.918   3.454  49.487  1.00  0.00     0.000 OA
HETATM    3  C7  UNL     1      24.528   3.246  49.257  1.00  0.00     0.282 A 
HETATM    4  N2  UNL     1      23.109   3.018  49.127  1.00  0.00    -0.030 NA
HETATM    5  C8  UNL     1      22.412   4.261  49.044  1.00  0.00     0.389 A 
HETATM    6  N3  UNL     1      23.440   3.398  49.149  1.00  0.00     0.090 N 
HETATM    7  C9  UNL     1      24.553   4.289  49.231  1.00  0.00     0.292 A 
HETATM    8  C10 UNL     1      25.865   3.486  49.379  1.00  0.00     0.088 A 
HETATM    9  C11 UNL     1      26.344   5.073  49.478  1.00  0.00     0.042 C 
HETATM   10 CL1  UNL     1      27.838   5.204  48.580  1.00  0.00    -0.086 Cl
HETATM   11  C12 UNL     1      25.793   6.145  50.052  1.00  0.00     0.104 C 
HETATM   12  N4  UNL     1      24.706   6.730  50.824  1.00  0.00    -0.384 N 
HETATM   13  C13 UNL     1      23.308   7.102  50.643  1.00  0.00     0.233 C 
HETATM   14  N5  UNL     1      22.298   6.109  50.362  1.00  0.00    -0.219 NA
HETATM   15  C14 UNL     1      21.003   6.804  50.568  1.00  0.00     0.138 C 
HETATM   16  N6  UNL     1      22.152   5.642  48.998  1.00  0.00    -0.298 N 
HETATM   17  H11 UNL     1      25.139   6.890  51.798  1.00  0.00     0.160 HD
HETATM   18  H17 UNL     1      21.961   5.717  47.984  1.00  0.00     0.178 HD
ENDROOT
BRANCH   1  19
HETATM   19  C5  UNL     1      26.188   1.619  50.994  1.00  0.00     0.035 C 
HETATM   20  C4  UNL     1      24.933   1.397  51.867  1.00  0.00     0.133 C 
HETATM   21  N1  UNL     1      25.228   0.264  52.708  1.00  0.00    -0.346 N 
HETATM   22  C3  UNL     1      24.120   0.136  53.585  1.00  0.00     0.242 C 
HETATM   23  C17 UNL     1      26.516  -0.276  52.312  1.00  0.00     0.158 C 
HETATM   24  O1  UNL     1      23.546   1.147  53.028  1.00  0.00    -0.268 OA
HETATM   25  C15 UNL     1      27.221   1.029  51.958  1.00  0.00     0.144 C 
BRANCH  22  26
HETATM   26  C2  UNL     1      23.644  -0.674  54.671  1.00  0.00     0.064 C 
HETATM   27  C1  UNL     1      22.533  -1.278  54.966  1.00  0.00     0.017 C 
ENDBRANCH  22  26
BRANCH  25  28
HETATM   28  O3  UNL     1      27.161   1.817  53.102  1.00  0.00    -0.389 OA
HETATM   29  C16 UNL     1      28.376   2.181  53.626  1.00  0.00     0.202 C 
ENDBRANCH  25  28
ENDBRANCH   1  19
TORSDOF 4
ENDMDL
MODEL 2
REMARK VINA RESULT:      -7.7      6.774      8.673
REMARK  4 active torsions:
REMARK  status: ('A' for Active; 'I' for Inactive)
REMARK    1  A    between atoms: C2_2  and  C3_3 
REMARK       I    between atoms: C3_3  and  N1_5 
REMARK    2  A    between atoms: C5_7  and  C6_8 
REMARK    3  A    between atoms: C9_14  and  C10_15 
REMARK    4  A    between atoms: C15_24  and  O3_25 
ROOT
HETATM    1  C6  UNL     1      32.006   8.236  47.583  1.00  0.00     0.030 A 
HETATM    2  O2  UNL     1      31.106   9.139  46.944  1.00  0.00     0.000 OA
HETATM    3  C7  UNL     1      29.894   8.581  46.447  1.00  0.00     0.282 A 
HETATM    4  N2  UNL     1      28.687   7.930  45.997  1.00  0.00    -0.030 NA
HETATM    5  C8  UNL     1      27.568   8.376  46.761  1.00  0.00     0.389 A 
HETATM    6  N3  UNL     1      28.841   8.269  46.337  1.00  0.00     0.090 N 
HETATM    7  C9  UNL     1      29.507   9.191  47.201  1.00  0.00     0.292 A 
HETATM    8  C10 UNL     1      31.021   9.210  46.889  1.00  0.00     0.088 A 
HETATM    9  C11 UNL     1      30.859  10.231  48.189  1.00  0.00     0.042 C 
HETATM   10 CL1  UNL     1      31.918  11.590  47.897  1.00  0.00    -0.086 Cl
HETATM   11  C12 UNL     1      30.094  10.180  49.283  1.00  0.00     0.104 C 
HETATM   12  N4  UNL     1      29.090   9.484  50.075  1.00  0.00    -0.384 N 
HETATM   13  C13 UNL     1      27.659   9.211  50.037  1.00  0.00     0.233 C 
HETATM   14  N5  UNL     1      27.074   8.419  48.979  1.00  0.00    -0.219 NA
HETATM   15  C14 UNL     1      25.704   8.097  49.449  1.00  0.00     0.138 C 
HETATM   16  N6  UNL     1      26.792   9.063  47.712  1.00  0.00    -0.298 N 
HETATM   17  H11 UNL     1      29.651   9.072  50.898  1.00  0.00     0.160 HD
HETATM   18  H17 UNL     1      26.346   9.740  47.070  1.00  0.00     0.178 HD
ENDROOT
BRANCH   1  19
HETATM   19  C5  UNL     1      32.422   7.170  46.628  1.00  0.00     0.035 C 
HETATM   20  C4  UNL     1      31.882   5.796  47.086  1.00  0.00     0.133 C 
HETATM   21  N1  UNL     1      32.902   4.834  46.748  1.00  0.00    -0.346 N 
HETATM   22  C3  UNL     1      32.451   3.596  47.272  1.00  0.00     0.242 C 
HETATM   23  C17 UNL     1      33.951   5.519  46.015  1.00  0.00     0.158 C 
HETATM   24  O1  UNL     1      31.378   4.158  47.714  1.00  0.00    -0.268 OA
HETATM   25  C15 UNL     1      33.917   6.857  46.746  1.00  0.00     0.144 C 
BRANCH  22  26
HETATM   26  C2  UNL     1      32.845   2.219  47.379  1.00  0.00     0.064 C 
HETATM   27  C1  UNL     1      32.421   1.088  46.901  1.00  0.00     0.017 C 
ENDBRANCH  22  26
BRANCH  25  28
HETATM   28  O3  UNL     1      34.135   6.563  48.088  1.00  0.00    -0.389 OA
HETATM   29  C16 UNL     1      35.405   6.811  48.541  1.00  0.00     0.202 C 
ENDBRANCH  25  28
ENDBRANCH   1  19
TORSDOF 4
ENDMDL
MODEL 3
REMARK VINA RESULT:      -7.6      2.587      4.207
REMARK  4 active torsions:
REMARK  status: ('A' for Active; 'I' for Inactive)
REMARK    1  A    between atoms: C2_2  and  C3_3 
REMARK       I    between atoms: C3_3  and  N1_5 
REMARK    2  A    between atoms: C5_7  and  C6_8 
REMARK    3  A    between atoms: C9_14  and  C10_15 
REMARK    4  A    between atoms: C15_24  and  O3_25 
ROOT
HETATM    1  C6  UNL     1      24.054   1.259  51.785  1.00  0.00     0.030 A 
HETATM    2  O2  UNL     1      22.874   2.040  51.962  1.00  0.00     0.000 OA
HETATM    3  C7  UNL     1      23.063   3.396  52.355  1.00  0.00     0.282 A 
HETATM    4  N2  UNL     1      23.356   4.758  52.731  1.00  0.00    -0.030 NA
HETATM    5  C8  UNL     1      23.006   5.651  51.673  1.00  0.00     0.389 A 
HETATM    6  N3  UNL     1      23.165   4.495  52.345  1.00  0.00     0.090 N 
HETATM    7  C9  UNL     1      22.666   3.546  51.401  1.00  0.00     0.292 A 
HETATM    8  C10 UNL     1      22.777   2.117  51.978  1.00  0.00     0.088 A 
HETATM    9  C11 UNL     1      22.196   1.892  50.439  1.00  0.00     0.042 C 
HETATM   10 CL1  UNL     1      20.988   0.633  50.536  1.00  0.00    -0.086 Cl
HETATM   11  C12 UNL     1      22.468   2.493  49.278  1.00  0.00     0.104 C 
HETATM   12  N4  UNL     1      23.216   3.498  48.535  1.00  0.00    -0.384 N 
HETATM   13  C13 UNL     1      23.247   4.946  48.375  1.00  0.00     0.233 C 
HETATM   14  N5  UNL     1      23.577   5.816  49.480  1.00  0.00    -0.219 NA
HETATM   15  C14 UNL     1      23.821   7.146  48.867  1.00  0.00     0.138 C 
HETATM   16  N6  UNL     1      22.538   6.135  50.439  1.00  0.00    -0.298 N 
HETATM   17  H11 UNL     1      23.941   2.923  47.983  1.00  0.00     0.160 HD
HETATM   18  H17 UNL     1      21.638   6.522  50.769  1.00  0.00     0.178 HD
ENDROOT
BRANCH   1  19
HETATM   19  C5  UNL     1      24.822   1.199  53.060  1.00  0.00     0.035 C 
HETATM   20  C4  UNL     1      26.287   1.634  52.828  1.00  0.00     0.133 C 
HETATM   21  N1  UNL     1      27.090   0.808  53.694  1.00  0.00    -0.346 N 
HETATM   22  C3  UNL     1      28.438   1.131  53.393  1.00  0.00     0.242 C 
HETATM   23  C17 UNL     1      26.201   0.002  54.511  1.00  0.00     0.158 C 
HETATM   24  O1  UNL     1      28.050   1.993  52.517  1.00  0.00    -0.268 OA
HETATM   25  C15 UNL     1      25.098  -0.245  53.487  1.00  0.00     0.144 C 
BRANCH  22  26
HETATM   26  C2  UNL     1      29.780   0.783  53.768  1.00  0.00     0.064 C 
HETATM   27  C1  UNL     1      30.503  -0.296  53.750  1.00  0.00     0.017 C 
ENDBRANCH  22  26
BRANCH  25  28
HETATM   28  O3  UNL     1      25.718  -0.847  52.397  1.00  0.00    -0.389 OA
HETATM   29  C16 UNL     1      26.418  -1.992  52.683  1.00  0.00     0.202 C 
ENDBRANCH  25  28
ENDBRANCH   1  19
TORSDOF 4
ENDMDL
MODEL 4
REMARK VINA RESULT:      -7.3      3.034      6.377
REMARK  4 active torsions:
REMARK  status: ('A' for Active; 'I' for Inactive)
REMARK    1  A    between atoms: C2_2  and  C3_3 
REMARK       I    between atoms: C3_3  and  N1_5 
REMARK    2  A    between atoms: C5_7  and  C6_8 
REMARK    3  A    between atoms: C9_14  and  C10_15 
REMARK    4  A    between atoms: C15_24  and  O3_25 
ROOT
HETATM    1  C6  UNL     1      24.868   6.617  49.820  1.00  0.00     0.030 A 
HETATM    2  O2  UNL     1      23.657   5.903  49.582  1.00  0.00     0.000 OA
HETATM    3  C7  UNL     1      23.792   4.556  49.141  1.00  0.00     0.282 A 
HETATM    4  N2  UNL     1      24.029   3.196  48.719  1.00  0.00    -0.030 NA
HETATM    5  C8  UNL     1      23.607   2.282  49.731  1.00  0.00     0.389 A 
HETATM    6  N3  UNL     1      23.840   3.454  49.110  1.00  0.00     0.090 N 
HETATM    7  C9  UNL     1      23.362   4.389  50.078  1.00  0.00     0.292 A 
HETATM    8  C10 UNL     1      23.557   5.832  49.561  1.00  0.00     0.088 A 
HETATM    9  C11 UNL     1      22.946   6.026  51.092  1.00  0.00     0.042 C 
HETATM   10 CL1  UNL     1      21.802   7.346  51.014  1.00  0.00    -0.086 Cl
HETATM   11  C12 UNL     1      23.156   5.368  52.235  1.00  0.00     0.104 C 
HETATM   12  N4  UNL     1      23.834   4.300  52.956  1.00  0.00    -0.384 N 
HETATM   13  C13 UNL     1      23.791   2.847  53.060  1.00  0.00     0.233 C 
HETATM   14  N5  UNL     1      24.109   2.005  51.930  1.00  0.00    -0.219 NA
HETATM   15  C14 UNL     1      24.271   0.642  52.496  1.00  0.00     0.138 C 
HETATM   16  N6  UNL     1      23.083   1.774  50.933  1.00  0.00    -0.298 N 
HETATM   17  H11 UNL     1      24.570   4.817  53.549  1.00  0.00     0.160 HD
HETATM   18  H17 UNL     1      22.174   1.445  50.564  1.00  0.00     0.178 HD
ENDROOT
BRANCH   1  19
HETATM   19  C5  UNL     1      25.673   6.689  48.568  1.00  0.00     0.035 C 
HETATM   20  C4  UNL     1      26.906   5.762  48.667  1.00  0.00     0.133 C 
HETATM   21  N1  UNL     1      27.973   6.443  47.977  1.00  0.00    -0.346 N 
HETATM   22  C3  UNL     1      29.128   5.642  48.169  1.00  0.00     0.242 C 
HETATM   23  C17 UNL     1      27.431   7.646  47.372  1.00  0.00     0.158 C 
HETATM   24  O1  UNL     1      28.441   4.791  48.851  1.00  0.00    -0.268 OA
HETATM   25  C15 UNL     1      26.421   8.020  48.451  1.00  0.00     0.144 C 
BRANCH  22  26
HETATM   26  C2  UNL     1      30.526   5.604  47.844  1.00  0.00     0.064 C 
HETATM   27  C1  UNL     1      31.371   4.693  47.466  1.00  0.00     0.017 C 
ENDBRANCH  22  26
BRANCH  25  28
HETATM   28  O3  UNL     1      27.151   8.145  49.629  1.00  0.00    -0.389 OA
HETATM   29  C16 UNL     1      27.513   9.427  49.958  1.00  0.00     0.202 C 
ENDBRANCH  25  28
ENDBRANCH   1  19
TORSDOF 4
ENDMDL
MODEL 5
REMARK VINA RESULT:      -7.3      6.766      9.436
REMARK  4 active torsions:
REMARK  status: ('A' for Active; 'I' for Inactive)
REMARK    1  A    between atoms: C2_2  and  C3_3 
REMARK       I    between atoms: C3_3  and  N1_5 
REMARK    2  A    between atoms: C5_7  and  C6_8 
REMARK    3  A    between atoms: C9_14  and  C10_15 
REMARK    4  A    between atoms: C15_24  and  O3_25 
ROOT
HETATM    1  C6  UNL     1      30.089   7.661  46.640  1.00  0.00     0.030 A 
HETATM    2  O2  UNL     1      31.408   8.155  46.867  1.00  0.00     0.000 OA
HETATM    3  C7  UNL     1      32.198   7.441  47.813  1.00  0.00     0.282 A 
HETATM    4  N2  UNL     1      32.928   6.642  48.768  1.00  0.00    -0.030 NA
HETATM    5  C8  UNL     1      33.997   5.952  48.123  1.00  0.00     0.389 A 
HETATM    6  N3  UNL     1      32.931   6.759  48.277  1.00  0.00     0.090 N 
HETATM    7  C9  UNL     1      32.740   7.236  46.945  1.00  0.00     0.292 A 
HETATM    8  C10 UNL     1      31.524   8.189  46.892  1.00  0.00     0.088 A 
HETATM    9  C11 UNL     1      32.020   8.072  45.312  1.00  0.00     0.042 C 
HETATM   10 CL1  UNL     1      31.889   9.674  44.624  1.00  0.00    -0.086 Cl
HETATM   11  C12 UNL     1      32.485   7.051  44.588  1.00  0.00     0.104 C 
HETATM   12  N4  UNL     1      32.852   5.644  44.501  1.00  0.00    -0.384 N 
HETATM   13  C13 UNL     1      33.914   4.758  44.961  1.00  0.00     0.233 C 
HETATM   14  N5  UNL     1      34.131   4.514  46.368  1.00  0.00    -0.219 NA
HETATM   15  C14 UNL     1      35.045   3.347  46.423  1.00  0.00     0.138 C 
HETATM   16  N6  UNL     1      34.880   5.494  47.128  1.00  0.00    -0.298 N 
HETATM   17  H11 UNL     1      32.052   5.204  43.929  1.00  0.00     0.160 HD
HETATM   18  H17 UNL     1      35.699   6.069  47.389  1.00  0.00     0.178 HD
ENDROOT
BRANCH   1  19
HETATM   19  C5  UNL     1      29.308   7.686  47.909  1.00  0.00     0.035 C 
HETATM   20  C4  UNL     1      28.687   6.299  48.187  1.00  0.00     0.133 C 
HETATM   21  N1  UNL     1      27.401   6.552  48.787  1.00  0.00    -0.346 N 
HETATM   22  C3  UNL     1      26.789   5.281  48.935  1.00  0.00     0.242 C 
HETATM   23  C17 UNL     1      27.267   7.982  48.996  1.00  0.00     0.158 C 
HETATM   24  O1  UNL     1      27.826   4.708  48.429  1.00  0.00    -0.268 OA
HETATM   25  C15 UNL     1      28.004   8.473  47.755  1.00  0.00     0.144 C 
BRANCH  22  26
HETATM   26  C2  UNL     1      25.576   4.674  49.407  1.00  0.00     0.064 C 
HETATM   27  C1  UNL     1      25.128   3.462  49.534  1.00  0.00     0.017 C 
ENDBRANCH  22  26
BRANCH  25  28
HETATM   28  O3  UNL     1      27.346   7.901  46.671  1.00  0.00    -0.389 OA
HETATM   29  C16 UNL     1      26.455   8.723  46.028  1.00  0.00     0.202 C 
ENDBRANCH  25  28
ENDBRANCH   1  19
TORSDOF 4
ENDMDL
MODEL 6
REMARK VINA RESULT:      -7.3      4.240      6.279
REMARK  4 active torsions:
REMARK  status: ('A' for Active; 'I' for Inactive)
REMARK    1  A    between atoms: C2_2  and  C3_3 
REMARK       I    between atoms: C3_3  and  N1_5 
REMARK    2  A    between atoms: C5_7  and  C6_8 
REMARK    3  A    between atoms: C9_14  and  C10_15 
REMARK    4  A    between atoms: C15_24  and  O3_25 
ROOT
HETATM    1  C6  UNL     1      21.874   1.271  52.136  1.00  0.00     0.030 A 
HETATM    2  O2  UNL     1      20.671   1.621  52.818  1.00  0.00     0.000 OA
HETATM    3  C7  UNL     1      20.049   2.839  52.422  1.00  0.00     0.282 A 
HETATM    4  N2  UNL     1      19.483   4.075  51.938  1.00  0.00    -0.030 NA
HETATM    5  C8  UNL     1      18.255   3.824  51.254  1.00  0.00     0.389 A 
HETATM    6  N3  UNL     1      19.384   3.580  51.947  1.00  0.00     0.090 N 
HETATM    7  C9  UNL     1      19.323   2.161  52.099  1.00  0.00     0.292 A 
HETATM    8  C10 UNL     1      20.565   1.658  52.869  1.00  0.00     0.088 A 
HETATM    9  C11 UNL     1      19.741   0.272  52.473  1.00  0.00     0.042 C 
HETATM   10 CL1  UNL     1      19.837  -0.785  53.862  1.00  0.00    -0.086 Cl
HETATM   11  C12 UNL     1      19.063  -0.091  51.381  1.00  0.00     0.104 C 
HETATM   12  N4  UNL     1      18.588   0.227  50.042  1.00  0.00    -0.384 N 
HETATM   13  C13 UNL     1      17.587   1.073  49.405  1.00  0.00     0.233 C 
HETATM   14  N5  UNL     1      17.655   2.514  49.498  1.00  0.00    -0.219 NA
HETATM   15  C14 UNL     1      16.693   3.012  48.484  1.00  0.00     0.138 C 
HETATM   16  N6  UNL     1      17.153   3.150  50.699  1.00  0.00    -0.298 N 
HETATM   17  H11 UNL     1      19.217  -0.367  49.398  1.00  0.00     0.160 HD
HETATM   18  H17 UNL     1      16.450   3.418  51.408  1.00  0.00     0.178 HD
ENDROOT
BRANCH   1  19
HETATM   19  C5  UNL     1      22.904   2.328  52.344  1.00  0.00     0.035 C 
HETATM   20  C4  UNL     1      23.529   2.744  50.993  1.00  0.00     0.133 C 
HETATM   21  N1  UNL     1      24.919   3.012  51.263  1.00  0.00    -0.346 N 
HETATM   22  C3  UNL     1      25.511   3.282  50.002  1.00  0.00     0.242 C 
HETATM   23  C17 UNL     1      25.136   2.904  52.694  1.00  0.00     0.158 C 
HETATM   24  O1  UNL     1      24.374   3.117  49.419  1.00  0.00    -0.268 OA
HETATM   25  C15 UNL     1      24.170   1.763  52.995  1.00  0.00     0.144 C 
BRANCH  22  26
HETATM   26  C2  UNL     1      26.777   3.612  49.411  1.00  0.00     0.064 C 
HETATM   27  C1  UNL     1      27.297   4.658  48.842  1.00  0.00     0.017 C 
ENDBRANCH  22  26
BRANCH  25  28
HETATM   28  O3  UNL     1      24.569   0.704  52.186  1.00  0.00    -0.389 OA
HETATM   29  C16 UNL     1      25.515  -0.125  52.733  1.00  0.00     0.202 C 
ENDBRANCH  25  28
ENDBRANCH   1  19
TORSDOF 4
ENDMDL
MODEL 7
REMARK VINA RESULT:      -7.2      3.593      7.542
REMARK  4 active torsions:
REMARK  status: ('A' for Active; 'I' for Inactive)
REMARK    1  A    between atoms: C2_2  and  C3_3 
REMARK       I    between atoms: C3_3  and  N1_5 
REMARK    2  A    between atoms: C5_7  and  C6_8 
REMARK    3  A    between atoms: C9_14  and  C10_15 
REMARK    4  A    between atoms: C15_24  and  O3_25 
ROOT
HETATM    1  C6  UNL     1      25.188   6.436  49.736  1.00  0.00     0.030 A 
HETATM    2  O2  UNL     1      24.865   5.115  49.308  1.00  0.00     0.000 OA
HETATM    3  C7  UNL     1      25.867   4.122  49.505  1.00  0.00     0.282 A 
HETATM    4  N2  UNL     1      26.932   3.183  49.764  1.00  0.00    -0.030 NA
HETATM    5  C8  UNL     1      26.539   2.254  50.774  1.00  0.00     0.389 A 
HETATM    6  N3  UNL     1      26.461   3.287  49.914  1.00  0.00     0.090 N 
HETATM    7  C9  UNL     1      25.141   3.769  50.168  1.00  0.00     0.292 A 
HETATM    8  C10 UNL     1      24.845   4.997  49.276  1.00  0.00     0.088 A 
HETATM    9  C11 UNL     1      23.489   4.843  50.222  1.00  0.00     0.042 C 
HETATM   10 CL1  UNL     1      22.116   5.164  49.189  1.00  0.00    -0.086 Cl
HETATM   11  C12 UNL     1      23.320   4.511  51.505  1.00  0.00     0.104 C 
HETATM   12  N4  UNL     1      23.900   4.129  52.784  1.00  0.00    -0.384 N 
HETATM   13  C13 UNL     1      24.532   2.968  53.399  1.00  0.00     0.233 C 
HETATM   14  N5  UNL     1      25.789   2.452  52.910  1.00  0.00    -0.219 NA
HETATM   15  C14 UNL     1      26.257   1.512  53.959  1.00  0.00     0.138 C 
HETATM   16  N6  UNL     1      25.772   1.588  51.747  1.00  0.00    -0.298 N 
HETATM   17  H11 UNL     1      23.806   5.018  53.385  1.00  0.00     0.160 HD
HETATM   18  H17 UNL     1      25.533   0.750  51.190  1.00  0.00     0.178 HD
ENDROOT
BRANCH   1  19
HETATM   19  C5  UNL     1      26.387   6.931  49.003  1.00  0.00     0.035 C 
HETATM   20  C4  UNL     1      26.923   8.225  49.656  1.00  0.00     0.133 C 
HETATM   21  N1  UNL     1      27.397   9.051  48.575  1.00  0.00    -0.346 N 
HETATM   22  C3  UNL     1      27.781  10.281  49.169  1.00  0.00     0.242 C 
HETATM   23  C17 UNL     1      27.295   8.293  47.341  1.00  0.00     0.158 C 
HETATM   24  O1  UNL     1      27.454   9.835  50.334  1.00  0.00    -0.268 OA
HETATM   25  C15 UNL     1      26.012   7.524  47.641  1.00  0.00     0.144 C 
BRANCH  22  26
HETATM   26  C2  UNL     1      28.315  11.569  48.825  1.00  0.00     0.064 C 
HETATM   27  C1  UNL     1      29.496  12.107  48.781  1.00  0.00     0.017 C 
ENDBRANCH  22  26
BRANCH  25  28
HETATM   28  O3  UNL     1      25.044   8.488  47.905  1.00  0.00    -0.389 OA
HETATM   29  C16 UNL     1      24.159   8.720  46.883  1.00  0.00     0.202 C 
ENDBRANCH  25  28
ENDBRANCH   1  19
TORSDOF 4
ENDMDL
MODEL 8
REMARK VINA RESULT:      -7.1      6.959      9.757
REMARK  4 active torsions:
REMARK  status: ('A' for Active; 'I' for Inactive)
REMARK    1  A    between atoms: C2_2  and  C3_3 
REMARK       I    between atoms: C3_3  and  N1_5 
REMARK    2  A    between atoms: C5_7  and  C6_8 
REMARK    3  A    between atoms: C9_14  and  C10_15 
REMARK    4  A    between atoms: C15_24  and  O3_25 
ROOT
HETATM    1  C6  UNL     1      30.434   9.211  47.808  1.00  0.00     0.030 A 
HETATM    2  O2  UNL     1      31.786   9.203  48.263  1.00  0.00     0.000 OA
HETATM    3  C7  UNL     1      32.293   7.955  48.723  1.00  0.00     0.282 A 
HETATM    4  N2  UNL     1      32.723   6.645  49.149  1.00  0.00    -0.030 NA
HETATM    5  C8  UNL     1      33.704   6.129  48.251  1.00  0.00     0.389 A 
HETATM    6  N3  UNL     1      32.811   6.983  48.785  1.00  0.00     0.090 N 
HETATM    7  C9  UNL     1      32.887   8.080  47.874  1.00  0.00     0.292 A 
HETATM    8  C10 UNL     1      31.903   9.192  48.302  1.00  0.00     0.088 A 
HETATM    9  C11 UNL     1      32.558   9.751  46.882  1.00  0.00     0.042 C 
HETATM   10 CL1  UNL     1      32.837  11.463  47.095  1.00  0.00    -0.086 Cl
HETATM   11  C12 UNL     1      32.894   9.138  45.744  1.00  0.00     0.104 C 
HETATM   12  N4  UNL     1      32.980   7.913  44.962  1.00  0.00    -0.384 N 
HETATM   13  C13 UNL     1      33.776   6.693  44.918  1.00  0.00     0.233 C 
HETATM   14  N5  UNL     1      33.764   5.749  46.011  1.00  0.00    -0.219 NA
HETATM   15  C14 UNL     1      34.411   4.526  45.475  1.00  0.00     0.138 C 
HETATM   16  N6  UNL     1      34.594   6.022  47.167  1.00  0.00    -0.298 N 
HETATM   17  H11 UNL     1      32.186   8.012  44.241  1.00  0.00     0.160 HD
HETATM   18  H17 UNL     1      35.473   6.185  47.687  1.00  0.00     0.178 HD
ENDROOT
BRANCH   1  19
HETATM   19  C5  UNL     1      29.522   8.796  48.912  1.00  0.00     0.035 C 
HETATM   20  C4  UNL     1      28.751   7.516  48.521  1.00  0.00     0.133 C 
HETATM   21  N1  UNL     1      27.434   7.654  49.091  1.00  0.00    -0.346 N 
HETATM   22  C3  UNL     1      26.697   6.532  48.634  1.00  0.00     0.242 C 
HETATM   23  C17 UNL     1      27.408   8.864  49.893  1.00  0.00     0.158 C 
HETATM   24  O1  UNL     1      27.728   6.099  47.993  1.00  0.00    -0.268 OA
HETATM   25  C15 UNL     1      28.320   9.736  49.037  1.00  0.00     0.144 C 
BRANCH  22  26
HETATM   26  C2  UNL     1      25.389   5.945  48.720  1.00  0.00     0.064 C 
HETATM   27  C1  UNL     1      24.871   4.899  49.290  1.00  0.00     0.017 C 
ENDBRANCH  22  26
BRANCH  25  28
HETATM   28  O3  UNL     1      27.737   9.769  47.774  1.00  0.00    -0.389 OA
HETATM   29  C16 UNL     1      27.075  10.931  47.467  1.00  0.00     0.202 C 
ENDBRANCH  25  28
ENDBRANCH   1  19
TORSDOF 4
ENDMDL
MODEL 9
REMARK VINA RESULT:      -7.0      2.676      4.364
REMARK  4 active torsions:
REMARK  status: ('A' for Active; 'I' for Inactive)
REMARK    1  A    between atoms: C2_2  and  C3_3 
REMARK       I    between atoms: C3_3  and  N1_5 
REMARK    2  A    between atoms: C5_7  and  C6_8 
REMARK    3  A    between atoms: C9_14  and  C10_15 
REMARK    4  A    between atoms: C15_24  and  O3_25 
ROOT
HETATM    1  C6  UNL     1      22.638   3.667  50.714  1.00  0.00     0.030 A 
HETATM    2  O2  UNL     1      22.167   4.992  50.949  1.00  0.00     0.000 OA
HETATM    3  C7  UNL     1      23.154   5.972  51.253  1.00  0.00     0.282 A 
HETATM    4  N2  UNL     1      24.227   6.897  51.531  1.00  0.00    -0.030 NA
HETATM    5  C8  UNL     1      24.367   7.831  50.461  1.00  0.00     0.389 A 
HETATM    6  N3  UNL     1      23.881   6.799  51.177  1.00  0.00     0.090 N 
HETATM    7  C9  UNL     1      22.830   6.334  50.329  1.00  0.00     0.292 A 
HETATM    8  C10 UNL     1      22.136   5.110  50.968  1.00  0.00     0.088 A 
HETATM    9  C11 UNL     1      21.386   5.283  49.497  1.00  0.00     0.042 C 
HETATM   10 CL1  UNL     1      19.685   4.979  49.761  1.00  0.00    -0.086 Cl
HETATM   11  C12 UNL     1      21.843   5.617  48.288  1.00  0.00     0.104 C 
HETATM   12  N4  UNL     1      22.962   5.992  47.434  1.00  0.00    -0.384 N 
HETATM   13  C13 UNL     1      23.822   7.144  47.196  1.00  0.00     0.233 C 
HETATM   14  N5  UNL     1      24.707   7.644  48.222  1.00  0.00    -0.219 NA
HETATM   15  C14 UNL     1      25.623   8.578  47.522  1.00  0.00     0.138 C 
HETATM   16  N6  UNL     1      24.155   8.507  49.246  1.00  0.00    -0.298 N 
HETATM   17  H11 UNL     1      23.151   5.104  46.853  1.00  0.00     0.160 HD
HETATM   18  H17 UNL     1      23.691   9.348  49.631  1.00  0.00     0.178 HD
ENDROOT
BRANCH   1  19
HETATM   19  C5  UNL     1      23.345   3.156  51.922  1.00  0.00     0.035 C 
HETATM   20  C4  UNL     1      24.710   2.545  51.530  1.00  0.00     0.133 C 
HETATM   21  N1  UNL     1      24.907   1.415  52.403  1.00  0.00    -0.346 N 
HETATM   22  C3  UNL     1      26.103   0.792  51.963  1.00  0.00     0.242 C 
HETATM   23  C17 UNL     1      23.819   1.385  53.364  1.00  0.00     0.158 C 
HETATM   24  O1  UNL     1      26.244   1.684  51.043  1.00  0.00    -0.268 OA
HETATM   25  C15 UNL     1      22.693   1.880  52.463  1.00  0.00     0.144 C 
BRANCH  22  26
HETATM   26  C2  UNL     1      26.953  -0.327  52.259  1.00  0.00     0.064 C 
HETATM   27  C1  UNL     1      26.777  -1.563  52.615  1.00  0.00     0.017 C 
ENDBRANCH  22  26
BRANCH  25  28
HETATM   28  O3  UNL     1      22.649   0.996  51.389  1.00  0.00    -0.389 OA
HETATM   29  C16 UNL     1      21.503   0.247  51.296  1.00  0.00     0.202 C 
ENDBRANCH  25  28
ENDBRANCH   1  19
TORSDOF 4
ENDMDL
