MODEL 1
REMARK VINA RESULT:      -8.6      0.000      0.000
REMARK  7 active torsions:
REMARK  status: ('A' for Active; 'I' for Inactive)
REMARK    1  A    between atoms: N1_2  and  C2_3 
REMARK    2  A    between atoms: C7_8  and  N2_9 
REMARK    3  A    between atoms: C12_14  and  N3_15 
REMARK    4  A    between atoms: N3_15  and  C13_16 
REMARK    5  A    between atoms: C17_22  and  C18_23 
REMARK    6  A    between atoms: C18_23  and  C19_24 
REMARK    7  A    between atoms: C19_24  and  O1_25 
ROOT
HETATM    1  N2  UNL     1      25.628   0.683  52.847  1.00  0.00    -0.344 N 
HETATM    2  C8  UNL     1      25.460   2.054  52.340  1.00  0.00     0.134 C 
HETATM    3  C9  UNL     1      24.138   1.878  51.584  1.00  0.00     0.061 C 
HETATM    4  C10 UNL     1      23.336   1.032  52.537  1.00  0.00    -0.028 A 
HETATM    5  C11 UNL     1      21.996   0.849  52.783  1.00  0.00     0.038 A 
HETATM    6  C12 UNL     1      21.544  -0.021  53.749  1.00  0.00     0.030 A 
HETATM    7  C21 UNL     1      22.460  -0.715  54.480  1.00  0.00     0.031 A 
HETATM    8  C22 UNL     1      23.809  -0.540  54.244  1.00  0.00     0.032 A 
HETATM    9  C23 UNL     1      24.294   0.334  53.271  1.00  0.00     0.041 A 
ENDROOT
BRANCH   6  10
HETATM   10  N3  UNL     1      20.148  -0.189  53.978  1.00  0.00    -0.363 N 
HETATM   11  H14 UNL     1      19.694   0.310  54.774  1.00  0.00     0.162 HD
BRANCH  10  12
HETATM   12  C13 UNL     1      19.397  -1.034  53.117  1.00  0.00     0.251 A 
HETATM   13  N4  UNL     1      18.882  -2.244  53.764  1.00  0.00    -0.252 NA
HETATM   14  C14 UNL     1      17.656  -2.571  53.632  1.00  0.00     0.229 A 
HETATM   15  N5  UNL     1      16.590  -1.931  52.909  1.00  0.00    -0.246 NA
HETATM   16  C15 UNL     1      16.942  -0.830  52.286  1.00  0.00     0.050 A 
HETATM   17  C16 UNL     1      15.919  -0.095  51.513  1.00  0.00     0.072 C 
HETATM   18  C17 UNL     1      18.306  -0.413  52.399  1.00  0.00     0.053 A 
BRANCH  18  19
HETATM   19  C18 UNL     1      18.598   0.705  51.750  1.00  0.00    -0.107 C 
BRANCH  19  20
HETATM   20  C19 UNL     1      18.678   1.948  51.295  1.00  0.00     0.232 C 
BRANCH  20  21
HETATM   21  O1  UNL     1      19.024   2.943  52.178  1.00  0.00    -0.376 OA
HETATM   22  C20 UNL     1      20.144   3.744  51.827  1.00  0.00     0.203 C 
ENDBRANCH  20  21
ENDBRANCH  19  20
ENDBRANCH  18  19
ENDBRANCH  10  12
ENDBRANCH   6  10
BRANCH   1  23
HETATM   23  C7  UNL     1      26.692  -0.252  52.988  1.00  0.00     0.061 A 
HETATM   24  C2  UNL     1      27.868   0.042  53.648  1.00  0.00     0.054 A 
HETATM   25  C3  UNL     1      28.876  -0.893  53.762  1.00  0.00     0.031 A 
HETATM   26  C4  UNL     1      28.754  -2.156  53.222  1.00  0.00     0.002 A 
HETATM   27  C5  UNL     1      27.604  -2.502  52.553  1.00  0.00     0.002 A 
HETATM   28  C6  UNL     1      26.620  -1.546  52.459  1.00  0.00     0.032 A 
BRANCH  24  29
HETATM   29  N1  UNL     1      28.060   1.325  54.230  1.00  0.00    -0.392 N 
HETATM   30  C1  UNL     1      28.777   2.484  53.716  1.00  0.00     0.146 C 
HETATM   31  H4  UNL     1      27.675   1.566  55.147  1.00  0.00     0.159 HD
ENDBRANCH  24  29
ENDBRANCH   1  23
TORSDOF 7
ENDMDL
MODEL 2
REMARK VINA RESULT:      -8.1      5.934      8.451
REMARK  7 active torsions:
REMARK  status: ('A' for Active; 'I' for Inactive)
REMARK    1  A    between atoms: N1_2  and  C2_3 
REMARK    2  A    between atoms: C7_8  and  N2_9 
REMARK    3  A    between atoms: C12_14  and  N3_15 
REMARK    4  A    between atoms: N3_15  and  C13_16 
REMARK    5  A    between atoms: C17_22  and  C18_23 
REMARK    6  A    between atoms: C18_23  and  C19_24 
REMARK    7  A    between atoms: C19_24  and  O1_25 
ROOT
HETATM    1  N2  UNL     1      27.574   7.699  48.749  1.00  0.00    -0.344 N 
HETATM    2  C8  UNL     1      26.986   8.559  49.789  1.00  0.00     0.134 C 
HETATM    3  C9  UNL     1      25.542   8.049  49.744  1.00  0.00     0.061 C 
HETATM    4  C10 UNL     1      25.734   6.559  49.634  1.00  0.00    -0.028 A 
HETATM    5  C11 UNL     1      24.993   5.455  49.984  1.00  0.00     0.038 A 
HETATM    6  C12 UNL     1      25.439   4.174  49.751  1.00  0.00     0.030 A 
HETATM    7  C21 UNL     1      26.653   4.006  49.156  1.00  0.00     0.031 A 
HETATM    8  C22 UNL     1      27.407   5.106  48.800  1.00  0.00     0.032 A 
HETATM    9  C23 UNL     1      26.978   6.414  49.025  1.00  0.00     0.041 A 
ENDROOT
BRANCH   6  10
HETATM   10  N3  UNL     1      24.646   3.051  50.125  1.00  0.00    -0.363 N 
HETATM   11  H14 UNL     1      24.426   2.319  49.415  1.00  0.00     0.162 HD
BRANCH  10  12
HETATM   12  C13 UNL     1      24.169   2.947  51.460  1.00  0.00     0.251 A 
HETATM   13  N4  UNL     1      22.735   3.210  51.606  1.00  0.00    -0.252 NA
HETATM   14  C14 UNL     1      21.997   2.402  52.262  1.00  0.00     0.229 A 
HETATM   15  N5  UNL     1      22.326   1.180  52.945  1.00  0.00    -0.246 NA
HETATM   16  C15 UNL     1      23.595   0.846  52.879  1.00  0.00     0.050 A 
HETATM   17  C16 UNL     1      24.037  -0.394  53.549  1.00  0.00     0.072 C 
HETATM   18  C17 UNL     1      24.470   1.716  52.155  1.00  0.00     0.053 A 
BRANCH  18  19
HETATM   19  C18 UNL     1      25.736   1.325  52.123  1.00  0.00    -0.107 C 
BRANCH  19  20
HETATM   20  C19 UNL     1      27.060   1.242  52.087  1.00  0.00     0.232 C 
BRANCH  20  21
HETATM   21  O1  UNL     1      27.790   2.380  52.337  1.00  0.00    -0.376 OA
HETATM   22  C20 UNL     1      28.552   2.397  53.536  1.00  0.00     0.203 C 
ENDBRANCH  20  21
ENDBRANCH  19  20
ENDBRANCH  18  19
ENDBRANCH  10  12
ENDBRANCH   6  10
BRANCH   1  23
HETATM   23  C7  UNL     1      28.487   7.849  47.668  1.00  0.00     0.061 A 
HETATM   24  C2  UNL     1      29.854   7.734  47.818  1.00  0.00     0.054 A 
HETATM   25  C3  UNL     1      30.706   7.887  46.743  1.00  0.00     0.031 A 
HETATM   26  C4  UNL     1      30.231   8.162  45.478  1.00  0.00     0.002 A 
HETATM   27  C5  UNL     1      28.878   8.287  45.272  1.00  0.00     0.002 A 
HETATM   28  C6  UNL     1      28.058   8.128  46.365  1.00  0.00     0.032 A 
BRANCH  24  29
HETATM   29  N1  UNL     1      30.413   7.451  49.094  1.00  0.00    -0.392 N 
HETATM   30  C1  UNL     1      31.643   6.752  49.440  1.00  0.00     0.146 C 
HETATM   31  H4  UNL     1      29.954   7.741  49.962  1.00  0.00     0.159 HD
ENDBRANCH  24  29
ENDBRANCH   1  23
TORSDOF 7
ENDMDL
MODEL 3
REMARK VINA RESULT:      -8.0      4.135      6.270
REMARK  7 active torsions:
REMARK  status: ('A' for Active; 'I' for Inactive)
REMARK    1  A    between atoms: N1_2  and  C2_3 
REMARK    2  A    between atoms: C7_8  and  N2_9 
REMARK    3  A    between atoms: C12_14  and  N3_15 
REMARK    4  A    between atoms: N3_15  and  C13_16 
REMARK    5  A    between atoms: C17_22  and  C18_23 
REMARK    6  A    between atoms: C18_23  and  C19_24 
REMARK    7  A    between atoms: C19_24  and  O1_25 
ROOT
HETATM    1  N2  UNL     1      25.779   0.071  52.787  1.00  0.00    -0.344 N 
HETATM    2  C8  UNL     1      24.369  -0.071  53.184  1.00  0.00     0.134 C 
HETATM    3  C9  UNL     1      24.039   1.401  53.456  1.00  0.00     0.061 C 
HETATM    4  C10 UNL     1      24.714   2.097  52.303  1.00  0.00    -0.028 A 
HETATM    5  C11 UNL     1      24.511   3.276  51.625  1.00  0.00     0.038 A 
HETATM    6  C12 UNL     1      25.316   3.662  50.578  1.00  0.00     0.030 A 
HETATM    7  C21 UNL     1      26.342   2.845  50.210  1.00  0.00     0.031 A 
HETATM    8  C22 UNL     1      26.556   1.659  50.881  1.00  0.00     0.032 A 
HETATM    9  C23 UNL     1      25.756   1.243  51.945  1.00  0.00     0.041 A 
ENDROOT
BRANCH   6  10
HETATM   10  N3  UNL     1      25.080   4.891  49.897  1.00  0.00    -0.363 N 
HETATM   11  H14 UNL     1      25.696   5.163  49.100  1.00  0.00     0.162 HD
BRANCH  10  12
HETATM   12  C13 UNL     1      24.009   5.726  50.316  1.00  0.00     0.251 A 
HETATM   13  N4  UNL     1      24.434   6.939  51.020  1.00  0.00    -0.252 NA
HETATM   14  C14 UNL     1      23.964   8.076  50.683  1.00  0.00     0.229 A 
HETATM   15  N5  UNL     1      23.017   8.430  49.661  1.00  0.00    -0.246 NA
HETATM   16  C15 UNL     1      22.567   7.414  48.961  1.00  0.00     0.050 A 
HETATM   17  C16 UNL     1      21.589   7.671  47.885  1.00  0.00     0.072 C 
HETATM   18  C17 UNL     1      23.059   6.113  49.296  1.00  0.00     0.053 A 
BRANCH  18  19
HETATM   19  C18 UNL     1      22.569   5.129  48.555  1.00  0.00    -0.107 C 
BRANCH  19  20
HETATM   20  C19 UNL     1      22.367   4.024  47.850  1.00  0.00     0.232 C 
BRANCH  20  21
HETATM   21  O1  UNL     1      23.009   2.874  48.244  1.00  0.00    -0.376 OA
HETATM   22  C20 UNL     1      22.251   1.955  49.018  1.00  0.00     0.203 C 
ENDBRANCH  20  21
ENDBRANCH  19  20
ENDBRANCH  18  19
ENDBRANCH  10  12
ENDBRANCH   6  10
BRANCH   1  23
HETATM   23  C7  UNL     1      27.002  -0.615  53.027  1.00  0.00     0.061 A 
HETATM   24  C2  UNL     1      28.070  -0.039  53.686  1.00  0.00     0.054 A 
HETATM   25  C3  UNL     1      29.239  -0.739  53.898  1.00  0.00     0.031 A 
HETATM   26  C4  UNL     1      29.393  -2.038  53.462  1.00  0.00     0.002 A 
HETATM   27  C5  UNL     1      28.362  -2.661  52.800  1.00  0.00     0.002 A 
HETATM   28  C6  UNL     1      27.211  -1.933  52.606  1.00  0.00     0.032 A 
BRANCH  24  29
HETATM   29  N1  UNL     1      27.980   1.297  54.164  1.00  0.00    -0.392 N 
HETATM   30  C1  UNL     1      28.718   2.484  53.756  1.00  0.00     0.146 C 
HETATM   31  H4  UNL     1      27.327   1.563  54.905  1.00  0.00     0.159 HD
ENDBRANCH  24  29
ENDBRANCH   1  23
TORSDOF 7
ENDMDL
MODEL 4
REMARK VINA RESULT:      -8.0      4.677      6.885
REMARK  7 active torsions:
REMARK  status: ('A' for Active; 'I' for Inactive)
REMARK    1  A    between atoms: N1_2  and  C2_3 
REMARK    2  A    between atoms: C7_8  and  N2_9 
REMARK    3  A    between atoms: C12_14  and  N3_15 
REMARK    4  A    between atoms: N3_15  and  C13_16 
REMARK    5  A    between atoms: C17_22  and  C18_23 
REMARK    6  A    between atoms: C18_23  and  C19_24 
REMARK    7  A    between atoms: C19_24  and  O1_25 
ROOT
HETATM    1  N2  UNL     1      25.833  -0.132  52.899  1.00  0.00    -0.344 N 
HETATM    2  C8  UNL     1      24.438  -0.413  53.271  1.00  0.00     0.134 C 
HETATM    3  C9  UNL     1      23.991   1.004  53.648  1.00  0.00     0.061 C 
HETATM    4  C10 UNL     1      24.613   1.834  52.556  1.00  0.00    -0.028 A 
HETATM    5  C11 UNL     1      24.320   3.041  51.965  1.00  0.00     0.038 A 
HETATM    6  C12 UNL     1      25.095   3.566  50.958  1.00  0.00     0.030 A 
HETATM    7  C21 UNL     1      26.184   2.862  50.539  1.00  0.00     0.031 A 
HETATM    8  C22 UNL     1      26.489   1.650  51.123  1.00  0.00     0.032 A 
HETATM    9  C23 UNL     1      25.720   1.094  52.146  1.00  0.00     0.041 A 
ENDROOT
BRANCH   6  10
HETATM   10  N3  UNL     1      24.765   4.820  50.367  1.00  0.00    -0.363 N 
HETATM   11  H14 UNL     1      24.750   5.679  50.960  1.00  0.00     0.162 HD
BRANCH  10  12
HETATM   12  C13 UNL     1      24.459   4.879  48.980  1.00  0.00     0.251 A 
HETATM   13  N4  UNL     1      23.142   4.342  48.632  1.00  0.00    -0.252 NA
HETATM   14  C14 UNL     1      22.350   5.012  47.889  1.00  0.00     0.229 A 
HETATM   15  N5  UNL     1      22.513   6.300  47.273  1.00  0.00    -0.246 NA
HETATM   16  C15 UNL     1      23.667   6.878  47.519  1.00  0.00     0.050 A 
HETATM   17  C16 UNL     1      23.934   8.207  46.931  1.00  0.00     0.072 C 
HETATM   18  C17 UNL     1      24.595   6.172  48.347  1.00  0.00     0.053 A 
BRANCH  18  19
HETATM   19  C18 UNL     1      25.739   6.807  48.560  1.00  0.00    -0.107 C 
BRANCH  19  20
HETATM   20  C19 UNL     1      26.944   7.194  48.958  1.00  0.00     0.232 C 
BRANCH  20  21
HETATM   21  O1  UNL     1      28.041   6.688  48.301  1.00  0.00    -0.376 OA
HETATM   22  C20 UNL     1      28.269   5.292  48.425  1.00  0.00     0.203 C 
ENDBRANCH  20  21
ENDBRANCH  19  20
ENDBRANCH  18  19
ENDBRANCH  10  12
ENDBRANCH   6  10
BRANCH   1  23
HETATM   23  C7  UNL     1      27.106  -0.735  53.099  1.00  0.00     0.061 A 
HETATM   24  C2  UNL     1      28.157  -0.086  53.716  1.00  0.00     0.054 A 
HETATM   25  C3  UNL     1      29.376  -0.707  53.890  1.00  0.00     0.031 A 
HETATM   26  C4  UNL     1      29.599  -1.997  53.457  1.00  0.00     0.002 A 
HETATM   27  C5  UNL     1      28.587  -2.691  52.837  1.00  0.00     0.002 A 
HETATM   28  C6  UNL     1      27.385  -2.041  52.679  1.00  0.00     0.032 A 
BRANCH  24  29
HETATM   29  N1  UNL     1      27.998   1.245  54.188  1.00  0.00    -0.392 N 
HETATM   30  C1  UNL     1      28.717   2.457  53.821  1.00  0.00     0.146 C 
HETATM   31  H4  UNL     1      27.297   1.489  54.893  1.00  0.00     0.159 HD
ENDBRANCH  24  29
ENDBRANCH   1  23
TORSDOF 7
ENDMDL
MODEL 5
REMARK VINA RESULT:      -7.7      6.450     11.551
REMARK  7 active torsions:
REMARK  status: ('A' for Active; 'I' for Inactive)
REMARK    1  A    between atoms: N1_2  and  C2_3 
REMARK    2  A    between atoms: C7_8  and  N2_9 
REMARK    3  A    between atoms: C12_14  and  N3_15 
REMARK    4  A    between atoms: N3_15  and  C13_16 
REMARK    5  A    between atoms: C17_22  and  C18_23 
REMARK    6  A    between atoms: C18_23  and  C19_24 
REMARK    7  A    between atoms: C19_24  and  O1_25 
ROOT
HETATM    1  N2  UNL     1      24.166   4.962  49.441  1.00  0.00    -0.344 N 
HETATM    2  C8  UNL     1      23.462   5.902  48.553  1.00  0.00     0.134 C 
HETATM    3  C9  UNL     1      24.417   7.097  48.652  1.00  0.00     0.061 C 
HETATM    4  C10 UNL     1      25.767   6.433  48.578  1.00  0.00    -0.028 A 
HETATM    5  C11 UNL     1      27.020   6.820  48.164  1.00  0.00     0.038 A 
HETATM    6  C12 UNL     1      28.100   5.969  48.217  1.00  0.00     0.030 A 
HETATM    7  C21 UNL     1      27.911   4.707  48.693  1.00  0.00     0.031 A 
HETATM    8  C22 UNL     1      26.659   4.305  49.111  1.00  0.00     0.032 A 
HETATM    9  C23 UNL     1      25.548   5.147  49.069  1.00  0.00     0.041 A 
ENDROOT
BRANCH   6  10
HETATM   10  N3  UNL     1      29.386   6.402  47.781  1.00  0.00    -0.363 N 
HETATM   11  H14 UNL     1      29.462   7.033  46.954  1.00  0.00     0.162 HD
BRANCH  10  12
HETATM   12  C13 UNL     1      30.542   5.965  48.482  1.00  0.00     0.251 A 
HETATM   13  N4  UNL     1      31.154   4.752  47.934  1.00  0.00    -0.252 NA
HETATM   14  C14 UNL     1      32.409   4.711  47.707  1.00  0.00     0.229 A 
HETATM   15  N5  UNL     1      33.427   5.706  47.904  1.00  0.00    -0.246 NA
HETATM   16  C15 UNL     1      32.989   6.843  48.395  1.00  0.00     0.050 A 
HETATM   17  C16 UNL     1      33.956   7.932  48.635  1.00  0.00     0.072 C 
HETATM   18  C17 UNL     1      31.588   6.947  48.669  1.00  0.00     0.053 A 
BRANCH  18  19
HETATM   19  C18 UNL     1      31.206   8.116  49.162  1.00  0.00    -0.107 C 
BRANCH  19  20
HETATM   20  C19 UNL     1      30.656   9.301  49.390  1.00  0.00     0.232 C 
BRANCH  20  21
HETATM   21  O1  UNL     1      29.401   9.545  48.883  1.00  0.00    -0.376 OA
HETATM   22  C20 UNL     1      28.334   9.585  49.819  1.00  0.00     0.203 C 
ENDBRANCH  20  21
ENDBRANCH  19  20
ENDBRANCH  18  19
ENDBRANCH  10  12
ENDBRANCH   6  10
BRANCH   1  23
HETATM   23  C7  UNL     1      23.816   4.030  50.457  1.00  0.00     0.061 A 
HETATM   24  C2  UNL     1      23.271   2.791  50.186  1.00  0.00     0.054 A 
HETATM   25  C3  UNL     1      22.945   1.917  51.201  1.00  0.00     0.031 A 
HETATM   26  C4  UNL     1      23.145   2.241  52.526  1.00  0.00     0.002 A 
HETATM   27  C5  UNL     1      23.685   3.462  52.854  1.00  0.00     0.002 A 
HETATM   28  C6  UNL     1      23.998   4.309  51.817  1.00  0.00     0.032 A 
BRANCH  24  29
HETATM   29  N1  UNL     1      23.038   2.391  48.842  1.00  0.00    -0.392 N 
HETATM   30  C1  UNL     1      21.818   1.907  48.211  1.00  0.00     0.146 C 
HETATM   31  H4  UNL     1      23.778   2.411  48.135  1.00  0.00     0.159 HD
ENDBRANCH  24  29
ENDBRANCH   1  23
TORSDOF 7
ENDMDL
MODEL 6
REMARK VINA RESULT:      -7.7      4.971      9.314
REMARK  7 active torsions:
REMARK  status: ('A' for Active; 'I' for Inactive)
REMARK    1  A    between atoms: N1_2  and  C2_3 
REMARK    2  A    between atoms: C7_8  and  N2_9 
REMARK    3  A    between atoms: C12_14  and  N3_15 
REMARK    4  A    between atoms: N3_15  and  C13_16 
REMARK    5  A    between atoms: C17_22  and  C18_23 
REMARK    6  A    between atoms: C18_23  and  C19_24 
REMARK    7  A    between atoms: C19_24  and  O1_25 
ROOT
HETATM    1  N2  UNL     1      22.392   1.025  51.044  1.00  0.00    -0.344 N 
HETATM    2  C8  UNL     1      21.843   0.989  49.679  1.00  0.00     0.134 C 
HETATM    3  C9  UNL     1      22.090   2.447  49.275  1.00  0.00     0.061 C 
HETATM    4  C10 UNL     1      23.472   2.698  49.817  1.00  0.00    -0.028 A 
HETATM    5  C11 UNL     1      24.507   3.542  49.489  1.00  0.00     0.038 A 
HETATM    6  C12 UNL     1      25.692   3.549  50.188  1.00  0.00     0.030 A 
HETATM    7  C21 UNL     1      25.834   2.689  51.236  1.00  0.00     0.031 A 
HETATM    8  C22 UNL     1      24.804   1.836  51.575  1.00  0.00     0.032 A 
HETATM    9  C23 UNL     1      23.593   1.809  50.883  1.00  0.00     0.041 A 
ENDROOT
BRANCH   6  10
HETATM   10  N3  UNL     1      26.745   4.436  49.824  1.00  0.00    -0.363 N 
HETATM   11  H14 UNL     1      27.716   4.243  50.151  1.00  0.00     0.162 HD
BRANCH  10  12
HETATM   12  C13 UNL     1      26.453   5.571  49.020  1.00  0.00     0.251 A 
HETATM   13  N4  UNL     1      25.351   6.395  49.522  1.00  0.00    -0.252 NA
HETATM   14  C14 UNL     1      25.488   7.660  49.626  1.00  0.00     0.229 A 
HETATM   15  N5  UNL     1      26.609   8.506  49.318  1.00  0.00    -0.246 NA
HETATM   16  C15 UNL     1      27.661   7.868  48.857  1.00  0.00     0.050 A 
HETATM   17  C16 UNL     1      28.866   8.648  48.510  1.00  0.00     0.072 C 
HETATM   18  C17 UNL     1      27.564   6.448  48.719  1.00  0.00     0.053 A 
BRANCH  18  19
HETATM   19  C18 UNL     1      28.656   5.862  48.250  1.00  0.00    -0.107 C 
BRANCH  19  20
HETATM   20  C19 UNL     1      29.889   5.539  47.882  1.00  0.00     0.232 C 
BRANCH  20  21
HETATM   21  O1  UNL     1      30.796   5.212  48.862  1.00  0.00    -0.376 OA
HETATM   22  C20 UNL     1      32.139   5.620  48.647  1.00  0.00     0.203 C 
ENDBRANCH  20  21
ENDBRANCH  19  20
ENDBRANCH  18  19
ENDBRANCH  10  12
ENDBRANCH   6  10
BRANCH   1  23
HETATM   23  C7  UNL     1      22.034   0.516  52.323  1.00  0.00     0.061 A 
HETATM   24  C2  UNL     1      21.090   1.114  53.134  1.00  0.00     0.054 A 
HETATM   25  C3  UNL     1      20.772   0.588  54.369  1.00  0.00     0.031 A 
HETATM   26  C4  UNL     1      21.382  -0.552  54.847  1.00  0.00     0.002 A 
HETATM   27  C5  UNL     1      22.330  -1.189  54.082  1.00  0.00     0.002 A 
HETATM   28  C6  UNL     1      22.622  -0.638  52.856  1.00  0.00     0.032 A 
BRANCH  24  29
HETATM   29  N1  UNL     1      20.422   2.293  52.703  1.00  0.00    -0.392 N 
HETATM   30  C1  UNL     1      19.226   2.441  51.884  1.00  0.00     0.146 C 
HETATM   31  H4  UNL     1      20.755   3.227  52.956  1.00  0.00     0.159 HD
ENDBRANCH  24  29
ENDBRANCH   1  23
TORSDOF 7
ENDMDL
MODEL 7
REMARK VINA RESULT:      -7.5      7.761     10.658
REMARK  7 active torsions:
REMARK  status: ('A' for Active; 'I' for Inactive)
REMARK    1  A    between atoms: N1_2  and  C2_3 
REMARK    2  A    between atoms: C7_8  and  N2_9 
REMARK    3  A    between atoms: C12_14  and  N3_15 
REMARK    4  A    between atoms: N3_15  and  C13_16 
REMARK    5  A    between atoms: C17_22  and  C18_23 
REMARK    6  A    between atoms: C18_23  and  C19_24 
REMARK    7  A    between atoms: C19_24  and  O1_25 
ROOT
HETATM    1  N2  UNL     1      32.571   6.598  47.632  1.00  0.00    -0.344 N 
HETATM    2  C8  UNL     1      32.812   7.964  48.125  1.00  0.00     0.134 C 
HETATM    3  C9  UNL     1      31.611   8.672  47.488  1.00  0.00     0.061 C 
HETATM    4  C10 UNL     1      30.500   7.682  47.715  1.00  0.00    -0.028 A 
HETATM    5  C11 UNL     1      29.133   7.766  47.845  1.00  0.00     0.038 A 
HETATM    6  C12 UNL     1      28.351   6.653  48.052  1.00  0.00     0.030 A 
HETATM    7  C21 UNL     1      28.958   5.436  48.131  1.00  0.00     0.031 A 
HETATM    8  C22 UNL     1      30.329   5.338  48.004  1.00  0.00     0.032 A 
HETATM    9  C23 UNL     1      31.145   6.449  47.793  1.00  0.00     0.041 A 
ENDROOT
BRANCH   6  10
HETATM   10  N3  UNL     1      26.937   6.774  48.180  1.00  0.00    -0.363 N 
HETATM   11  H14 UNL     1      26.343   6.784  47.323  1.00  0.00     0.162 HD
BRANCH  10  12
HETATM   12  C13 UNL     1      26.361   6.880  49.475  1.00  0.00     0.251 A 
HETATM   13  N4  UNL     1      25.777   8.192  49.766  1.00  0.00    -0.252 NA
HETATM   14  C14 UNL     1      24.598   8.278  50.248  1.00  0.00     0.229 A 
HETATM   15  N5  UNL     1      23.652   7.252  50.591  1.00  0.00    -0.246 NA
HETATM   16  C15 UNL     1      24.073   6.028  50.369  1.00  0.00     0.050 A 
HETATM   17  C16 UNL     1      23.175   4.900  50.689  1.00  0.00     0.072 C 
HETATM   18  C17 UNL     1      25.388   5.870  49.829  1.00  0.00     0.053 A 
BRANCH  18  19
HETATM   19  C18 UNL     1      25.756   4.613  49.627  1.00  0.00    -0.107 C 
BRANCH  19  20
HETATM   20  C19 UNL     1      26.239   3.380  49.717  1.00  0.00     0.232 C 
BRANCH  20  21
HETATM   21  O1  UNL     1      27.101   3.092  50.748  1.00  0.00    -0.376 OA
HETATM   22  C20 UNL     1      26.663   2.126  51.693  1.00  0.00     0.203 C 
ENDBRANCH  20  21
ENDBRANCH  19  20
ENDBRANCH  18  19
ENDBRANCH  10  12
ENDBRANCH   6  10
BRANCH   1  23
HETATM   23  C7  UNL     1      33.348   5.533  47.098  1.00  0.00     0.061 A 
HETATM   24  C2  UNL     1      33.468   5.295  45.744  1.00  0.00     0.054 A 
HETATM   25  C3  UNL     1      34.231   4.250  45.267  1.00  0.00     0.031 A 
HETATM   26  C4  UNL     1      34.903   3.398  46.119  1.00  0.00     0.002 A 
HETATM   27  C5  UNL     1      34.819   3.589  47.477  1.00  0.00     0.002 A 
HETATM   28  C6  UNL     1      34.049   4.640  47.917  1.00  0.00     0.032 A 
BRANCH  24  29
HETATM   29  N1  UNL     1      32.803   6.134  44.808  1.00  0.00    -0.392 N 
HETATM   30  C1  UNL     1      33.261   7.355  44.160  1.00  0.00     0.146 C 
HETATM   31  H4  UNL     1      31.855   5.932  44.479  1.00  0.00     0.159 HD
ENDBRANCH  24  29
ENDBRANCH   1  23
TORSDOF 7
ENDMDL
MODEL 8
REMARK VINA RESULT:      -7.4      6.926     12.003
REMARK  7 active torsions:
REMARK  status: ('A' for Active; 'I' for Inactive)
REMARK    1  A    between atoms: N1_2  and  C2_3 
REMARK    2  A    between atoms: C7_8  and  N2_9 
REMARK    3  A    between atoms: C12_14  and  N3_15 
REMARK    4  A    between atoms: N3_15  and  C13_16 
REMARK    5  A    between atoms: C17_22  and  C18_23 
REMARK    6  A    between atoms: C18_23  and  C19_24 
REMARK    7  A    between atoms: C19_24  and  O1_25 
ROOT
HETATM    1  N2  UNL     1      24.426   5.347  49.189  1.00  0.00    -0.344 N 
HETATM    2  C8  UNL     1      23.805   6.245  48.202  1.00  0.00     0.134 C 
HETATM    3  C9  UNL     1      24.808   7.404  48.257  1.00  0.00     0.061 C 
HETATM    4  C10 UNL     1      26.128   6.680  48.296  1.00  0.00    -0.028 A 
HETATM    5  C11 UNL     1      27.414   6.982  47.914  1.00  0.00     0.038 A 
HETATM    6  C12 UNL     1      28.451   6.093  48.080  1.00  0.00     0.030 A 
HETATM    7  C21 UNL     1      28.185   4.879  48.639  1.00  0.00     0.031 A 
HETATM    8  C22 UNL     1      26.899   4.563  49.025  1.00  0.00     0.032 A 
HETATM    9  C23 UNL     1      25.830   5.446  48.869  1.00  0.00     0.041 A 
ENDROOT
BRANCH   6  10
HETATM   10  N3  UNL     1      29.773   6.437  47.674  1.00  0.00    -0.363 N 
HETATM   11  H14 UNL     1      29.918   6.955  46.780  1.00  0.00     0.162 HD
BRANCH  10  12
HETATM   12  C13 UNL     1      30.873   6.068  48.495  1.00  0.00     0.251 A 
HETATM   13  N4  UNL     1      31.491   4.790  48.132  1.00  0.00    -0.252 NA
HETATM   14  C14 UNL     1      32.757   4.704  47.995  1.00  0.00     0.229 A 
HETATM   15  N5  UNL     1      33.782   5.701  48.143  1.00  0.00    -0.246 NA
HETATM   16  C15 UNL     1      33.338   6.893  48.471  1.00  0.00     0.050 A 
HETATM   17  C16 UNL     1      34.313   7.989  48.647  1.00  0.00     0.072 C 
HETATM   18  C17 UNL     1      31.926   7.049  48.637  1.00  0.00     0.053 A 
BRANCH  18  19
HETATM   19  C18 UNL     1      31.540   8.273  48.966  1.00  0.00    -0.107 C 
BRANCH  19  20
HETATM   20  C19 UNL     1      30.878   9.357  49.350  1.00  0.00     0.232 C 
BRANCH  20  21
HETATM   21  O1  UNL     1      31.123  10.537  48.689  1.00  0.00    -0.376 OA
HETATM   22  C20 UNL     1      31.613  10.433  47.360  1.00  0.00     0.203 C 
ENDBRANCH  20  21
ENDBRANCH  19  20
ENDBRANCH  18  19
ENDBRANCH  10  12
ENDBRANCH   6  10
BRANCH   1  23
HETATM   23  C7  UNL     1      23.990   4.511  50.254  1.00  0.00     0.061 A 
HETATM   24  C2  UNL     1      23.286   4.985  51.342  1.00  0.00     0.054 A 
HETATM   25  C3  UNL     1      22.881   4.140  52.355  1.00  0.00     0.031 A 
HETATM   26  C4  UNL     1      23.164   2.790  52.325  1.00  0.00     0.002 A 
HETATM   27  C5  UNL     1      23.862   2.264  51.265  1.00  0.00     0.002 A 
HETATM   28  C6  UNL     1      24.249   3.135  50.273  1.00  0.00     0.032 A 
BRANCH  24  29
HETATM   29  N1  UNL     1      22.960   6.366  51.437  1.00  0.00    -0.392 N 
HETATM   30  C1  UNL     1      21.769   7.076  50.992  1.00  0.00     0.146 C 
HETATM   31  H4  UNL     1      23.596   7.042  51.868  1.00  0.00     0.159 HD
ENDBRANCH  24  29
ENDBRANCH   1  23
TORSDOF 7
ENDMDL
MODEL 9
REMARK VINA RESULT:      -7.4      7.012     12.295
REMARK  7 active torsions:
REMARK  status: ('A' for Active; 'I' for Inactive)
REMARK    1  A    between atoms: N1_2  and  C2_3 
REMARK    2  A    between atoms: C7_8  and  N2_9 
REMARK    3  A    between atoms: C12_14  and  N3_15 
REMARK    4  A    between atoms: N3_15  and  C13_16 
REMARK    5  A    between atoms: C17_22  and  C18_23 
REMARK    6  A    between atoms: C18_23  and  C19_24 
REMARK    7  A    between atoms: C19_24  and  O1_25 
ROOT
HETATM    1  N2  UNL     1      24.478   5.091  50.040  1.00  0.00    -0.344 N 
HETATM    2  C8  UNL     1      24.918   3.858  50.711  1.00  0.00     0.134 C 
HETATM    3  C9  UNL     1      25.855   3.309  49.629  1.00  0.00     0.061 C 
HETATM    4  C10 UNL     1      26.584   4.548  49.181  1.00  0.00    -0.028 A 
HETATM    5  C11 UNL     1      27.813   4.803  48.620  1.00  0.00     0.038 A 
HETATM    6  C12 UNL     1      28.220   6.080  48.307  1.00  0.00     0.030 A 
HETATM    7  C21 UNL     1      27.373   7.115  48.565  1.00  0.00     0.031 A 
HETATM    8  C22 UNL     1      26.137   6.872  49.129  1.00  0.00     0.032 A 
HETATM    9  C23 UNL     1      25.700   5.589  49.456  1.00  0.00     0.041 A 
ENDROOT
BRANCH   6  10
HETATM   10  N3  UNL     1      29.500   6.311  47.725  1.00  0.00    -0.363 N 
HETATM   11  H14 UNL     1      29.565   6.795  46.803  1.00  0.00     0.162 HD
BRANCH  10  12
HETATM   12  C13 UNL     1      30.667   5.878  48.412  1.00  0.00     0.251 A 
HETATM   13  N4  UNL     1      31.275   4.666  47.856  1.00  0.00    -0.252 NA
HETATM   14  C14 UNL     1      32.527   4.628  47.614  1.00  0.00     0.229 A 
HETATM   15  N5  UNL     1      33.545   5.626  47.798  1.00  0.00    -0.246 NA
HETATM   16  C15 UNL     1      33.109   6.761  48.295  1.00  0.00     0.050 A 
HETATM   17  C16 UNL     1      34.077   7.854  48.522  1.00  0.00     0.072 C 
HETATM   18  C17 UNL     1      31.712   6.862  48.585  1.00  0.00     0.053 A 
BRANCH  18  19
HETATM   19  C18 UNL     1      31.334   8.031  49.083  1.00  0.00    -0.107 C 
BRANCH  19  20
HETATM   20  C19 UNL     1      30.691   9.141  49.419  1.00  0.00     0.232 C 
BRANCH  20  21
HETATM   21  O1  UNL     1      29.801   9.676  48.519  1.00  0.00    -0.376 OA
HETATM   22  C20 UNL     1      30.346  10.186  47.311  1.00  0.00     0.203 C 
ENDBRANCH  20  21
ENDBRANCH  19  20
ENDBRANCH  18  19
ENDBRANCH  10  12
ENDBRANCH   6  10
BRANCH   1  23
HETATM   23  C7  UNL     1      23.258   5.804  49.868  1.00  0.00     0.061 A 
HETATM   24  C2  UNL     1      22.398   5.578  48.813  1.00  0.00     0.054 A 
HETATM   25  C3  UNL     1      21.225   6.292  48.682  1.00  0.00     0.031 A 
HETATM   26  C4  UNL     1      20.863   7.260  49.595  1.00  0.00     0.002 A 
HETATM   27  C5  UNL     1      21.682   7.526  50.666  1.00  0.00     0.002 A 
HETATM   28  C6  UNL     1      22.844   6.796  50.765  1.00  0.00     0.032 A 
BRANCH  24  29
HETATM   29  N1  UNL     1      22.708   4.594  47.835  1.00  0.00    -0.392 N 
HETATM   30  C1  UNL     1      21.968   4.195  46.646  1.00  0.00     0.146 C 
HETATM   31  H4  UNL     1      23.560   4.029  47.888  1.00  0.00     0.159 HD
ENDBRANCH  24  29
ENDBRANCH   1  23
TORSDOF 7
ENDMDL
