MODEL 1
REMARK VINA RESULT:      -7.7      0.000      0.000
REMARK  4 active torsions:
REMARK  status: ('A' for Active; 'I' for Inactive)
REMARK    1  A    between atoms: C2_2  and  C3_3 
REMARK    2  A    between atoms: C10_11  and  N2_12 
REMARK    3  A    between atoms: C10_11  and  N3_14 
REMARK    4  A    between atoms: N3_14  and  C12_15 
ROOT
HETATM    1  C3  UNL     1      28.247   6.671  48.139  1.00  0.00    -0.036 A 
HETATM    2  C4  UNL     1      27.457   7.741  48.522  1.00  0.00     0.013 A 
HETATM    3  C5  UNL     1      26.319   7.401  49.250  1.00  0.00     0.033 A 
HETATM    4  C6  UNL     1      25.962   6.091  49.591  1.00  0.00     0.064 A 
HETATM    5  C7  UNL     1      26.835   5.117  49.150  1.00  0.00    -0.001 A 
HETATM    6  C8  UNL     1      27.972   5.352  48.432  1.00  0.00     0.022 A 
HETATM    7  C9  UNL     1      26.600   3.655  49.430  1.00  0.00     0.316 C 
HETATM    8  N1  UNL     1      26.243   3.547  50.814  1.00  0.00     0.142 N 
HETATM    9  C10 UNL     1      24.827   3.593  51.094  1.00  0.00     0.334 C 
HETATM   10  C18 UNL     1      24.296   4.988  50.961  1.00  0.00     0.176 C 
HETATM   11  N4  UNL     1      24.750   6.051  50.340  1.00  0.00    -0.258 NA
HETATM   12  H9  UNL     1      26.775   4.224  51.416  1.00  0.00     0.322 HD
ENDROOT
BRANCH   9  13
HETATM   13  N2  UNL     1      24.164   2.644  50.292  1.00  0.00    -0.376 NA
HETATM   14  C11 UNL     1      23.018   2.711  49.768  1.00  0.00     0.312 C 
ENDBRANCH   9  13
BRANCH   9  15
HETATM   15  N3  UNL     1      24.687   3.261  52.511  1.00  0.00    -0.335 N 
HETATM   16  H12 UNL     1      24.294   3.990  53.185  1.00  0.00     0.164 HD
BRANCH  15  17
HETATM   17  C12 UNL     1      25.009   2.049  53.178  1.00  0.00     0.031 A 
HETATM   18  C13 UNL     1      26.171   1.881  53.920  1.00  0.00     0.029 A 
HETATM   19  C14 UNL     1      26.481   0.706  54.559  1.00  0.00     0.002 A 
HETATM   20  C15 UNL     1      25.646  -0.387  54.499  1.00  0.00     0.000 A 
HETATM   21  C16 UNL     1      24.477  -0.266  53.771  1.00  0.00     0.002 A 
HETATM   22  C17 UNL     1      24.214   0.929  53.152  1.00  0.00     0.029 A 
ENDBRANCH  15  17
ENDBRANCH   9  15
BRANCH   1  23
HETATM   23  C2  UNL     1      29.443   7.010  47.378  1.00  0.00     0.001 C 
HETATM   24  C1  UNL     1      30.583   6.369  47.564  1.00  0.00     0.012 C 
ENDBRANCH   1  23
TORSDOF 4
ENDMDL
MODEL 2
REMARK VINA RESULT:      -7.5      4.327      7.732
REMARK  4 active torsions:
REMARK  status: ('A' for Active; 'I' for Inactive)
REMARK    1  A    between atoms: C2_2  and  C3_3 
REMARK    2  A    between atoms: C10_11  and  N2_12 
REMARK    3  A    between atoms: C10_11  and  N3_14 
REMARK    4  A    between atoms: N3_14  and  C12_15 
ROOT
HETATM    1  C3  UNL     1      18.770  -0.434  52.263  1.00  0.00    -0.036 A 
HETATM    2  C4  UNL     1      18.614   0.109  50.999  1.00  0.00     0.013 A 
HETATM    3  C5  UNL     1      19.690   0.873  50.551  1.00  0.00     0.033 A 
HETATM    4  C6  UNL     1      20.858   1.102  51.290  1.00  0.00     0.064 A 
HETATM    5  C7  UNL     1      20.886   0.504  52.533  1.00  0.00    -0.001 A 
HETATM    6  C8  UNL     1      19.883  -0.261  53.057  1.00  0.00     0.022 A 
HETATM    7  C9  UNL     1      22.068   0.648  53.457  1.00  0.00     0.316 C 
HETATM    8  N1  UNL     1      23.244   0.429  52.668  1.00  0.00     0.142 N 
HETATM    9  C10 UNL     1      23.836   1.616  52.097  1.00  0.00     0.334 C 
HETATM   10  C18 UNL     1      23.029   2.117  50.938  1.00  0.00     0.176 C 
HETATM   11  N4  UNL     1      21.783   1.918  50.577  1.00  0.00    -0.258 NA
HETATM   12  H9  UNL     1      23.102  -0.317  51.942  1.00  0.00     0.322 HD
ENDROOT
BRANCH   9  13
HETATM   13  N2  UNL     1      24.040   2.569  53.113  1.00  0.00    -0.376 NA
HETATM   14  C11 UNL     1      24.061   3.827  53.027  1.00  0.00     0.312 C 
ENDBRANCH   9  13
BRANCH   9  15
HETATM   15  N3  UNL     1      25.112   1.191  51.522  1.00  0.00    -0.335 N 
HETATM   16  H12 UNL     1      25.239   1.198  50.462  1.00  0.00     0.164 HD
BRANCH  15  17
HETATM   17  C12 UNL     1      26.283   0.742  52.188  1.00  0.00     0.031 A 
HETATM   18  C13 UNL     1      27.234   1.608  52.712  1.00  0.00     0.029 A 
HETATM   19  C14 UNL     1      28.368   1.169  53.350  1.00  0.00     0.002 A 
HETATM   20  C15 UNL     1      28.629  -0.174  53.508  1.00  0.00     0.000 A 
HETATM   21  C16 UNL     1      27.710  -1.073  53.003  1.00  0.00     0.002 A 
HETATM   22  C17 UNL     1      26.594  -0.584  52.374  1.00  0.00     0.029 A 
ENDBRANCH  15  17
ENDBRANCH   9  15
BRANCH   1  23
HETATM   23  C2  UNL     1      17.654  -1.238  52.745  1.00  0.00     0.001 C 
HETATM   24  C1  UNL     1      17.846  -2.285  53.527  1.00  0.00     0.012 C 
ENDBRANCH   1  23
TORSDOF 4
ENDMDL
MODEL 3
REMARK VINA RESULT:      -7.3      1.305      1.876
REMARK  4 active torsions:
REMARK  status: ('A' for Active; 'I' for Inactive)
REMARK    1  A    between atoms: C2_2  and  C3_3 
REMARK    2  A    between atoms: C10_11  and  N2_12 
REMARK    3  A    between atoms: C10_11  and  N3_14 
REMARK    4  A    between atoms: N3_14  and  C12_15 
ROOT
HETATM    1  C3  UNL     1      27.679   6.093  48.474  1.00  0.00    -0.036 A 
HETATM    2  C4  UNL     1      26.937   7.195  48.864  1.00  0.00     0.013 A 
HETATM    3  C5  UNL     1      25.740   6.897  49.512  1.00  0.00     0.033 A 
HETATM    4  C6  UNL     1      25.283   5.598  49.770  1.00  0.00     0.064 A 
HETATM    5  C7  UNL     1      26.117   4.591  49.330  1.00  0.00    -0.001 A 
HETATM    6  C8  UNL     1      27.307   4.784  48.687  1.00  0.00     0.022 A 
HETATM    7  C9  UNL     1      25.777   3.136  49.526  1.00  0.00     0.316 C 
HETATM    8  N1  UNL     1      25.335   2.990  50.882  1.00  0.00     0.142 N 
HETATM    9  C10 UNL     1      23.910   3.114  51.085  1.00  0.00     0.334 C 
HETATM   10  C18 UNL     1      23.475   4.545  50.991  1.00  0.00     0.176 C 
HETATM   11  N4  UNL     1      24.029   5.603  50.448  1.00  0.00    -0.258 NA
HETATM   12  H9  UNL     1      25.872   3.603  51.543  1.00  0.00     0.322 HD
ENDROOT
BRANCH   9  13
HETATM   13  N2  UNL     1      23.236   2.248  50.203  1.00  0.00    -0.376 NA
HETATM   14  C11 UNL     1      22.206   2.467  49.510  1.00  0.00     0.312 C 
ENDBRANCH   9  13
BRANCH   9  15
HETATM   15  N3  UNL     1      23.668   2.729  52.475  1.00  0.00    -0.335 N 
HETATM   16  H12 UNL     1      23.847   3.436  53.255  1.00  0.00     0.164 HD
BRANCH  15  17
HETATM   17  C12 UNL     1      23.203   1.489  52.987  1.00  0.00     0.031 A 
HETATM   18  C13 UNL     1      21.858   1.212  53.192  1.00  0.00     0.029 A 
HETATM   19  C14 UNL     1      21.414   0.013  53.693  1.00  0.00     0.002 A 
HETATM   20  C15 UNL     1      22.290  -0.996  54.025  1.00  0.00     0.000 A 
HETATM   21  C16 UNL     1      23.639  -0.765  53.838  1.00  0.00     0.002 A 
HETATM   22  C17 UNL     1      24.031   0.449  53.335  1.00  0.00     0.029 A 
ENDBRANCH  15  17
ENDBRANCH   9  15
BRANCH   1  23
HETATM   23  C2  UNL     1      28.936   6.388  47.797  1.00  0.00     0.001 C 
HETATM   24  C1  UNL     1      30.009   5.638  47.978  1.00  0.00     0.012 C 
ENDBRANCH   1  23
TORSDOF 4
ENDMDL
MODEL 4
REMARK VINA RESULT:      -7.2      1.883      7.520
REMARK  4 active torsions:
REMARK  status: ('A' for Active; 'I' for Inactive)
REMARK    1  A    between atoms: C2_2  and  C3_3 
REMARK    2  A    between atoms: C10_11  and  N2_12 
REMARK    3  A    between atoms: C10_11  and  N3_14 
REMARK    4  A    between atoms: N3_14  and  C12_15 
ROOT
HETATM    1  C3  UNL     1      22.011  -0.261  53.334  1.00  0.00    -0.036 A 
HETATM    2  C4  UNL     1      20.872  -0.134  52.557  1.00  0.00     0.013 A 
HETATM    3  C5  UNL     1      20.865   0.966  51.701  1.00  0.00     0.033 A 
HETATM    4  C6  UNL     1      21.906   1.897  51.603  1.00  0.00     0.064 A 
HETATM    5  C7  UNL     1      22.983   1.655  52.431  1.00  0.00    -0.001 A 
HETATM    6  C8  UNL     1      23.081   0.607  53.301  1.00  0.00     0.022 A 
HETATM    7  C9  UNL     1      24.188   2.559  52.451  1.00  0.00     0.316 C 
HETATM    8  N1  UNL     1      24.538   2.819  51.086  1.00  0.00     0.142 N 
HETATM    9  C10 UNL     1      23.945   4.002  50.509  1.00  0.00     0.334 C 
HETATM   10  C18 UNL     1      22.495   3.784  50.201  1.00  0.00     0.176 C 
HETATM   11  N4  UNL     1      21.619   2.911  50.644  1.00  0.00    -0.258 NA
HETATM   12  H9  UNL     1      24.394   1.979  50.472  1.00  0.00     0.322 HD
ENDROOT
BRANCH   9  13
HETATM   13  N2  UNL     1      24.196   5.105  51.347  1.00  0.00    -0.376 NA
HETATM   14  C11 UNL     1      23.519   6.159  51.496  1.00  0.00     0.312 C 
ENDBRANCH   9  13
BRANCH   9  15
HETATM   15  N3  UNL     1      24.591   4.183  49.209  1.00  0.00    -0.335 N 
HETATM   16  H12 UNL     1      24.184   3.699  48.349  1.00  0.00     0.164 HD
BRANCH  15  17
HETATM   17  C12 UNL     1      25.745   4.945  48.886  1.00  0.00     0.031 A 
HETATM   18  C13 UNL     1      27.032   4.426  48.939  1.00  0.00     0.029 A 
HETATM   19  C14 UNL     1      28.146   5.168  48.632  1.00  0.00     0.002 A 
HETATM   20  C15 UNL     1      28.047   6.487  48.248  1.00  0.00     0.000 A 
HETATM   21  C16 UNL     1      26.785   7.046  48.180  1.00  0.00     0.002 A 
HETATM   22  C17 UNL     1      25.706   6.262  48.498  1.00  0.00     0.029 A 
ENDBRANCH  15  17
ENDBRANCH   9  15
BRANCH   1  23
HETATM   23  C2  UNL     1      22.036  -1.408  54.233  1.00  0.00     0.001 C 
HETATM   24  C1  UNL     1      22.798  -1.421  55.312  1.00  0.00     0.012 C 
ENDBRANCH   1  23
TORSDOF 4
ENDMDL
MODEL 5
REMARK VINA RESULT:      -7.2      1.096      1.170
REMARK  4 active torsions:
REMARK  status: ('A' for Active; 'I' for Inactive)
REMARK    1  A    between atoms: C2_2  and  C3_3 
REMARK    2  A    between atoms: C10_11  and  N2_12 
REMARK    3  A    between atoms: C10_11  and  N3_14 
REMARK    4  A    between atoms: N3_14  and  C12_15 
ROOT
HETATM    1  C3  UNL     1      28.706   7.498  47.888  1.00  0.00    -0.036 A 
HETATM    2  C4  UNL     1      27.936   8.516  48.423  1.00  0.00     0.013 A 
HETATM    3  C5  UNL     1      26.812   8.093  49.131  1.00  0.00     0.033 A 
HETATM    4  C6  UNL     1      26.451   6.752  49.310  1.00  0.00     0.064 A 
HETATM    5  C7  UNL     1      27.303   5.837  48.726  1.00  0.00    -0.001 A 
HETATM    6  C8  UNL     1      28.425   6.154  48.016  1.00  0.00     0.022 A 
HETATM    7  C9  UNL     1      27.062   4.352  48.823  1.00  0.00     0.316 C 
HETATM    8  N1  UNL     1      26.737   4.070  50.191  1.00  0.00     0.142 N 
HETATM    9  C10 UNL     1      25.329   4.089  50.509  1.00  0.00     0.334 C 
HETATM   10  C18 UNL     1      24.808   5.493  50.569  1.00  0.00     0.176 C 
HETATM   11  N4  UNL     1      25.257   6.624  50.078  1.00  0.00    -0.258 NA
HETATM   12  H9  UNL     1      27.290   4.661  50.860  1.00  0.00     0.322 HD
ENDROOT
BRANCH   9  13
HETATM   13  N2  UNL     1      24.637   3.255  49.609  1.00  0.00    -0.376 NA
HETATM   14  C11 UNL     1      23.471   3.384  49.146  1.00  0.00     0.312 C 
ENDBRANCH   9  13
BRANCH   9  15
HETATM   15  N3  UNL     1      25.219   3.580  51.875  1.00  0.00    -0.335 N 
HETATM   16  H12 UNL     1      25.233   4.264  52.694  1.00  0.00     0.164 HD
BRANCH  15  17
HETATM   17  C12 UNL     1      25.088   2.236  52.317  1.00  0.00     0.031 A 
HETATM   18  C13 UNL     1      26.131   1.320  52.269  1.00  0.00     0.029 A 
HETATM   19  C14 UNL     1      25.999   0.020  52.691  1.00  0.00     0.002 A 
HETATM   20  C15 UNL     1      24.807  -0.454  53.194  1.00  0.00     0.000 A 
HETATM   21  C16 UNL     1      23.742   0.422  53.262  1.00  0.00     0.002 A 
HETATM   22  C17 UNL     1      23.926   1.710  52.826  1.00  0.00     0.029 A 
ENDBRANCH  15  17
ENDBRANCH   9  15
BRANCH   1  23
HETATM   23  C2  UNL     1      29.887   7.923  47.146  1.00  0.00     0.001 C 
HETATM   24  C1  UNL     1      30.956   8.392  47.764  1.00  0.00     0.012 C 
ENDBRANCH   1  23
TORSDOF 4
ENDMDL
MODEL 6
REMARK VINA RESULT:      -7.1      1.870      2.570
REMARK  4 active torsions:
REMARK  status: ('A' for Active; 'I' for Inactive)
REMARK    1  A    between atoms: C2_2  and  C3_3 
REMARK    2  A    between atoms: C10_11  and  N2_12 
REMARK    3  A    between atoms: C10_11  and  N3_14 
REMARK    4  A    between atoms: N3_14  and  C12_15 
ROOT
HETATM    1  C3  UNL     1      25.148   7.139  48.749  1.00  0.00    -0.036 A 
HETATM    2  C4  UNL     1      24.409   7.830  49.694  1.00  0.00     0.013 A 
HETATM    3  C5  UNL     1      23.964   7.061  50.768  1.00  0.00     0.033 A 
HETATM    4  C6  UNL     1      24.220   5.693  50.919  1.00  0.00     0.064 A 
HETATM    5  C7  UNL     1      24.967   5.125  49.907  1.00  0.00    -0.001 A 
HETATM    6  C8  UNL     1      25.446   5.795  48.818  1.00  0.00     0.022 A 
HETATM    7  C9  UNL     1      25.332   3.663  49.914  1.00  0.00     0.316 C 
HETATM    8  N1  UNL     1      25.793   3.354  51.235  1.00  0.00     0.142 N 
HETATM    9  C10 UNL     1      24.783   2.871  52.146  1.00  0.00     0.334 C 
HETATM   10  C18 UNL     1      23.894   3.986  52.608  1.00  0.00     0.176 C 
HETATM   11  N4  UNL     1      23.641   5.175  52.114  1.00  0.00    -0.258 NA
HETATM   12  H9  UNL     1      26.346   4.141  51.657  1.00  0.00     0.322 HD
ENDROOT
BRANCH   9  13
HETATM   13  N2  UNL     1      24.095   1.795  51.551  1.00  0.00    -0.376 NA
HETATM   14  C11 UNL     1      23.142   1.111  52.013  1.00  0.00     0.312 C 
ENDBRANCH   9  13
BRANCH   9  15
HETATM   15  N3  UNL     1      25.498   2.429  53.342  1.00  0.00    -0.335 N 
HETATM   16  H12 UNL     1      25.133   2.707  54.306  1.00  0.00     0.164 HD
BRANCH  15  17
HETATM   17  C12 UNL     1      26.675   1.639  53.435  1.00  0.00     0.031 A 
HETATM   18  C13 UNL     1      27.926   2.177  53.707  1.00  0.00     0.029 A 
HETATM   19  C14 UNL     1      29.063   1.411  53.790  1.00  0.00     0.002 A 
HETATM   20  C15 UNL     1      29.025   0.047  53.607  1.00  0.00     0.000 A 
HETATM   21  C16 UNL     1      27.800  -0.533  53.335  1.00  0.00     0.002 A 
HETATM   22  C17 UNL     1      26.696   0.276  53.262  1.00  0.00     0.029 A 
ENDBRANCH  15  17
ENDBRANCH   9  15
BRANCH   1  23
HETATM   23  C2  UNL     1      25.623   7.929  47.620  1.00  0.00     0.001 C 
HETATM   24  C1  UNL     1      26.885   7.889  47.233  1.00  0.00     0.012 C 
ENDBRANCH   1  23
TORSDOF 4
ENDMDL
MODEL 7
REMARK VINA RESULT:      -7.1      1.463      7.324
REMARK  4 active torsions:
REMARK  status: ('A' for Active; 'I' for Inactive)
REMARK    1  A    between atoms: C2_2  and  C3_3 
REMARK    2  A    between atoms: C10_11  and  N2_12 
REMARK    3  A    between atoms: C10_11  and  N3_14 
REMARK    4  A    between atoms: N3_14  and  C12_15 
ROOT
HETATM    1  C3  UNL     1      24.904   0.236  53.426  1.00  0.00    -0.036 A 
HETATM    2  C4  UNL     1      26.161  -0.133  52.978  1.00  0.00     0.013 A 
HETATM    3  C5  UNL     1      26.668   0.650  51.942  1.00  0.00     0.033 A 
HETATM    4  C6  UNL     1      25.993   1.734  51.368  1.00  0.00     0.064 A 
HETATM    5  C7  UNL     1      24.750   1.995  51.906  1.00  0.00    -0.001 A 
HETATM    6  C8  UNL     1      24.170   1.287  52.919  1.00  0.00     0.022 A 
HETATM    7  C9  UNL     1      23.890   3.127  51.405  1.00  0.00     0.316 C 
HETATM    8  N1  UNL     1      24.738   4.276  51.287  1.00  0.00     0.142 N 
HETATM    9  C10 UNL     1      25.346   4.467  49.991  1.00  0.00     0.334 C 
HETATM   10  C18 UNL     1      26.463   3.494  49.771  1.00  0.00     0.176 C 
HETATM   11  N4  UNL     1      26.758   2.345  50.332  1.00  0.00    -0.258 NA
HETATM   12  H9  UNL     1      25.451   4.324  52.056  1.00  0.00     0.322 HD
ENDROOT
BRANCH   9  13
HETATM   13  N2  UNL     1      24.347   4.432  48.999  1.00  0.00    -0.376 NA
HETATM   14  C11 UNL     1      23.290   5.116  48.913  1.00  0.00     0.312 C 
ENDBRANCH   9  13
BRANCH   9  15
HETATM   15  N3  UNL     1      25.984   5.782  50.036  1.00  0.00    -0.335 N 
HETATM   16  H12 UNL     1      26.045   6.304  50.965  1.00  0.00     0.164 HD
BRANCH  15  17
HETATM   17  C12 UNL     1      26.572   6.523  48.977  1.00  0.00     0.031 A 
HETATM   18  C13 UNL     1      27.878   6.325  48.551  1.00  0.00     0.029 A 
HETATM   19  C14 UNL     1      28.445   7.048  47.530  1.00  0.00     0.002 A 
HETATM   20  C15 UNL     1      27.739   8.024  46.863  1.00  0.00     0.000 A 
HETATM   21  C16 UNL     1      26.434   8.256  47.253  1.00  0.00     0.002 A 
HETATM   22  C17 UNL     1      25.915   7.507  48.278  1.00  0.00     0.029 A 
ENDBRANCH  15  17
ENDBRANCH   9  15
BRANCH   1  23
HETATM   23  C2  UNL     1      24.360  -0.571  54.511  1.00  0.00     0.001 C 
HETATM   24  C1  UNL     1      23.084  -0.912  54.544  1.00  0.00     0.012 C 
ENDBRANCH   1  23
TORSDOF 4
ENDMDL
MODEL 8
REMARK VINA RESULT:      -7.0      1.815      6.462
REMARK  4 active torsions:
REMARK  status: ('A' for Active; 'I' for Inactive)
REMARK    1  A    between atoms: C2_2  and  C3_3 
REMARK    2  A    between atoms: C10_11  and  N2_12 
REMARK    3  A    between atoms: C10_11  and  N3_14 
REMARK    4  A    between atoms: N3_14  and  C12_15 
ROOT
HETATM    1  C3  UNL     1      27.078   0.690  53.778  1.00  0.00    -0.036 A 
HETATM    2  C4  UNL     1      27.018  -0.015  52.589  1.00  0.00     0.013 A 
HETATM    3  C5  UNL     1      26.058   0.436  51.685  1.00  0.00     0.033 A 
HETATM    4  C6  UNL     1      25.198   1.516  51.921  1.00  0.00     0.064 A 
HETATM    5  C7  UNL     1      25.361   2.133  53.145  1.00  0.00    -0.001 A 
HETATM    6  C8  UNL     1      26.272   1.763  54.093  1.00  0.00     0.022 A 
HETATM    7  C9  UNL     1      24.517   3.310  53.559  1.00  0.00     0.316 C 
HETATM    8  N1  UNL     1      24.478   4.210  52.444  1.00  0.00     0.142 N 
HETATM    9  C10 UNL     1      23.369   4.025  51.538  1.00  0.00     0.334 C 
HETATM   10  C18 UNL     1      23.568   2.811  50.682  1.00  0.00     0.176 C 
HETATM   11  N4  UNL     1      24.326   1.748  50.818  1.00  0.00    -0.258 NA
HETATM   12  H9  UNL     1      25.393   4.243  51.929  1.00  0.00     0.322 HD
ENDROOT
BRANCH   9  13
HETATM   13  N2  UNL     1      22.166   4.023  52.270  1.00  0.00    -0.376 NA
HETATM   14  C11 UNL     1      21.121   3.344  52.076  1.00  0.00     0.312 C 
ENDBRANCH   9  13
BRANCH   9  15
HETATM   15  N3  UNL     1      23.412   5.158  50.614  1.00  0.00    -0.335 N 
HETATM   16  H12 UNL     1      22.500   5.555  50.228  1.00  0.00     0.164 HD
BRANCH  15  17
HETATM   17  C12 UNL     1      24.542   5.858  50.116  1.00  0.00     0.031 A 
HETATM   18  C13 UNL     1      25.371   5.349  49.126  1.00  0.00     0.029 A 
HETATM   19  C14 UNL     1      26.466   6.027  48.651  1.00  0.00     0.002 A 
HETATM   20  C15 UNL     1      26.808   7.269  49.137  1.00  0.00     0.000 A 
HETATM   21  C16 UNL     1      26.011   7.817  50.124  1.00  0.00     0.002 A 
HETATM   22  C17 UNL     1      24.929   7.099  50.564  1.00  0.00     0.029 A 
ENDBRANCH  15  17
ENDBRANCH   9  15
BRANCH   1  23
HETATM   23  C2  UNL     1      28.079   0.231  54.734  1.00  0.00     0.001 C 
HETATM   24  C1  UNL     1      29.152  -0.432  54.343  1.00  0.00     0.012 C 
ENDBRANCH   1  23
TORSDOF 4
ENDMDL
MODEL 9
REMARK VINA RESULT:      -6.9      2.974      8.325
REMARK  4 active torsions:
REMARK  status: ('A' for Active; 'I' for Inactive)
REMARK    1  A    between atoms: C2_2  and  C3_3 
REMARK    2  A    between atoms: C10_11  and  N2_12 
REMARK    3  A    between atoms: C10_11  and  N3_14 
REMARK    4  A    between atoms: N3_14  and  C12_15 
ROOT
HETATM    1  C3  UNL     1      24.694   4.175  50.173  1.00  0.00    -0.036 A 
HETATM    2  C4  UNL     1      25.608   3.163  49.942  1.00  0.00     0.013 A 
HETATM    3  C5  UNL     1      26.805   3.573  49.357  1.00  0.00     0.033 A 
HETATM    4  C6  UNL     1      27.101   4.898  49.013  1.00  0.00     0.064 A 
HETATM    5  C7  UNL     1      26.104   5.810  49.297  1.00  0.00    -0.001 A 
HETATM    6  C8  UNL     1      24.902   5.503  49.867  1.00  0.00     0.022 A 
HETATM    7  C9  UNL     1      26.260   7.277  48.991  1.00  0.00     0.316 C 
HETATM    8  N1  UNL     1      27.563   7.663  49.446  1.00  0.00     0.142 N 
HETATM    9  C10 UNL     1      28.614   7.580  48.459  1.00  0.00     0.334 C 
HETATM   10  C18 UNL     1      29.011   6.156  48.212  1.00  0.00     0.176 C 
HETATM   11  N4  UNL     1      28.398   5.017  48.434  1.00  0.00    -0.258 NA
HETATM   12  H9  UNL     1      27.833   7.176  50.336  1.00  0.00     0.322 HD
ENDROOT
BRANCH   9  13
HETATM   13  N2  UNL     1      28.220   8.277  47.300  1.00  0.00    -0.376 NA
HETATM   14  C11 UNL     1      28.474   8.016  46.093  1.00  0.00     0.312 C 
ENDBRANCH   9  13
BRANCH   9  15
HETATM   15  N3  UNL     1      29.787   8.206  49.066  1.00  0.00    -0.335 N 
HETATM   16  H12 UNL     1      30.083   7.923  50.052  1.00  0.00     0.164 HD
BRANCH  15  17
HETATM   17  C12 UNL     1      30.650   9.195  48.524  1.00  0.00     0.031 A 
HETATM   18  C13 UNL     1      31.745   8.887  47.727  1.00  0.00     0.029 A 
HETATM   19  C14 UNL     1      32.581   9.845  47.209  1.00  0.00     0.002 A 
HETATM   20  C15 UNL     1      32.377  11.185  47.454  1.00  0.00     0.000 A 
HETATM   21  C16 UNL     1      31.298  11.539  48.241  1.00  0.00     0.002 A 
HETATM   22  C17 UNL     1      30.494  10.544  48.734  1.00  0.00     0.029 A 
ENDBRANCH  15  17
ENDBRANCH   9  15
BRANCH   1  23
HETATM   23  C2  UNL     1      23.438   3.762  50.787  1.00  0.00     0.001 C 
HETATM   24  C1  UNL     1      23.381   3.377  52.049  1.00  0.00     0.012 C 
ENDBRANCH   1  23
TORSDOF 4
ENDMDL
