MODEL 1
REMARK VINA RESULT:      -9.1      0.000      0.000
REMARK  4 active torsions:
REMARK  status: ('A' for Active; 'I' for Inactive)
REMARK    1  A    between atoms: C3_3  and  C4_4 
REMARK    2  A    between atoms: C5_5  and  C7_7 
REMARK    3  A    between atoms: C8_8  and  N1_9 
REMARK    4  A    between atoms: C9_10  and  N2_11 
ROOT
HETATM    1  C7  UNL     1      24.796   3.183  49.937  1.00  0.00    -0.009 C 
HETATM    2  C8  UNL     1      24.677   2.492  51.087  1.00  0.00     0.056 C 
HETATM    3  C9  UNL     1      24.048   1.511  51.941  1.00  0.00     0.257 C 
HETATM    4  N3  UNL     1      22.793   0.991  51.470  1.00  0.00    -0.243 NA
HETATM    5  C17 UNL     1      21.669   1.421  51.238  1.00  0.00     0.121 C 
HETATM    6  C18 UNL     1      20.512   0.657  50.746  1.00  0.00     0.093 C 
HETATM    7  N4  UNL     1      21.420   2.836  51.445  1.00  0.00    -0.230 NA
HETATM    8  C19 UNL     1      21.827   3.603  50.451  1.00  0.00     0.204 C 
HETATM    9  N5  UNL     1      22.418   2.726  49.456  1.00  0.00    -0.380 N 
HETATM   10  C20 UNL     1      23.659   3.255  48.989  1.00  0.00     0.161 C 
HETATM   11  H28 UNL     1      21.988   1.881  49.137  1.00  0.00     0.160 HD
ENDROOT
BRANCH   3  12
HETATM   12  N2  UNL     1      24.882   0.354  52.266  1.00  0.00    -0.378 N 
HETATM   13  C10 UNL     1      26.241   0.458  51.877  1.00  0.00     0.130 C 
HETATM   14  C11 UNL     1      27.177  -0.506  52.612  1.00  0.00     0.044 C 
HETATM   15  C12 UNL     1      26.959  -1.935  52.303  1.00  0.00     0.017 C 
HETATM   16  C13 UNL     1      27.176  -0.139  54.049  1.00  0.00     0.015 C 
HETATM   17 CL1  UNL     1      28.550   0.112  55.097  1.00  0.00    -0.089 Cl
HETATM   18  C14 UNL     1      25.918  -0.025  54.436  1.00  0.00     0.017 C 
HETATM   19  C15 UNL     1      24.730  -0.247  53.510  1.00  0.00     0.102 C 
HETATM   20  C16 UNL     1      23.528  -0.071  54.352  1.00  0.00     0.036 C 
ENDBRANCH   3  12
BRANCH   2  21
HETATM   21  N1  UNL     1      25.819   2.891  51.879  1.00  0.00    -0.399 N 
HETATM   22  H10 UNL     1      26.701   3.197  52.406  1.00  0.00     0.156 HD
HETATM   23  H11 UNL     1      26.808   3.216  51.954  1.00  0.00     0.156 HD
ENDBRANCH   2  21
BRANCH   1  24
HETATM   24  C5  UNL     1      25.843   4.156  49.466  1.00  0.00    -0.052 C 
HETATM   25  C4  UNL     1      27.132   4.333  48.996  1.00  0.00     0.007 C 
HETATM   26  C6  UNL     1      25.430   5.575  49.327  1.00  0.00     0.049 C 
BRANCH  25  27
HETATM   27  C3  UNL     1      27.446   5.670  48.626  1.00  0.00    -0.004 C 
HETATM   28  C2  UNL     1      28.736   5.641  48.233  1.00  0.00    -0.031 C 
HETATM   29  C1  UNL     1      29.632   6.708  47.734  1.00  0.00     0.036 C 
ENDBRANCH  25  27
ENDBRANCH   1  24
TORSDOF 4
ENDMDL
MODEL 2
REMARK VINA RESULT:      -8.5      1.686      2.650
REMARK  4 active torsions:
REMARK  status: ('A' for Active; 'I' for Inactive)
REMARK    1  A    between atoms: C3_3  and  C4_4 
REMARK    2  A    between atoms: C5_5  and  C7_7 
REMARK    3  A    between atoms: C8_8  and  N1_9 
REMARK    4  A    between atoms: C9_10  and  N2_11 
ROOT
HETATM    1  C7  UNL     1      23.183   1.811  51.469  1.00  0.00    -0.009 C 
HETATM    2  C8  UNL     1      23.721   1.238  52.563  1.00  0.00     0.056 C 
HETATM    3  C9  UNL     1      23.791   0.211  53.577  1.00  0.00     0.257 C 
HETATM    4  N3  UNL     1      22.676  -0.696  53.620  1.00  0.00    -0.243 NA
HETATM    5  C17 UNL     1      21.473  -0.635  53.850  1.00  0.00     0.121 C 
HETATM    6  C18 UNL     1      20.511  -1.748  53.832  1.00  0.00     0.093 C 
HETATM    7  N4  UNL     1      20.899   0.660  54.163  1.00  0.00    -0.230 NA
HETATM    8  C19 UNL     1      20.648   1.405  53.102  1.00  0.00     0.204 C 
HETATM    9  N5  UNL     1      21.062   0.639  51.940  1.00  0.00    -0.380 N 
HETATM   10  C20 UNL     1      21.811   1.453  51.038  1.00  0.00     0.161 C 
HETATM   11  H28 UNL     1      20.825  -0.323  51.799  1.00  0.00     0.160 HD
ENDROOT
BRANCH   3  12
HETATM   12  N2  UNL     1      24.997  -0.615  53.532  1.00  0.00    -0.378 N 
HETATM   13  C10 UNL     1      25.865  -0.362  52.441  1.00  0.00     0.130 C 
HETATM   14  C11 UNL     1      27.295  -0.871  52.648  1.00  0.00     0.044 C 
HETATM   15  C12 UNL     1      27.426  -2.342  52.709  1.00  0.00     0.017 C 
HETATM   16  C13 UNL     1      27.891  -0.113  53.776  1.00  0.00     0.015 C 
HETATM   17 CL1  UNL     1      29.438   0.695  53.832  1.00  0.00    -0.089 Cl
HETATM   18  C14 UNL     1      27.033  -0.142  54.781  1.00  0.00     0.017 C 
HETATM   19  C15 UNL     1      25.687  -0.851  54.715  1.00  0.00     0.102 C 
HETATM   20  C16 UNL     1      25.080  -0.680  56.053  1.00  0.00     0.036 C 
ENDBRANCH   3  12
BRANCH   2  21
HETATM   21  N1  UNL     1      24.895   2.029  52.857  1.00  0.00    -0.399 N 
HETATM   22  H10 UNL     1      25.796   2.558  53.099  1.00  0.00     0.156 HD
HETATM   23  H11 UNL     1      25.867   2.116  53.227  1.00  0.00     0.156 HD
ENDBRANCH   2  21
BRANCH   1  24
HETATM   24  C5  UNL     1      23.624   2.991  50.646  1.00  0.00    -0.052 C 
HETATM   25  C4  UNL     1      24.427   3.449  49.616  1.00  0.00     0.007 C 
HETATM   26  C6  UNL     1      22.928   4.279  50.887  1.00  0.00     0.049 C 
BRANCH  25  27
HETATM   27  C3  UNL     1      24.235   4.820  49.287  1.00  0.00    -0.004 C 
HETATM   28  C2  UNL     1      25.459   5.285  48.959  1.00  0.00    -0.031 C 
HETATM   29  C1  UNL     1      25.912   6.624  48.524  1.00  0.00     0.036 C 
ENDBRANCH  25  27
ENDBRANCH   1  24
TORSDOF 4
ENDMDL
MODEL 3
REMARK VINA RESULT:      -8.2      2.694      5.976
REMARK  4 active torsions:
REMARK  status: ('A' for Active; 'I' for Inactive)
REMARK    1  A    between atoms: C3_3  and  C4_4 
REMARK    2  A    between atoms: C5_5  and  C7_7 
REMARK    3  A    between atoms: C8_8  and  N1_9 
REMARK    4  A    between atoms: C9_10  and  N2_11 
ROOT
HETATM    1  C7  UNL     1      24.047   1.767  52.228  1.00  0.00    -0.009 C 
HETATM    2  C8  UNL     1      23.614   2.511  51.192  1.00  0.00     0.056 C 
HETATM    3  C9  UNL     1      22.612   3.272  50.482  1.00  0.00     0.257 C 
HETATM    4  N3  UNL     1      21.275   3.177  51.003  1.00  0.00    -0.243 NA
HETATM    5  C17 UNL     1      20.424   2.307  51.150  1.00  0.00     0.121 C 
HETATM    6  C18 UNL     1      19.082   2.469  51.729  1.00  0.00     0.093 C 
HETATM    7  N4  UNL     1      20.746   0.955  50.730  1.00  0.00    -0.230 NA
HETATM    8  C19 UNL     1      21.467   0.279  51.606  1.00  0.00     0.204 C 
HETATM    9  N5  UNL     1      21.705   1.167  52.731  1.00  0.00    -0.380 N 
HETATM   10  C20 UNL     1      23.073   1.114  53.135  1.00  0.00     0.161 C 
HETATM   11  H28 UNL     1      20.990   1.716  53.164  1.00  0.00     0.160 HD
ENDROOT
BRANCH   3  12
HETATM   12  N2  UNL     1      22.905   4.698  50.347  1.00  0.00    -0.378 N 
HETATM   13  C10 UNL     1      23.902   5.198  51.222  1.00  0.00     0.130 C 
HETATM   14  C11 UNL     1      24.521   6.525  50.772  1.00  0.00     0.044 C 
HETATM   15  C12 UNL     1      23.597   7.678  50.797  1.00  0.00     0.017 C 
HETATM   16  C13 UNL     1      25.237   6.286  49.495  1.00  0.00     0.015 C 
HETATM   17 CL1  UNL     1      26.866   6.750  49.072  1.00  0.00    -0.089 Cl
HETATM   18  C14 UNL     1      24.417   5.639  48.686  1.00  0.00     0.017 C 
HETATM   19  C15 UNL     1      22.998   5.241  49.071  1.00  0.00     0.102 C 
HETATM   20  C16 UNL     1      22.426   4.592  47.872  1.00  0.00     0.036 C 
ENDBRANCH   3  12
BRANCH   2  21
HETATM   21  N1  UNL     1      24.785   2.717  50.369  1.00  0.00    -0.399 N 
HETATM   22  H10 UNL     1      25.611   2.876  49.704  1.00  0.00     0.156 HD
HETATM   23  H11 UNL     1      25.228   2.888  49.439  1.00  0.00     0.156 HD
ENDBRANCH   2  21
BRANCH   1  24
HETATM   24  C5  UNL     1      25.412   1.234  52.567  1.00  0.00    -0.052 C 
HETATM   25  C4  UNL     1      26.371   0.266  52.324  1.00  0.00     0.007 C 
HETATM   26  C6  UNL     1      26.233   2.033  53.510  1.00  0.00     0.049 C 
BRANCH  25  27
HETATM   27  C3  UNL     1      27.594   0.462  53.023  1.00  0.00    -0.004 C 
HETATM   28  C2  UNL     1      28.189  -0.750  53.053  1.00  0.00    -0.031 C 
HETATM   29  C1  UNL     1      29.477  -1.194  53.629  1.00  0.00     0.036 C 
ENDBRANCH  25  27
ENDBRANCH   1  24
TORSDOF 4
ENDMDL
MODEL 4
REMARK VINA RESULT:      -8.2      2.946      4.209
REMARK  4 active torsions:
REMARK  status: ('A' for Active; 'I' for Inactive)
REMARK    1  A    between atoms: C3_3  and  C4_4 
REMARK    2  A    between atoms: C5_5  and  C7_7 
REMARK    3  A    between atoms: C8_8  and  N1_9 
REMARK    4  A    between atoms: C9_10  and  N2_11 
ROOT
HETATM    1  C7  UNL     1      24.602   5.328  49.280  1.00  0.00    -0.009 C 
HETATM    2  C8  UNL     1      24.024   4.780  50.367  1.00  0.00     0.056 C 
HETATM    3  C9  UNL     1      22.889   4.281  51.109  1.00  0.00     0.257 C 
HETATM    4  N3  UNL     1      21.600   4.555  50.531  1.00  0.00    -0.243 NA
HETATM    5  C17 UNL     1      20.921   5.542  50.271  1.00  0.00     0.121 C 
HETATM    6  C18 UNL     1      19.582   5.558  49.660  1.00  0.00     0.093 C 
HETATM    7  N4  UNL     1      21.469   6.851  50.570  1.00  0.00    -0.230 NA
HETATM    8  C19 UNL     1      22.315   7.299  49.661  1.00  0.00     0.204 C 
HETATM    9  N5  UNL     1      22.414   6.274  48.636  1.00  0.00    -0.380 N 
HETATM   10  C20 UNL     1      23.778   6.046  48.279  1.00  0.00     0.161 C 
HETATM   11  H28 UNL     1      21.621   5.817  48.232  1.00  0.00     0.160 HD
ENDROOT
BRANCH   3  12
HETATM   12  N2  UNL     1      22.921   2.847  51.391  1.00  0.00    -0.378 N 
HETATM   13  C10 UNL     1      22.305   2.454  52.606  1.00  0.00     0.130 C 
HETATM   14  C11 UNL     1      21.933   0.970  52.667  1.00  0.00     0.044 C 
HETATM   15  C12 UNL     1      23.085   0.043  52.684  1.00  0.00     0.017 C 
HETATM   16  C13 UNL     1      20.902   0.714  51.631  1.00  0.00     0.015 C 
HETATM   17 CL1  UNL     1      19.378  -0.118  51.812  1.00  0.00    -0.089 Cl
HETATM   18  C14 UNL     1      21.332   1.235  50.495  1.00  0.00     0.017 C 
HETATM   19  C15 UNL     1      22.664   1.958  50.354  1.00  0.00     0.102 C 
HETATM   20  C16 UNL     1      22.768   2.329  48.926  1.00  0.00     0.036 C 
ENDBRANCH   3  12
BRANCH   2  21
HETATM   21  N1  UNL     1      25.124   4.457  51.248  1.00  0.00    -0.399 N 
HETATM   22  H10 UNL     1      25.931   4.150  51.883  1.00  0.00     0.156 HD
HETATM   23  H11 UNL     1      25.770   3.762  51.682  1.00  0.00     0.156 HD
ENDBRANCH   2  21
BRANCH   1  24
HETATM   24  C5  UNL     1      26.047   5.578  48.942  1.00  0.00    -0.052 C 
HETATM   25  C4  UNL     1      27.282   5.023  48.659  1.00  0.00     0.007 C 
HETATM   26  C6  UNL     1      26.452   6.987  48.712  1.00  0.00     0.049 C 
BRANCH  25  27
HETATM   27  C3  UNL     1      28.285   5.968  48.307  1.00  0.00    -0.004 C 
HETATM   28  C2  UNL     1      29.419   5.252  48.158  1.00  0.00    -0.031 C 
HETATM   29  C1  UNL     1      30.793   5.659  47.795  1.00  0.00     0.036 C 
ENDBRANCH  25  27
ENDBRANCH   1  24
TORSDOF 4
ENDMDL
MODEL 5
REMARK VINA RESULT:      -8.2      3.235      5.821
REMARK  4 active torsions:
REMARK  status: ('A' for Active; 'I' for Inactive)
REMARK    1  A    between atoms: C3_3  and  C4_4 
REMARK    2  A    between atoms: C5_5  and  C7_7 
REMARK    3  A    between atoms: C8_8  and  N1_9 
REMARK    4  A    between atoms: C9_10  and  N2_11 
ROOT
HETATM    1  C7  UNL     1      23.879   2.435  51.138  1.00  0.00    -0.009 C 
HETATM    2  C8  UNL     1      22.741   1.865  50.699  1.00  0.00     0.056 C 
HETATM    3  C9  UNL     1      21.435   1.279  50.894  1.00  0.00     0.257 C 
HETATM    4  N3  UNL     1      21.080   0.993  52.259  1.00  0.00    -0.243 NA
HETATM    5  C17 UNL     1      21.478   0.262  53.159  1.00  0.00     0.121 C 
HETATM    6  C18 UNL     1      20.923   0.148  54.517  1.00  0.00     0.093 C 
HETATM    7  N4  UNL     1      22.626  -0.585  52.898  1.00  0.00    -0.230 NA
HETATM    8  C19 UNL     1      23.786   0.035  53.005  1.00  0.00     0.204 C 
HETATM    9  N5  UNL     1      23.496   1.415  53.353  1.00  0.00    -0.380 N 
HETATM   10  C20 UNL     1      24.275   2.311  52.561  1.00  0.00     0.161 C 
HETATM   11  H28 UNL     1      22.850   1.681  54.069  1.00  0.00     0.160 HD
ENDROOT
BRANCH   3  12
HETATM   12  N2  UNL     1      20.326   2.046  50.329  1.00  0.00    -0.378 N 
HETATM   13  C10 UNL     1      19.234   1.274  49.858  1.00  0.00     0.130 C 
HETATM   14  C11 UNL     1      17.929   2.062  49.712  1.00  0.00     0.044 C 
HETATM   15  C12 UNL     1      17.947   3.100  48.659  1.00  0.00     0.017 C 
HETATM   16  C13 UNL     1      17.509   2.507  51.063  1.00  0.00     0.015 C 
HETATM   17 CL1  UNL     1      15.939   2.346  51.811  1.00  0.00    -0.089 Cl
HETATM   18  C14 UNL     1      18.553   3.071  51.646  1.00  0.00     0.017 C 
HETATM   19  C15 UNL     1      19.916   3.203  50.980  1.00  0.00     0.102 C 
HETATM   20  C16 UNL     1      20.765   3.930  51.949  1.00  0.00     0.036 C 
ENDBRANCH   3  12
BRANCH   2  21
HETATM   21  N1  UNL     1      22.835   1.913  49.256  1.00  0.00    -0.399 N 
HETATM   22  H10 UNL     1      22.911   2.018  48.192  1.00  0.00     0.156 HD
HETATM   23  H11 UNL     1      22.938   2.449  48.367  1.00  0.00     0.156 HD
ENDBRANCH   2  21
BRANCH   1  24
HETATM   24  C5  UNL     1      25.041   3.037  50.394  1.00  0.00    -0.052 C 
HETATM   25  C4  UNL     1      25.473   4.019  49.520  1.00  0.00     0.007 C 
HETATM   26  C6  UNL     1      26.386   2.479  50.680  1.00  0.00     0.049 C 
BRANCH  25  27
HETATM   27  C3  UNL     1      26.880   4.045  49.314  1.00  0.00    -0.004 C 
HETATM   28  C2  UNL     1      27.135   5.228  48.717  1.00  0.00    -0.031 C 
HETATM   29  C1  UNL     1      28.400   5.841  48.257  1.00  0.00     0.036 C 
ENDBRANCH  25  27
ENDBRANCH   1  24
TORSDOF 4
ENDMDL
MODEL 6
REMARK VINA RESULT:      -7.9      3.548      6.176
REMARK  4 active torsions:
REMARK  status: ('A' for Active; 'I' for Inactive)
REMARK    1  A    between atoms: C3_3  and  C4_4 
REMARK    2  A    between atoms: C5_5  and  C7_7 
REMARK    3  A    between atoms: C8_8  and  N1_9 
REMARK    4  A    between atoms: C9_10  and  N2_11 
ROOT
HETATM    1  C7  UNL     1      24.424   2.190  51.380  1.00  0.00    -0.009 C 
HETATM    2  C8  UNL     1      23.158   2.299  51.825  1.00  0.00     0.056 C 
HETATM    3  C9  UNL     1      21.785   2.734  51.710  1.00  0.00     0.257 C 
HETATM    4  N3  UNL     1      21.510   3.646  50.632  1.00  0.00    -0.243 NA
HETATM    5  C17 UNL     1      21.835   4.783  50.310  1.00  0.00     0.121 C 
HETATM    6  C18 UNL     1      21.400   5.523  49.115  1.00  0.00     0.093 C 
HETATM    7  N4  UNL     1      22.758   5.503  51.168  1.00  0.00    -0.230 NA
HETATM    8  C19 UNL     1      24.025   5.180  50.982  1.00  0.00     0.204 C 
HETATM    9  N5  UNL     1      24.054   4.164  49.945  1.00  0.00    -0.380 N 
HETATM   10  C20 UNL     1      24.920   3.090  50.312  1.00  0.00     0.161 C 
HETATM   11  H28 UNL     1      23.546   4.236  49.086  1.00  0.00     0.160 HD
ENDROOT
BRANCH   3  12
HETATM   12  N2  UNL     1      20.805   1.654  51.599  1.00  0.00    -0.378 N 
HETATM   13  C10 UNL     1      19.554   1.905  52.217  1.00  0.00     0.130 C 
HETATM   14  C11 UNL     1      18.417   1.011  51.712  1.00  0.00     0.044 C 
HETATM   15  C12 UNL     1      18.557  -0.420  52.052  1.00  0.00     0.017 C 
HETATM   16  C13 UNL     1      18.190   1.326  50.280  1.00  0.00     0.015 C 
HETATM   17 CL1  UNL     1      16.677   1.674  49.481  1.00  0.00    -0.089 Cl
HETATM   18  C14 UNL     1      19.362   1.301  49.669  1.00  0.00     0.017 C 
HETATM   19  C15 UNL     1      20.673   0.997  50.381  1.00  0.00     0.102 C 
HETATM   20  C16 UNL     1      21.713   1.024  49.331  1.00  0.00     0.036 C 
ENDBRANCH   3  12
BRANCH   2  21
HETATM   21  N1  UNL     1      23.122   1.513  53.039  1.00  0.00    -0.399 N 
HETATM   22  H10 UNL     1      23.165   0.941  53.944  1.00  0.00     0.156 HD
HETATM   23  H11 UNL     1      23.602   1.077  53.857  1.00  0.00     0.156 HD
ENDBRANCH   2  21
BRANCH   1  24
HETATM   24  C5  UNL     1      25.608   1.437  51.924  1.00  0.00    -0.052 C 
HETATM   25  C4  UNL     1      26.125   0.211  52.304  1.00  0.00     0.007 C 
HETATM   26  C6  UNL     1      26.862   2.204  52.124  1.00  0.00     0.049 C 
BRANCH  25  27
HETATM   27  C3  UNL     1      27.498   0.242  52.676  1.00  0.00    -0.004 C 
HETATM   28  C2  UNL     1      27.828  -1.040  52.943  1.00  0.00    -0.031 C 
HETATM   29  C1  UNL     1      29.103  -1.653  53.372  1.00  0.00     0.036 C 
ENDBRANCH  25  27
ENDBRANCH   1  24
TORSDOF 4
ENDMDL
MODEL 7
REMARK VINA RESULT:      -7.9      5.567      9.603
REMARK  4 active torsions:
REMARK  status: ('A' for Active; 'I' for Inactive)
REMARK    1  A    between atoms: C3_3  and  C4_4 
REMARK    2  A    between atoms: C5_5  and  C7_7 
REMARK    3  A    between atoms: C8_8  and  N1_9 
REMARK    4  A    between atoms: C9_10  and  N2_11 
ROOT
HETATM    1  C7  UNL     1      27.979   7.957  48.837  1.00  0.00    -0.009 C 
HETATM    2  C8  UNL     1      29.078   8.079  48.069  1.00  0.00     0.056 C 
HETATM    3  C9  UNL     1      30.336   8.692  47.708  1.00  0.00     0.257 C 
HETATM    4  N3  UNL     1      30.653   9.913  48.399  1.00  0.00    -0.243 NA
HETATM    5  C17 UNL     1      30.193  11.046  48.484  1.00  0.00     0.121 C 
HETATM    6  C18 UNL     1      30.723  12.159  49.288  1.00  0.00     0.093 C 
HETATM    7  N4  UNL     1      28.990  11.356  47.735  1.00  0.00    -0.230 NA
HETATM    8  C19 UNL     1      27.876  10.953  48.318  1.00  0.00     0.204 C 
HETATM    9  N5  UNL     1      28.261  10.301  49.558  1.00  0.00    -0.380 N 
HETATM   10  C20 UNL     1      27.558   9.070  49.721  1.00  0.00     0.161 C 
HETATM   11  H28 UNL     1      28.916  10.689  50.207  1.00  0.00     0.160 HD
ENDROOT
BRANCH   3  12
HETATM   12  N2  UNL     1      31.504   7.823  47.843  1.00  0.00    -0.378 N 
HETATM   13  C10 UNL     1      31.339   6.717  48.715  1.00  0.00     0.130 C 
HETATM   14  C11 UNL     1      32.354   5.591  48.495  1.00  0.00     0.044 C 
HETATM   15  C12 UNL     1      33.750   5.942  48.832  1.00  0.00     0.017 C 
HETATM   16  C13 UNL     1      32.129   5.030  47.140  1.00  0.00     0.015 C 
HETATM   17 CL1  UNL     1      31.957   3.353  46.685  1.00  0.00    -0.089 Cl
HETATM   18  C14 UNL     1      32.075   6.039  46.288  1.00  0.00     0.017 C 
HETATM   19  C15 UNL     1      32.226   7.496  46.702  1.00  0.00     0.102 C 
HETATM   20  C16 UNL     1      32.154   8.277  45.448  1.00  0.00     0.036 C 
ENDBRANCH   3  12
BRANCH   2  21
HETATM   21  N1  UNL     1      29.005   6.975  47.138  1.00  0.00    -0.399 N 
HETATM   22  H10 UNL     1      29.019   6.166  46.435  1.00  0.00     0.156 HD
HETATM   23  H11 UNL     1      29.453   6.334  46.448  1.00  0.00     0.156 HD
ENDBRANCH   2  21
BRANCH   1  24
HETATM   24  C5  UNL     1      26.872   6.937  48.834  1.00  0.00    -0.052 C 
HETATM   25  C4  UNL     1      26.465   5.668  49.208  1.00  0.00     0.007 C 
HETATM   26  C6  UNL     1      25.563   7.364  48.283  1.00  0.00     0.049 C 
BRANCH  25  27
HETATM   27  C3  UNL     1      25.102   5.379  48.922  1.00  0.00    -0.004 C 
HETATM   28  C2  UNL     1      24.914   4.103  49.320  1.00  0.00    -0.031 C 
HETATM   29  C1  UNL     1      23.716   3.236  49.291  1.00  0.00     0.036 C 
ENDBRANCH  25  27
ENDBRANCH   1  24
TORSDOF 4
ENDMDL
MODEL 8
REMARK VINA RESULT:      -7.8      2.550      5.447
REMARK  4 active torsions:
REMARK  status: ('A' for Active; 'I' for Inactive)
REMARK    1  A    between atoms: C3_3  and  C4_4 
REMARK    2  A    between atoms: C5_5  and  C7_7 
REMARK    3  A    between atoms: C8_8  and  N1_9 
REMARK    4  A    between atoms: C9_10  and  N2_11 
ROOT
HETATM    1  C7  UNL     1      25.497   2.456  51.063  1.00  0.00    -0.009 C 
HETATM    2  C8  UNL     1      24.235   2.866  51.292  1.00  0.00     0.056 C 
HETATM    3  C9  UNL     1      22.993   3.492  50.901  1.00  0.00     0.257 C 
HETATM    4  N3  UNL     1      23.019   4.194  49.646  1.00  0.00    -0.243 NA
HETATM    5  C17 UNL     1      23.591   5.168  49.170  1.00  0.00     0.121 C 
HETATM    6  C18 UNL     1      23.439   5.706  47.809  1.00  0.00     0.093 C 
HETATM    7  N4  UNL     1      24.537   5.884  50.005  1.00  0.00    -0.230 NA
HETATM    8  C19 UNL     1      25.729   5.322  50.068  1.00  0.00     0.204 C 
HETATM    9  N5  UNL     1      25.674   4.122  49.251  1.00  0.00    -0.380 N 
HETATM   10  C20 UNL     1      26.270   3.019  49.931  1.00  0.00     0.161 C 
HETATM   11  H28 UNL     1      25.286   4.099  48.329  1.00  0.00     0.160 HD
ENDROOT
BRANCH   3  12
HETATM   12  N2  UNL     1      21.841   2.593  50.850  1.00  0.00    -0.378 N 
HETATM   13  C10 UNL     1      22.152   1.215  50.735  1.00  0.00     0.130 C 
HETATM   14  C11 UNL     1      21.011   0.279  51.147  1.00  0.00     0.044 C 
HETATM   15  C12 UNL     1      19.827   0.321  50.262  1.00  0.00     0.017 C 
HETATM   16  C13 UNL     1      20.754   0.480  52.594  1.00  0.00     0.015 C 
HETATM   17 CL1  UNL     1      20.610  -0.735  53.840  1.00  0.00    -0.089 Cl
HETATM   18  C14 UNL     1      20.646   1.779  52.810  1.00  0.00     0.017 C 
HETATM   19  C15 UNL     1      20.775   2.826  51.712  1.00  0.00     0.102 C 
HETATM   20  C16 UNL     1      20.539   4.128  52.371  1.00  0.00     0.036 C 
ENDBRANCH   3  12
BRANCH   2  21
HETATM   21  N1  UNL     1      23.916   2.367  52.612  1.00  0.00    -0.399 N 
HETATM   22  H10 UNL     1      23.669   2.063  53.610  1.00  0.00     0.156 HD
HETATM   23  H11 UNL     1      23.633   2.528  53.603  1.00  0.00     0.156 HD
ENDBRANCH   2  21
BRANCH   1  24
HETATM   24  C5  UNL     1      26.446   1.644  51.903  1.00  0.00    -0.052 C 
HETATM   25  C4  UNL     1      26.842   0.383  52.311  1.00  0.00     0.007 C 
HETATM   26  C6  UNL     1      27.530   2.381  52.599  1.00  0.00     0.049 C 
BRANCH  25  27
HETATM   27  C3  UNL     1      28.002   0.368  53.134  1.00  0.00    -0.004 C 
HETATM   28  C2  UNL     1      28.478  -0.893  53.064  1.00  0.00    -0.031 C 
HETATM   29  C1  UNL     1      29.655  -1.532  53.691  1.00  0.00     0.036 C 
ENDBRANCH  25  27
ENDBRANCH   1  24
TORSDOF 4
ENDMDL
MODEL 9
REMARK VINA RESULT:      -7.5      3.252      5.553
REMARK  4 active torsions:
REMARK  status: ('A' for Active; 'I' for Inactive)
REMARK    1  A    between atoms: C3_3  and  C4_4 
REMARK    2  A    between atoms: C5_5  and  C7_7 
REMARK    3  A    between atoms: C8_8  and  N1_9 
REMARK    4  A    between atoms: C9_10  and  N2_11 
ROOT
HETATM    1  C7  UNL     1      23.400   6.001  49.872  1.00  0.00    -0.009 C 
HETATM    2  C8  UNL     1      23.123   4.711  49.601  1.00  0.00     0.056 C 
HETATM    3  C9  UNL     1      23.320   3.289  49.767  1.00  0.00     0.257 C 
HETATM    4  N3  UNL     1      24.481   2.906  50.525  1.00  0.00    -0.243 NA
HETATM    5  C17 UNL     1      25.698   3.002  50.418  1.00  0.00     0.121 C 
HETATM    6  C18 UNL     1      26.711   2.508  51.364  1.00  0.00     0.093 C 
HETATM    7  N4  UNL     1      26.234   3.681  49.253  1.00  0.00    -0.230 NA
HETATM    8  C19 UNL     1      26.224   4.998  49.349  1.00  0.00     0.204 C 
HETATM    9  N5  UNL     1      25.646   5.323  50.641  1.00  0.00    -0.380 N 
HETATM   10  C20 UNL     1      24.684   6.370  50.515  1.00  0.00     0.161 C 
HETATM   11  H28 UNL     1      25.915   4.877  51.495  1.00  0.00     0.160 HD
ENDROOT
BRANCH   3  12
HETATM   12  N2  UNL     1      22.186   2.577  50.355  1.00  0.00    -0.378 N 
HETATM   13  C10 UNL     1      22.046   1.225  49.953  1.00  0.00     0.130 C 
HETATM   14  C11 UNL     1      21.182   0.379  50.894  1.00  0.00     0.044 C 
HETATM   15  C12 UNL     1      19.754   0.757  50.930  1.00  0.00     0.017 C 
HETATM   16  C13 UNL     1      21.873   0.304  52.205  1.00  0.00     0.015 C 
HETATM   17 CL1  UNL     1      22.209  -1.116  53.164  1.00  0.00    -0.089 Cl
HETATM   18  C14 UNL     1      22.212   1.532  52.554  1.00  0.00     0.017 C 
HETATM   19  C15 UNL     1      21.912   2.760  51.705  1.00  0.00     0.102 C 
HETATM   20  C16 UNL     1      22.412   3.915  52.482  1.00  0.00     0.036 C 
ENDBRANCH   3  12
BRANCH   2  21
HETATM   21  N1  UNL     1      21.978   4.755  48.719  1.00  0.00    -0.399 N 
HETATM   22  H10 UNL     1      21.151   4.727  48.038  1.00  0.00     0.156 HD
HETATM   23  H11 UNL     1      21.405   4.346  47.949  1.00  0.00     0.156 HD
ENDBRANCH   2  21
BRANCH   1  24
HETATM   24  C5  UNL     1      22.730   7.275  49.433  1.00  0.00    -0.052 C 
HETATM   25  C4  UNL     1      21.675   8.151  49.616  1.00  0.00     0.007 C 
HETATM   26  C6  UNL     1      23.433   8.089  48.410  1.00  0.00     0.049 C 
BRANCH  25  27
HETATM   27  C3  UNL     1      21.740   9.326  48.817  1.00  0.00    -0.004 C 
HETATM   28  C2  UNL     1      20.720  10.103  49.236  1.00  0.00    -0.031 C 
HETATM   29  C1  UNL     1      20.267  11.442  48.801  1.00  0.00     0.036 C 
ENDBRANCH  25  27
ENDBRANCH   1  24
TORSDOF 4
ENDMDL
