MODEL 1
REMARK VINA RESULT:      -7.8      0.000      0.000
REMARK  3 active torsions:
REMARK  status: ('A' for Active; 'I' for Inactive)
REMARK    1  A    between atoms: C2_2  and  O1_3 
REMARK    2  A    between atoms: O1_3  and  C3_4 
REMARK    3  A    between atoms: C9_12  and  N3_13 
ROOT
HETATM    1  C3  UNL     1      19.587   0.352  52.569  1.00  0.00     0.080 C 
HETATM    2  C4  UNL     1      18.708   1.136  51.910  1.00  0.00     0.053 C 
HETATM    3  C5  UNL     1      18.950   2.484  51.419  1.00  0.00     0.114 C 
HETATM    4  N1  UNL     1      19.378   3.625  51.106  1.00  0.00    -0.288 NA
HETATM    5  C6  UNL     1      20.666   4.128  51.477  1.00  0.00     0.183 C 
HETATM    6  C7  UNL     1      21.756   4.699  50.937  1.00  0.00     0.079 C 
HETATM    7  C8  UNL     1      22.488   4.837  52.189  1.00  0.00     0.100 C 
HETATM    8  N2  UNL     1      23.074   4.933  53.217  1.00  0.00    -0.192 NA
HETATM    9  C9  UNL     1      22.625   5.141  49.820  1.00  0.00     0.085 C 
HETATM   10  C15 UNL     1      21.872   4.491  49.020  1.00  0.00     0.119 C 
HETATM   11  N4  UNL     1      22.073   3.218  48.921  1.00  0.00    -0.209 NA
HETATM   12  C16 UNL     1      22.923   2.596  49.918  1.00  0.00     0.245 C 
HETATM   13  O2  UNL     1      24.069   2.712  50.474  1.00  0.00    -0.271 OA
HETATM   14  C17 UNL     1      22.358   1.422  50.564  1.00  0.00     0.135 C 
HETATM   15  C18 UNL     1      23.051   0.796  51.729  1.00  0.00     0.279 C 
HETATM   16  N5  UNL     1      22.000  -0.118  52.276  1.00  0.00     0.094 N 
HETATM   17  C19 UNL     1      20.978   0.705  52.916  1.00  0.00     0.272 C 
HETATM   18  C20 UNL     1      21.115   0.364  54.420  1.00  0.00     0.050 C 
HETATM   19  H17 UNL     1      22.448  -0.760  52.952  1.00  0.00     0.316 HD
ENDROOT
BRANCH   9  20
HETATM   20  N3  UNL     1      23.799   5.880  49.778  1.00  0.00    -0.349 N 
HETATM   21  C10 UNL     1      24.954   5.250  49.249  1.00  0.00     0.118 A 
HETATM   22  C11 UNL     1      26.083   5.900  49.195  1.00  0.00     0.087 A 
HETATM   23 CL1  UNL     1      27.565   5.204  48.561  1.00  0.00    -0.080 Cl
HETATM   24  C12 UNL     1      26.226   7.262  49.647  1.00  0.00     0.137 A 
HETATM   25  F1  UNL     1      27.332   8.054  49.653  1.00  0.00    -0.205 F 
HETATM   26  C13 UNL     1      25.161   7.876  50.136  1.00  0.00     0.037 A 
HETATM   27  C14 UNL     1      23.827   7.226  50.239  1.00  0.00     0.159 A 
ENDBRANCH   9  20
BRANCH   1  28
HETATM   28  O1  UNL     1      19.153  -0.895  52.954  1.00  0.00    -0.353 OA
BRANCH  28  29
HETATM   29  C2  UNL     1      17.801  -1.272  52.973  1.00  0.00     0.171 C 
HETATM   30  C1  UNL     1      17.559  -2.637  53.548  1.00  0.00     0.034 C 
ENDBRANCH  28  29
ENDBRANCH   1  28
TORSDOF 3
ENDMDL
MODEL 2
REMARK VINA RESULT:      -7.8      1.406      3.034
REMARK  3 active torsions:
REMARK  status: ('A' for Active; 'I' for Inactive)
REMARK    1  A    between atoms: C2_2  and  O1_3 
REMARK    2  A    between atoms: O1_3  and  C3_4 
REMARK    3  A    between atoms: C9_12  and  N3_13 
ROOT
HETATM    1  C3  UNL     1      19.268   0.251  52.362  1.00  0.00     0.080 C 
HETATM    2  C4  UNL     1      20.353  -0.200  53.026  1.00  0.00     0.053 C 
HETATM    3  C5  UNL     1      21.739   0.154  52.759  1.00  0.00     0.114 C 
HETATM    4  N1  UNL     1      22.843   0.586  52.340  1.00  0.00    -0.288 NA
HETATM    5  C6  UNL     1      22.991   1.429  51.191  1.00  0.00     0.183 C 
HETATM    6  C7  UNL     1      23.560   2.587  50.815  1.00  0.00     0.079 C 
HETATM    7  C8  UNL     1      23.128   2.520  49.425  1.00  0.00     0.100 C 
HETATM    8  N2  UNL     1      22.761   2.454  48.298  1.00  0.00    -0.192 NA
HETATM    9  C9  UNL     1      24.250   3.877  51.043  1.00  0.00     0.085 C 
HETATM   10  C15 UNL     1      24.049   3.727  52.295  1.00  0.00     0.119 C 
HETATM   11  N4  UNL     1      22.884   4.055  52.750  1.00  0.00    -0.209 NA
HETATM   12  C16 UNL     1      21.829   4.288  51.783  1.00  0.00     0.245 C 
HETATM   13  O2  UNL     1      21.573   4.944  50.715  1.00  0.00    -0.271 OA
HETATM   14  C17 UNL     1      20.593   3.564  52.033  1.00  0.00     0.135 C 
HETATM   15  C18 UNL     1      19.495   3.576  51.021  1.00  0.00     0.279 C 
HETATM   16  N5  UNL     1      18.603   2.475  51.502  1.00  0.00     0.094 N 
HETATM   17  C19 UNL     1      19.272   1.205  51.235  1.00  0.00     0.272 C 
HETATM   18  C20 UNL     1      18.391   0.544  50.147  1.00  0.00     0.050 C 
HETATM   19  H17 UNL     1      17.703   2.543  50.997  1.00  0.00     0.316 HD
ENDROOT
BRANCH   9  20
HETATM   20  N3  UNL     1      24.782   4.826  50.179  1.00  0.00    -0.349 N 
HETATM   21  C10 UNL     1      26.104   4.620  49.709  1.00  0.00     0.118 A 
HETATM   22  C11 UNL     1      26.650   5.486  48.903  1.00  0.00     0.087 A 
HETATM   23 CL1  UNL     1      28.280   5.319  48.271  1.00  0.00    -0.080 Cl
HETATM   24  C12 UNL     1      25.967   6.669  48.443  1.00  0.00     0.137 A 
HETATM   25  F1  UNL     1      26.410   7.651  47.612  1.00  0.00    -0.205 F 
HETATM   26  C13 UNL     1      24.729   6.880  48.860  1.00  0.00     0.037 A 
HETATM   27  C14 UNL     1      24.013   5.954  49.777  1.00  0.00     0.159 A 
ENDBRANCH   9  20
BRANCH   1  28
HETATM   28  O1  UNL     1      18.040  -0.216  52.770  1.00  0.00    -0.353 OA
BRANCH  28  29
HETATM   29  C2  UNL     1      17.816  -1.538  53.187  1.00  0.00     0.171 C 
HETATM   30  C1  UNL     1      16.503  -2.103  52.729  1.00  0.00     0.034 C 
ENDBRANCH  28  29
ENDBRANCH   1  28
TORSDOF 3
ENDMDL
MODEL 3
REMARK VINA RESULT:      -7.6      4.612      8.261
REMARK  3 active torsions:
REMARK  status: ('A' for Active; 'I' for Inactive)
REMARK    1  A    between atoms: C2_2  and  O1_3 
REMARK    2  A    between atoms: O1_3  and  C3_4 
REMARK    3  A    between atoms: C9_12  and  N3_13 
ROOT
HETATM    1  C3  UNL     1      23.990   3.373  50.131  1.00  0.00     0.080 C 
HETATM    2  C4  UNL     1      23.619   2.848  48.945  1.00  0.00     0.053 C 
HETATM    3  C5  UNL     1      22.442   2.031  48.692  1.00  0.00     0.114 C 
HETATM    4  N1  UNL     1      21.390   1.341  48.716  1.00  0.00    -0.288 NA
HETATM    5  C6  UNL     1      20.658   1.037  49.909  1.00  0.00     0.183 C 
HETATM    6  C7  UNL     1      19.411   1.089  50.407  1.00  0.00     0.079 C 
HETATM    7  C8  UNL     1      19.744   0.515  51.704  1.00  0.00     0.100 C 
HETATM    8  N2  UNL     1      20.035   0.055  52.759  1.00  0.00    -0.192 NA
HETATM    9  C9  UNL     1      17.984   1.489  50.410  1.00  0.00     0.085 C 
HETATM   10  C15 UNL     1      18.230   2.256  49.419  1.00  0.00     0.119 C 
HETATM   11  N4  UNL     1      18.747   3.411  49.681  1.00  0.00    -0.209 NA
HETATM   12  C16 UNL     1      19.264   3.625  51.018  1.00  0.00     0.245 C 
HETATM   13  O2  UNL     1      18.938   3.517  52.250  1.00  0.00    -0.271 OA
HETATM   14  C17 UNL     1      20.622   4.143  51.079  1.00  0.00     0.135 C 
HETATM   15  C18 UNL     1      21.334   4.239  52.388  1.00  0.00     0.279 C 
HETATM   16  N5  UNL     1      22.751   4.476  51.967  1.00  0.00     0.094 N 
HETATM   17  C19 UNL     1      23.269   3.230  51.411  1.00  0.00     0.272 C 
HETATM   18  C20 UNL     1      24.346   2.789  52.432  1.00  0.00     0.050 C 
HETATM   19  H17 UNL     1      23.290   4.775  52.798  1.00  0.00     0.316 HD
ENDROOT
BRANCH   9  20
HETATM   20  N3  UNL     1      16.919   1.170  51.243  1.00  0.00    -0.349 N 
HETATM   21  C10 UNL     1      16.055   2.223  51.637  1.00  0.00     0.118 A 
HETATM   22  C11 UNL     1      15.046   1.977  52.424  1.00  0.00     0.087 A 
HETATM   23 CL1  UNL     1      13.924   3.213  52.968  1.00  0.00    -0.080 Cl
HETATM   24  C12 UNL     1      14.746   0.658  52.925  1.00  0.00     0.137 A 
HETATM   25  F1  UNL     1      13.739   0.259  53.748  1.00  0.00    -0.205 F 
HETATM   26  C13 UNL     1      15.531  -0.343  52.564  1.00  0.00     0.037 A 
HETATM   27  C14 UNL     1      16.706  -0.171  51.669  1.00  0.00     0.159 A 
ENDBRANCH   9  20
BRANCH   1  28
HETATM   28  O1  UNL     1      25.150   4.115  50.156  1.00  0.00    -0.353 OA
BRANCH  28  29
HETATM   29  C2  UNL     1      26.369   3.661  49.628  1.00  0.00     0.171 C 
HETATM   30  C1  UNL     1      27.148   4.721  48.905  1.00  0.00     0.034 C 
ENDBRANCH  28  29
ENDBRANCH   1  28
TORSDOF 3
ENDMDL
MODEL 4
REMARK VINA RESULT:      -7.4      3.238      4.653
REMARK  3 active torsions:
REMARK  status: ('A' for Active; 'I' for Inactive)
REMARK    1  A    between atoms: C2_2  and  O1_3 
REMARK    2  A    between atoms: O1_3  and  C3_4 
REMARK    3  A    between atoms: C9_12  and  N3_13 
ROOT
HETATM    1  C3  UNL     1      25.606  -0.355  53.376  1.00  0.00     0.080 C 
HETATM    2  C4  UNL     1      24.330  -0.748  53.185  1.00  0.00     0.053 C 
HETATM    3  C5  UNL     1      23.202   0.108  52.848  1.00  0.00     0.114 C 
HETATM    4  N1  UNL     1      22.391   1.030  52.579  1.00  0.00    -0.288 NA
HETATM    5  C6  UNL     1      22.736   2.419  52.553  1.00  0.00     0.183 C 
HETATM    6  C7  UNL     1      22.642   3.502  51.761  1.00  0.00     0.079 C 
HETATM    7  C8  UNL     1      23.286   4.422  52.689  1.00  0.00     0.100 C 
HETATM    8  N2  UNL     1      23.820   5.156  53.454  1.00  0.00    -0.192 NA
HETATM    9  C9  UNL     1      22.364   4.214  50.492  1.00  0.00     0.085 C 
HETATM   10  C15 UNL     1      22.267   3.080  49.914  1.00  0.00     0.119 C 
HETATM   11  N4  UNL     1      23.367   2.499  49.564  1.00  0.00    -0.209 NA
HETATM   12  C16 UNL     1      24.605   3.031  50.102  1.00  0.00     0.245 C 
HETATM   13  O2  UNL     1      25.251   4.126  50.239  1.00  0.00    -0.271 OA
HETATM   14  C17 UNL     1      25.479   2.048  50.721  1.00  0.00     0.135 C 
HETATM   15  C18 UNL     1      26.695   2.487  51.468  1.00  0.00     0.279 C 
HETATM   16  N5  UNL     1      27.088   1.243  52.203  1.00  0.00     0.094 N 
HETATM   17  C19 UNL     1      26.116   1.027  53.271  1.00  0.00     0.272 C 
HETATM   18  C20 UNL     1      26.933   1.253  54.566  1.00  0.00     0.050 C 
HETATM   19  H17 UNL     1      28.042   1.376  52.579  1.00  0.00     0.316 HD
ENDROOT
BRANCH   9  20
HETATM   20  N3  UNL     1      22.331   5.562  50.157  1.00  0.00    -0.349 N 
HETATM   21  C10 UNL     1      23.120   5.985  49.058  1.00  0.00     0.118 A 
HETATM   22  C11 UNL     1      23.130   7.241  48.709  1.00  0.00     0.087 A 
HETATM   23 CL1  UNL     1      24.076   7.860  47.365  1.00  0.00    -0.080 Cl
HETATM   24  C12 UNL     1      22.358   8.250  49.390  1.00  0.00     0.137 A 
HETATM   25  F1  UNL     1      22.275   9.585  49.140  1.00  0.00    -0.205 F 
HETATM   26  C13 UNL     1      21.606   7.879  50.414  1.00  0.00     0.037 A 
HETATM   27  C14 UNL     1      21.521   6.473  50.891  1.00  0.00     0.159 A 
ENDBRANCH   9  20
BRANCH   1  28
HETATM   28  O1  UNL     1      26.524  -1.328  53.698  1.00  0.00    -0.353 OA
BRANCH  28  29
HETATM   29  C2  UNL     1      27.173  -2.126  52.742  1.00  0.00     0.171 C 
HETATM   30  C1  UNL     1      28.646  -2.283  52.982  1.00  0.00     0.034 C 
ENDBRANCH  28  29
ENDBRANCH   1  28
TORSDOF 3
ENDMDL
MODEL 5
REMARK VINA RESULT:      -7.2      2.556      3.899
REMARK  3 active torsions:
REMARK  status: ('A' for Active; 'I' for Inactive)
REMARK    1  A    between atoms: C2_2  and  O1_3 
REMARK    2  A    between atoms: O1_3  and  C3_4 
REMARK    3  A    between atoms: C9_12  and  N3_13 
ROOT
HETATM    1  C3  UNL     1      21.947   0.757  52.411  1.00  0.00     0.080 C 
HETATM    2  C4  UNL     1      23.295   0.793  52.443  1.00  0.00     0.053 C 
HETATM    3  C5  UNL     1      24.156   1.670  51.664  1.00  0.00     0.114 C 
HETATM    4  N1  UNL     1      24.689   2.503  50.887  1.00  0.00    -0.288 NA
HETATM    5  C6  UNL     1      23.961   3.313  49.957  1.00  0.00     0.183 C 
HETATM    6  C7  UNL     1      23.822   4.595  49.579  1.00  0.00     0.079 C 
HETATM    7  C8  UNL     1      22.844   4.336  48.531  1.00  0.00     0.100 C 
HETATM    8  N2  UNL     1      22.042   4.108  47.686  1.00  0.00    -0.192 NA
HETATM    9  C9  UNL     1      24.016   6.058  49.705  1.00  0.00     0.085 C 
HETATM   10  C15 UNL     1      24.498   5.862  50.870  1.00  0.00     0.119 C 
HETATM   11  N4  UNL     1      23.657   5.701  51.839  1.00  0.00    -0.209 NA
HETATM   12  C16 UNL     1      22.269   5.472  51.488  1.00  0.00     0.245 C 
HETATM   13  O2  UNL     1      21.322   5.951  50.774  1.00  0.00    -0.271 OA
HETATM   14  C17 UNL     1      21.655   4.317  52.123  1.00  0.00     0.135 C 
HETATM   15  C18 UNL     1      20.292   3.868  51.712  1.00  0.00     0.279 C 
HETATM   16  N5  UNL     1      20.200   2.509  52.334  1.00  0.00     0.094 N 
HETATM   17  C19 UNL     1      21.073   1.612  51.583  1.00  0.00     0.272 C 
HETATM   18  C20 UNL     1      20.092   0.633  50.893  1.00  0.00     0.050 C 
HETATM   19  H17 UNL     1      19.213   2.200  52.295  1.00  0.00     0.316 HD
ENDROOT
BRANCH   9  20
HETATM   20  N3  UNL     1      23.693   7.125  48.877  1.00  0.00    -0.349 N 
HETATM   21  C10 UNL     1      24.150   7.079  47.536  1.00  0.00     0.118 A 
HETATM   22  C11 UNL     1      23.880   8.060  46.721  1.00  0.00     0.087 A 
HETATM   23 CL1  UNL     1      24.405   8.094  45.046  1.00  0.00    -0.080 Cl
HETATM   24  C12 UNL     1      23.114   9.217  47.115  1.00  0.00     0.137 A 
HETATM   25  F1  UNL     1      22.762  10.306  46.380  1.00  0.00    -0.205 F 
HETATM   26  C13 UNL     1      22.667   9.280  48.359  1.00  0.00     0.037 A 
HETATM   27  C14 UNL     1      22.918   8.215  49.365  1.00  0.00     0.159 A 
ENDBRANCH   9  20
BRANCH   1  28
HETATM   28  O1  UNL     1      21.321  -0.158  53.227  1.00  0.00    -0.353 OA
BRANCH  28  29
HETATM   29  C2  UNL     1      21.601  -0.292  54.596  1.00  0.00     0.171 C 
HETATM   30  C1  UNL     1      22.203  -1.616  54.965  1.00  0.00     0.034 C 
ENDBRANCH  28  29
ENDBRANCH   1  28
TORSDOF 3
ENDMDL
MODEL 6
REMARK VINA RESULT:      -7.2      2.262      3.982
REMARK  3 active torsions:
REMARK  status: ('A' for Active; 'I' for Inactive)
REMARK    1  A    between atoms: C2_2  and  O1_3 
REMARK    2  A    between atoms: O1_3  and  C3_4 
REMARK    3  A    between atoms: C9_12  and  N3_13 
ROOT
HETATM    1  C3  UNL     1      16.767  -0.532  51.738  1.00  0.00     0.080 C 
HETATM    2  C4  UNL     1      17.595  -0.884  52.744  1.00  0.00     0.053 C 
HETATM    3  C5  UNL     1      19.017  -0.589  52.837  1.00  0.00     0.114 C 
HETATM    4  N1  UNL     1      20.216  -0.238  52.693  1.00  0.00    -0.288 NA
HETATM    5  C6  UNL     1      20.726   0.414  51.525  1.00  0.00     0.183 C 
HETATM    6  C7  UNL     1      21.440   1.494  51.161  1.00  0.00     0.079 C 
HETATM    7  C8  UNL     1      21.414   1.215  49.732  1.00  0.00     0.100 C 
HETATM    8  N2  UNL     1      21.376   0.977  48.569  1.00  0.00    -0.192 NA
HETATM    9  C9  UNL     1      22.106   2.798  51.386  1.00  0.00     0.085 C 
HETATM   10  C15 UNL     1      21.552   2.846  52.535  1.00  0.00     0.119 C 
HETATM   11  N4  UNL     1      20.325   3.252  52.584  1.00  0.00    -0.209 NA
HETATM   12  C16 UNL     1      19.600   3.341  51.331  1.00  0.00     0.245 C 
HETATM   13  O2  UNL     1      19.691   3.824  50.150  1.00  0.00    -0.271 OA
HETATM   14  C17 UNL     1      18.306   2.677  51.320  1.00  0.00     0.135 C 
HETATM   15  C18 UNL     1      17.541   2.540  50.045  1.00  0.00     0.279 C 
HETATM   16  N5  UNL     1      16.491   1.536  50.407  1.00  0.00     0.094 N 
HETATM   17  C19 UNL     1      17.139   0.234  50.532  1.00  0.00     0.272 C 
HETATM   18  C20 UNL     1      16.566  -0.581  49.347  1.00  0.00     0.050 C 
HETATM   19  H17 UNL     1      15.775   1.533  49.661  1.00  0.00     0.316 HD
ENDROOT
BRANCH   9  20
HETATM   20  N3  UNL     1      22.909   3.595  50.581  1.00  0.00    -0.349 N 
HETATM   21  C10 UNL     1      24.259   3.199  50.402  1.00  0.00     0.118 A 
HETATM   22  C11 UNL     1      25.056   3.918  49.662  1.00  0.00     0.087 A 
HETATM   23 CL1  UNL     1      26.741   3.511  49.383  1.00  0.00    -0.080 Cl
HETATM   24  C12 UNL     1      24.629   5.121  48.991  1.00  0.00     0.137 A 
HETATM   25  F1  UNL     1      25.345   5.964  48.199  1.00  0.00    -0.205 F 
HETATM   26  C13 UNL     1      23.372   5.507  49.135  1.00  0.00     0.037 A 
HETATM   27  C14 UNL     1      22.382   4.759  49.954  1.00  0.00     0.159 A 
ENDBRANCH   9  20
BRANCH   1  28
HETATM   28  O1  UNL     1      15.450  -0.918  51.842  1.00  0.00    -0.353 OA
BRANCH  28  29
HETATM   29  C2  UNL     1      15.049  -2.181  52.306  1.00  0.00     0.171 C 
HETATM   30  C1  UNL     1      14.519  -3.083  51.230  1.00  0.00     0.034 C 
ENDBRANCH  28  29
ENDBRANCH   1  28
TORSDOF 3
ENDMDL
MODEL 7
REMARK VINA RESULT:      -7.1     10.924     13.299
REMARK  3 active torsions:
REMARK  status: ('A' for Active; 'I' for Inactive)
REMARK    1  A    between atoms: C2_2  and  O1_3 
REMARK    2  A    between atoms: O1_3  and  C3_4 
REMARK    3  A    between atoms: C9_12  and  N3_13 
ROOT
HETATM    1  C3  UNL     1      29.463  12.621  46.011  1.00  0.00     0.080 C 
HETATM    2  C4  UNL     1      28.434  11.993  46.617  1.00  0.00     0.053 C 
HETATM    3  C5  UNL     1      28.354  10.575  46.936  1.00  0.00     0.114 C 
HETATM    4  N1  UNL     1      28.500   9.336  47.094  1.00  0.00    -0.288 NA
HETATM    5  C6  UNL     1      29.621   8.592  46.604  1.00  0.00     0.183 C 
HETATM    6  C7  UNL     1      30.552   7.716  47.020  1.00  0.00     0.079 C 
HETATM    7  C8  UNL     1      31.204   7.566  45.726  1.00  0.00     0.100 C 
HETATM    8  N2  UNL     1      31.729   7.461  44.667  1.00  0.00    -0.192 NA
HETATM    9  C9  UNL     1      31.310   6.946  48.034  1.00  0.00     0.085 C 
HETATM   10  C15 UNL     1      30.752   7.651  48.940  1.00  0.00     0.119 C 
HETATM   11  N4  UNL     1      31.257   8.818  49.176  1.00  0.00    -0.209 NA
HETATM   12  C16 UNL     1      32.211   9.340  48.218  1.00  0.00     0.245 C 
HETATM   13  O2  UNL     1      33.284   9.026  47.597  1.00  0.00    -0.271 OA
HETATM   14  C17 UNL     1      31.933  10.685  47.741  1.00  0.00     0.135 C 
HETATM   15  C18 UNL     1      32.734  11.269  46.623  1.00  0.00     0.279 C 
HETATM   16  N5  UNL     1      31.923  12.466  46.238  1.00  0.00     0.094 N 
HETATM   17  C19 UNL     1      30.720  11.995  45.558  1.00  0.00     0.272 C 
HETATM   18  C20 UNL     1      30.906  12.478  44.099  1.00  0.00     0.050 C 
HETATM   19  H17 UNL     1      32.499  13.063  45.620  1.00  0.00     0.316 HD
ENDROOT
BRANCH   9  20
HETATM   20  N3  UNL     1      32.272   5.950  47.933  1.00  0.00    -0.349 N 
HETATM   21  C10 UNL     1      31.862   4.687  47.435  1.00  0.00     0.118 A 
HETATM   22  C11 UNL     1      32.726   3.717  47.329  1.00  0.00     0.087 A 
HETATM   23 CL1  UNL     1      32.312   2.120  46.727  1.00  0.00    -0.080 Cl
HETATM   24  C12 UNL     1      34.114   3.861  47.691  1.00  0.00     0.137 A 
HETATM   25  F1  UNL     1      35.117   2.942  47.637  1.00  0.00    -0.205 F 
HETATM   26  C13 UNL     1      34.525   5.032  48.150  1.00  0.00     0.037 A 
HETATM   27  C14 UNL     1      33.622   6.203  48.308  1.00  0.00     0.159 A 
ENDBRANCH   9  20
BRANCH   1  28
HETATM   28  O1  UNL     1      29.335  13.974  45.795  1.00  0.00    -0.353 OA
BRANCH  28  29
HETATM   29  C2  UNL     1      29.095  14.902  46.820  1.00  0.00     0.171 C 
HETATM   30  C1  UNL     1      28.177  16.020  46.423  1.00  0.00     0.034 C 
ENDBRANCH  28  29
ENDBRANCH   1  28
TORSDOF 3
ENDMDL
MODEL 8
REMARK VINA RESULT:      -7.0      1.670      3.274
REMARK  3 active torsions:
REMARK  status: ('A' for Active; 'I' for Inactive)
REMARK    1  A    between atoms: C2_2  and  O1_3 
REMARK    2  A    between atoms: O1_3  and  C3_4 
REMARK    3  A    between atoms: C9_12  and  N3_13 
ROOT
HETATM    1  C3  UNL     1      18.454   1.065  50.987  1.00  0.00     0.080 C 
HETATM    2  C4  UNL     1      19.386   0.218  51.470  1.00  0.00     0.053 C 
HETATM    3  C5  UNL     1      20.829   0.351  51.334  1.00  0.00     0.114 C 
HETATM    4  N1  UNL     1      22.021   0.663  51.078  1.00  0.00    -0.288 NA
HETATM    5  C6  UNL     1      22.401   1.777  50.264  1.00  0.00     0.183 C 
HETATM    6  C7  UNL     1      23.204   2.855  50.283  1.00  0.00     0.079 C 
HETATM    7  C8  UNL     1      22.860   3.320  48.945  1.00  0.00     0.100 C 
HETATM    8  N2  UNL     1      22.563   3.689  47.857  1.00  0.00    -0.192 NA
HETATM    9  C9  UNL     1      24.110   3.841  50.917  1.00  0.00     0.085 C 
HETATM   10  C15 UNL     1      23.802   3.346  52.052  1.00  0.00     0.119 C 
HETATM   11  N4  UNL     1      22.693   3.741  52.588  1.00  0.00    -0.209 NA
HETATM   12  C16 UNL     1      21.768   4.474  51.746  1.00  0.00     0.245 C 
HETATM   13  O2  UNL     1      21.712   5.472  50.947  1.00  0.00    -0.271 OA
HETATM   14  C17 UNL     1      20.403   3.973  51.748  1.00  0.00     0.135 C 
HETATM   15  C18 UNL     1      19.397   4.525  50.792  1.00  0.00     0.279 C 
HETATM   16  N5  UNL     1      18.281   3.532  50.890  1.00  0.00     0.094 N 
HETATM   17  C19 UNL     1      18.713   2.304  50.228  1.00  0.00     0.272 C 
HETATM   18  C20 UNL     1      17.796   2.213  48.984  1.00  0.00     0.050 C 
HETATM   19  H17 UNL     1      17.446   3.936  50.433  1.00  0.00     0.316 HD
ENDROOT
BRANCH   9  20
HETATM   20  N3  UNL     1      24.868   4.887  50.406  1.00  0.00    -0.349 N 
HETATM   21  C10 UNL     1      26.033   4.556  49.669  1.00  0.00     0.118 A 
HETATM   22  C11 UNL     1      26.783   5.501  49.176  1.00  0.00     0.087 A 
HETATM   23 CL1  UNL     1      28.244   5.190  48.253  1.00  0.00    -0.080 Cl
HETATM   24  C12 UNL     1      26.482   6.903  49.336  1.00  0.00     0.137 A 
HETATM   25  F1  UNL     1      27.170   7.986  48.884  1.00  0.00    -0.205 F 
HETATM   26  C13 UNL     1      25.396   7.238  50.012  1.00  0.00     0.037 A 
HETATM   27  C14 UNL     1      24.473   6.238  50.612  1.00  0.00     0.159 A 
ENDBRANCH   9  20
BRANCH   1  28
HETATM   28  O1  UNL     1      17.135   0.749  51.221  1.00  0.00    -0.353 OA
BRANCH  28  29
HETATM   29  C2  UNL     1      16.674  -0.565  51.398  1.00  0.00     0.171 C 
HETATM   30  C1  UNL     1      15.605  -0.969  50.425  1.00  0.00     0.034 C 
ENDBRANCH  28  29
ENDBRANCH   1  28
TORSDOF 3
ENDMDL
MODEL 9
REMARK VINA RESULT:      -6.9     10.655     13.173
REMARK  3 active torsions:
REMARK  status: ('A' for Active; 'I' for Inactive)
REMARK    1  A    between atoms: C2_2  and  O1_3 
REMARK    2  A    between atoms: O1_3  and  C3_4 
REMARK    3  A    between atoms: C9_12  and  N3_13 
ROOT
HETATM    1  C3  UNL     1      29.204  12.506  47.042  1.00  0.00     0.080 C 
HETATM    2  C4  UNL     1      29.813  12.584  48.244  1.00  0.00     0.053 C 
HETATM    3  C5  UNL     1      30.425  11.486  48.976  1.00  0.00     0.114 C 
HETATM    4  N1  UNL     1      30.869  10.398  49.425  1.00  0.00    -0.288 NA
HETATM    5  C6  UNL     1      30.687   9.132  48.782  1.00  0.00     0.183 C 
HETATM    6  C7  UNL     1      31.389   8.063  48.366  1.00  0.00     0.079 C 
HETATM    7  C8  UNL     1      30.243   7.318  47.863  1.00  0.00     0.100 C 
HETATM    8  N2  UNL     1      29.299   6.727  47.450  1.00  0.00    -0.192 NA
HETATM    9  C9  UNL     1      32.627   7.313  48.053  1.00  0.00     0.085 C 
HETATM   10  C15 UNL     1      33.286   8.394  48.215  1.00  0.00     0.119 C 
HETATM   11  N4  UNL     1      33.314   9.224  47.223  1.00  0.00    -0.209 NA
HETATM   12  C16 UNL     1      32.379   9.000  46.138  1.00  0.00     0.245 C 
HETATM   13  O2  UNL     1      31.969   8.091  45.337  1.00  0.00    -0.271 OA
HETATM   14  C17 UNL     1      31.588  10.160  45.757  1.00  0.00     0.135 C 
HETATM   15  C18 UNL     1      30.468  10.019  44.779  1.00  0.00     0.279 C 
HETATM   16  N5  UNL     1      29.738  11.316  44.938  1.00  0.00     0.094 N 
HETATM   17  C19 UNL     1      29.047  11.287  46.224  1.00  0.00     0.272 C 
HETATM   18  C20 UNL     1      27.548  11.255  45.837  1.00  0.00     0.050 C 
HETATM   19  H17 UNL     1      29.073  11.413  44.152  1.00  0.00     0.316 HD
ENDROOT
BRANCH   9  20
HETATM   20  N3  UNL     1      32.859   5.999  47.667  1.00  0.00    -0.349 N 
HETATM   21  C10 UNL     1      33.745   5.779  46.582  1.00  0.00     0.118 A 
HETATM   22  C11 UNL     1      33.989   4.564  46.177  1.00  0.00     0.087 A 
HETATM   23 CL1  UNL     1      35.068   4.192  44.842  1.00  0.00    -0.080 Cl
HETATM   24  C12 UNL     1      33.400   3.400  46.791  1.00  0.00     0.137 A 
HETATM   25  F1  UNL     1      33.560   2.086  46.474  1.00  0.00    -0.205 F 
HETATM   26  C13 UNL     1      32.577   3.578  47.811  1.00  0.00     0.037 A 
HETATM   27  C14 UNL     1      32.234   4.920  48.352  1.00  0.00     0.159 A 
ENDBRANCH   9  20
BRANCH   1  28
HETATM   28  O1  UNL     1      28.681  13.669  46.524  1.00  0.00    -0.353 OA
BRANCH  28  29
HETATM   29  C2  UNL     1      28.822  14.922  47.141  1.00  0.00     0.171 C 
HETATM   30  C1  UNL     1      29.453  15.962  46.263  1.00  0.00     0.034 C 
ENDBRANCH  28  29
ENDBRANCH   1  28
TORSDOF 3
ENDMDL
