MODEL 1
REMARK VINA RESULT:      -8.8      0.000      0.000
REMARK  5 active torsions:
REMARK  status: ('A' for Active; 'I' for Inactive)
REMARK    1  A    between atoms: C1_2  and  C2_3 
REMARK    2  A    between atoms: C1_2  and  C15_17 
REMARK    3  A    between atoms: C5_6  and  O2_7 
REMARK    4  A    between atoms: O2_7  and  C6_8 
REMARK    5  A    between atoms: C6_8  and  C7_9 
ROOT
HETATM    1  C2  UNL     1      23.589  -0.419  53.801  1.00  0.00     0.012 A 
HETATM    2  C3  UNL     1      23.015   0.202  52.716  1.00  0.00     0.018 A 
HETATM    3  C4  UNL     1      21.656   0.121  52.581  1.00  0.00     0.038 A 
HETATM    4  C5  UNL     1      20.916  -0.565  53.514  1.00  0.00     0.069 A 
HETATM    5  C13 UNL     1      21.533  -1.183  54.603  1.00  0.00     0.038 A 
HETATM    6  C14 UNL     1      22.920  -1.123  54.776  1.00  0.00     0.018 A 
ENDROOT
BRANCH   1   7
HETATM    7  C1  UNL     1      25.012  -0.371  54.003  1.00  0.00     0.181 C 
HETATM    8  O1  UNL     1      25.752  -0.862  54.908  1.00  0.00    -0.290 OA
BRANCH   7   9
HETATM    9  C15 UNL     1      26.296   0.115  53.498  1.00  0.00     0.152 C 
HETATM   10  C16 UNL     1      26.327   1.626  53.333  1.00  0.00     0.034 C 
HETATM   11  C17 UNL     1      27.628   2.085  52.766  1.00  0.00     0.022 C 
HETATM   12  C18 UNL     1      28.664   2.481  53.761  1.00  0.00     0.114 C 
HETATM   13  N1  UNL     1      29.264   1.431  54.495  1.00  0.00    -0.420 N 
HETATM   14  C19 UNL     1      29.590   0.247  53.787  1.00  0.00     0.133 C 
HETATM   15  H19 UNL     1      29.146   1.391  55.496  1.00  0.00     0.153 HD
HETATM   16  C20 UNL     1      28.512  -0.806  53.812  1.00  0.00     0.133 C 
HETATM   17  N2  UNL     1      27.314  -0.331  54.430  1.00  0.00    -0.409 N 
HETATM   18  H24 UNL     1      27.423   0.276  55.248  1.00  0.00     0.154 HD
ENDBRANCH   7   9
ENDBRANCH   1   7
BRANCH   4  19
HETATM   19  O2  UNL     1      19.550  -0.613  53.327  1.00  0.00    -0.347 OA
BRANCH  19  20
HETATM   20  C6  UNL     1      18.998   0.134  52.255  1.00  0.00     0.214 C 
BRANCH  20  21
HETATM   21  C7  UNL     1      17.711  -0.462  51.797  1.00  0.00    -0.034 A 
HETATM   22  C8  UNL     1      17.026  -1.327  52.634  1.00  0.00     0.009 A 
HETATM   23  C9  UNL     1      15.832  -1.934  52.314  1.00  0.00     0.001 A 
HETATM   24  C10 UNL     1      15.288  -1.659  51.080  1.00  0.00     0.000 A 
HETATM   25  C11 UNL     1      15.960  -0.798  50.239  1.00  0.00     0.001 A 
HETATM   26  C12 UNL     1      17.152  -0.186  50.545  1.00  0.00     0.009 A 
ENDBRANCH  20  21
ENDBRANCH  19  20
ENDBRANCH   4  19
TORSDOF 5
ENDMDL
MODEL 2
REMARK VINA RESULT:      -8.7      1.469      2.054
REMARK  5 active torsions:
REMARK  status: ('A' for Active; 'I' for Inactive)
REMARK    1  A    between atoms: C1_2  and  C2_3 
REMARK    2  A    between atoms: C1_2  and  C15_17 
REMARK    3  A    between atoms: C5_6  and  O2_7 
REMARK    4  A    between atoms: O2_7  and  C6_8 
REMARK    5  A    between atoms: C6_8  and  C7_9 
ROOT
HETATM    1  C2  UNL     1      23.320   0.240  53.345  1.00  0.00     0.012 A 
HETATM    2  C3  UNL     1      23.150  -0.612  54.412  1.00  0.00     0.018 A 
HETATM    3  C4  UNL     1      21.926  -1.204  54.565  1.00  0.00     0.038 A 
HETATM    4  C5  UNL     1      20.921  -0.937  53.668  1.00  0.00     0.069 A 
HETATM    5  C13 UNL     1      21.130  -0.067  52.597  1.00  0.00     0.038 A 
HETATM    6  C14 UNL     1      22.367   0.557  52.406  1.00  0.00     0.018 A 
ENDROOT
BRANCH   1   7
HETATM    7  C1  UNL     1      24.582   0.893  53.126  1.00  0.00     0.181 C 
HETATM    8  O1  UNL     1      24.883   2.114  52.963  1.00  0.00    -0.290 OA
BRANCH   7   9
HETATM    9  C15 UNL     1      26.027   0.726  52.970  1.00  0.00     0.152 C 
HETATM   10  C16 UNL     1      26.820   1.847  53.624  1.00  0.00     0.034 C 
HETATM   11  C17 UNL     1      28.285   1.678  53.401  1.00  0.00     0.022 C 
HETATM   12  C18 UNL     1      29.023   0.948  54.472  1.00  0.00     0.114 C 
HETATM   13  N1  UNL     1      28.794  -0.445  54.554  1.00  0.00    -0.420 N 
HETATM   14  C19 UNL     1      28.719  -1.165  53.335  1.00  0.00     0.133 C 
HETATM   15  H19 UNL     1      28.370  -0.834  55.383  1.00  0.00     0.153 HD
HETATM   16  C20 UNL     1      27.323  -1.310  52.787  1.00  0.00     0.133 C 
HETATM   17  N2  UNL     1      26.370  -0.561  53.544  1.00  0.00    -0.409 N 
HETATM   18  H24 UNL     1      26.496  -0.543  54.561  1.00  0.00     0.154 HD
ENDBRANCH   7   9
ENDBRANCH   1   7
BRANCH   4  19
HETATM   19  O2  UNL     1      19.708  -1.563  53.872  1.00  0.00    -0.347 OA
BRANCH  19  20
HETATM   20  C6  UNL     1      18.551  -0.977  53.300  1.00  0.00     0.214 C 
BRANCH  20  21
HETATM   21  C7  UNL     1      17.472  -1.989  53.123  1.00  0.00    -0.034 A 
HETATM   22  C8  UNL     1      17.633  -3.256  53.660  1.00  0.00     0.009 A 
HETATM   23  C9  UNL     1      16.703  -4.267  53.556  1.00  0.00     0.001 A 
HETATM   24  C10 UNL     1      15.539  -3.995  52.875  1.00  0.00     0.000 A 
HETATM   25  C11 UNL     1      15.367  -2.737  52.338  1.00  0.00     0.001 A 
HETATM   26  C12 UNL     1      16.285  -1.720  52.433  1.00  0.00     0.009 A 
ENDBRANCH  20  21
ENDBRANCH  19  20
ENDBRANCH   4  19
TORSDOF 5
ENDMDL
MODEL 3
REMARK VINA RESULT:      -8.5      6.072      9.241
REMARK  5 active torsions:
REMARK  status: ('A' for Active; 'I' for Inactive)
REMARK    1  A    between atoms: C1_2  and  C2_3 
REMARK    2  A    between atoms: C1_2  and  C15_17 
REMARK    3  A    between atoms: C5_6  and  O2_7 
REMARK    4  A    between atoms: O2_7  and  C6_8 
REMARK    5  A    between atoms: C6_8  and  C7_9 
ROOT
HETATM    1  C2  UNL     1      26.697   5.540  49.015  1.00  0.00     0.012 A 
HETATM    2  C3  UNL     1      27.177   4.253  48.937  1.00  0.00     0.018 A 
HETATM    3  C4  UNL     1      26.490   3.276  49.606  1.00  0.00     0.038 A 
HETATM    4  C5  UNL     1      25.364   3.601  50.322  1.00  0.00     0.069 A 
HETATM    5  C13 UNL     1      24.906   4.918  50.378  1.00  0.00     0.038 A 
HETATM    6  C14 UNL     1      25.580   5.945  49.708  1.00  0.00     0.018 A 
ENDROOT
BRANCH   1   7
HETATM    7  C1  UNL     1      27.370   6.612  48.334  1.00  0.00     0.181 C 
HETATM    8  O1  UNL     1      26.986   7.404  47.420  1.00  0.00    -0.290 OA
BRANCH   7   9
HETATM    9  C15 UNL     1      28.608   7.381  48.199  1.00  0.00     0.152 C 
HETATM   10  C16 UNL     1      28.445   8.833  48.621  1.00  0.00     0.034 C 
HETATM   11  C17 UNL     1      29.707   9.602  48.421  1.00  0.00     0.022 C 
HETATM   12  C18 UNL     1      30.612   9.681  49.604  1.00  0.00     0.114 C 
HETATM   13  N1  UNL     1      31.297   8.493  49.951  1.00  0.00    -0.420 N 
HETATM   14  C19 UNL     1      31.828   7.716  48.891  1.00  0.00     0.133 C 
HETATM   15  H19 UNL     1      31.118   8.056  50.842  1.00  0.00     0.153 HD
HETATM   16  C20 UNL     1      30.902   6.635  48.393  1.00  0.00     0.133 C 
HETATM   17  N2  UNL     1      29.612   6.712  49.004  1.00  0.00    -0.409 N 
HETATM   18  H24 UNL     1      29.583   6.960  49.997  1.00  0.00     0.154 HD
ENDBRANCH   7   9
ENDBRANCH   1   7
BRANCH   4  19
HETATM   19  O2  UNL     1      24.712   2.575  50.976  1.00  0.00    -0.347 OA
BRANCH  19  20
HETATM   20  C6  UNL     1      24.919   2.436  52.372  1.00  0.00     0.214 C 
BRANCH  20  21
HETATM   21  C7  UNL     1      26.065   1.527  52.654  1.00  0.00    -0.034 A 
HETATM   22  C8  UNL     1      27.206   2.035  53.252  1.00  0.00     0.009 A 
HETATM   23  C9  UNL     1      28.322   1.288  53.557  1.00  0.00     0.001 A 
HETATM   24  C10 UNL     1      28.296  -0.052  53.245  1.00  0.00     0.000 A 
HETATM   25  C11 UNL     1      27.165  -0.570  52.651  1.00  0.00     0.001 A 
HETATM   26  C12 UNL     1      26.046   0.164  52.341  1.00  0.00     0.009 A 
ENDBRANCH  20  21
ENDBRANCH  19  20
ENDBRANCH   4  19
TORSDOF 5
ENDMDL
MODEL 4
REMARK VINA RESULT:      -8.5      6.011      9.154
REMARK  5 active torsions:
REMARK  status: ('A' for Active; 'I' for Inactive)
REMARK    1  A    between atoms: C1_2  and  C2_3 
REMARK    2  A    between atoms: C1_2  and  C15_17 
REMARK    3  A    between atoms: C5_6  and  O2_7 
REMARK    4  A    between atoms: O2_7  and  C6_8 
REMARK    5  A    between atoms: C6_8  and  C7_9 
ROOT
HETATM    1  C2  UNL     1      26.483   5.486  49.108  1.00  0.00     0.012 A 
HETATM    2  C3  UNL     1      25.337   5.715  49.834  1.00  0.00     0.018 A 
HETATM    3  C4  UNL     1      24.764   4.649  50.473  1.00  0.00     0.038 A 
HETATM    4  C5  UNL     1      25.338   3.404  50.374  1.00  0.00     0.069 A 
HETATM    5  C13 UNL     1      26.502   3.210  49.630  1.00  0.00     0.038 A 
HETATM    6  C14 UNL     1      27.117   4.274  48.962  1.00  0.00     0.018 A 
ENDROOT
BRANCH   1   7
HETATM    7  C1  UNL     1      27.136   6.563  48.414  1.00  0.00     0.181 C 
HETATM    8  O1  UNL     1      26.711   7.392  47.554  1.00  0.00    -0.290 OA
BRANCH   7   9
HETATM    9  C15 UNL     1      28.381   7.305  48.217  1.00  0.00     0.152 C 
HETATM   10  C16 UNL     1      28.271   8.759  48.648  1.00  0.00     0.034 C 
HETATM   11  C17 UNL     1      29.537   9.502  48.384  1.00  0.00     0.022 C 
HETATM   12  C18 UNL     1      30.503   9.559  49.519  1.00  0.00     0.114 C 
HETATM   13  N1  UNL     1      31.180   8.356  49.829  1.00  0.00    -0.420 N 
HETATM   14  C19 UNL     1      31.638   7.570  48.742  1.00  0.00     0.133 C 
HETATM   15  H19 UNL     1      31.038   7.921  50.728  1.00  0.00     0.153 HD
HETATM   16  C20 UNL     1      30.665   6.510  48.292  1.00  0.00     0.133 C 
HETATM   17  N2  UNL     1      29.411   6.613  48.968  1.00  0.00    -0.409 N 
HETATM   18  H24 UNL     1      29.438   6.860  49.962  1.00  0.00     0.154 HD
ENDBRANCH   7   9
ENDBRANCH   1   7
BRANCH   4  19
HETATM   19  O2  UNL     1      24.717   2.368  51.040  1.00  0.00    -0.347 OA
BRANCH  19  20
HETATM   20  C6  UNL     1      24.919   2.259  52.440  1.00  0.00     0.214 C 
BRANCH  20  21
HETATM   21  C7  UNL     1      26.122   1.435  52.744  1.00  0.00    -0.034 A 
HETATM   22  C8  UNL     1      26.101   0.076  52.480  1.00  0.00     0.009 A 
HETATM   23  C9  UNL     1      27.153  -0.779  52.721  1.00  0.00     0.001 A 
HETATM   24  C10 UNL     1      28.300  -0.242  53.260  1.00  0.00     0.000 A 
HETATM   25  C11 UNL     1      28.334   1.110  53.526  1.00  0.00     0.001 A 
HETATM   26  C12 UNL     1      27.292   1.974  53.291  1.00  0.00     0.009 A 
ENDBRANCH  20  21
ENDBRANCH  19  20
ENDBRANCH   4  19
TORSDOF 5
ENDMDL
MODEL 5
REMARK VINA RESULT:      -8.4      5.955      9.111
REMARK  5 active torsions:
REMARK  status: ('A' for Active; 'I' for Inactive)
REMARK    1  A    between atoms: C1_2  and  C2_3 
REMARK    2  A    between atoms: C1_2  and  C15_17 
REMARK    3  A    between atoms: C5_6  and  O2_7 
REMARK    4  A    between atoms: O2_7  and  C6_8 
REMARK    5  A    between atoms: C6_8  and  C7_9 
ROOT
HETATM    1  C2  UNL     1      25.449   4.390  50.152  1.00  0.00     0.012 A 
HETATM    2  C3  UNL     1      24.470   4.240  51.107  1.00  0.00     0.018 A 
HETATM    3  C4  UNL     1      24.509   3.116  51.887  1.00  0.00     0.038 A 
HETATM    4  C5  UNL     1      25.503   2.187  51.698  1.00  0.00     0.069 A 
HETATM    5  C13 UNL     1      26.480   2.373  50.719  1.00  0.00     0.038 A 
HETATM    6  C14 UNL     1      26.475   3.509  49.902  1.00  0.00     0.018 A 
ENDROOT
BRANCH   1   7
HETATM    7  C1  UNL     1      25.468   5.549  49.301  1.00  0.00     0.181 C 
HETATM    8  O1  UNL     1      24.685   5.930  48.378  1.00  0.00    -0.290 OA
BRANCH   7   9
HETATM    9  C15 UNL     1      26.164   6.785  48.944  1.00  0.00     0.152 C 
HETATM   10  C16 UNL     1      25.812   7.943  49.866  1.00  0.00     0.034 C 
HETATM   11  C17 UNL     1      26.493   9.200  49.444  1.00  0.00     0.022 C 
HETATM   12  C18 UNL     1      27.803   9.479  50.101  1.00  0.00     0.114 C 
HETATM   13  N1  UNL     1      28.889   8.663  49.706  1.00  0.00    -0.420 N 
HETATM   14  C19 UNL     1      29.008   8.362  48.326  1.00  0.00     0.133 C 
HETATM   15  H19 UNL     1      29.333   8.061  50.383  1.00  0.00     0.153 HD
HETATM   16  C20 UNL     1      28.333   7.078  47.913  1.00  0.00     0.133 C 
HETATM   17  N2  UNL     1      27.585   6.499  48.983  1.00  0.00    -0.409 N 
HETATM   18  H24 UNL     1      27.995   6.555  49.921  1.00  0.00     0.154 HD
ENDBRANCH   7   9
ENDBRANCH   1   7
BRANCH   4  19
HETATM   19  O2  UNL     1      25.491   1.075  52.513  1.00  0.00    -0.347 OA
BRANCH  19  20
HETATM   20  C6  UNL     1      26.226   1.129  53.725  1.00  0.00     0.214 C 
BRANCH  20  21
HETATM   21  C7  UNL     1      27.503   0.370  53.610  1.00  0.00    -0.034 A 
HETATM   22  C8  UNL     1      27.471  -0.963  53.235  1.00  0.00     0.009 A 
HETATM   23  C9  UNL     1      28.587  -1.758  53.098  1.00  0.00     0.001 A 
HETATM   24  C10 UNL     1      29.813  -1.185  53.351  1.00  0.00     0.000 A 
HETATM   25  C11 UNL     1      29.857   0.141  53.722  1.00  0.00     0.001 A 
HETATM   26  C12 UNL     1      28.753   0.946  53.863  1.00  0.00     0.009 A 
ENDBRANCH  20  21
ENDBRANCH  19  20
ENDBRANCH   4  19
TORSDOF 5
ENDMDL
MODEL 6
REMARK VINA RESULT:      -8.3      5.647      7.803
REMARK  5 active torsions:
REMARK  status: ('A' for Active; 'I' for Inactive)
REMARK    1  A    between atoms: C1_2  and  C2_3 
REMARK    2  A    between atoms: C1_2  and  C15_17 
REMARK    3  A    between atoms: C5_6  and  O2_7 
REMARK    4  A    between atoms: O2_7  and  C6_8 
REMARK    5  A    between atoms: C6_8  and  C7_9 
ROOT
HETATM    1  C2  UNL     1      26.332   5.189  49.069  1.00  0.00     0.012 A 
HETATM    2  C3  UNL     1      26.912   3.956  49.257  1.00  0.00     0.018 A 
HETATM    3  C4  UNL     1      26.165   2.989  49.873  1.00  0.00     0.038 A 
HETATM    4  C5  UNL     1      24.883   3.271  50.280  1.00  0.00     0.069 A 
HETATM    5  C13 UNL     1      24.328   4.534  50.072  1.00  0.00     0.038 A 
HETATM    6  C14 UNL     1      25.058   5.548  49.445  1.00  0.00     0.018 A 
ENDROOT
BRANCH   1   7
HETATM    7  C1  UNL     1      27.061   6.248  48.426  1.00  0.00     0.181 C 
HETATM    8  O1  UNL     1      26.681   7.204  47.684  1.00  0.00    -0.290 OA
BRANCH   7   9
HETATM    9  C15 UNL     1      28.371   6.858  48.196  1.00  0.00     0.152 C 
HETATM   10  C16 UNL     1      28.393   8.342  48.529  1.00  0.00     0.034 C 
HETATM   11  C17 UNL     1      29.724   8.946  48.232  1.00  0.00     0.022 C 
HETATM   12  C18 UNL     1      30.684   8.990  49.373  1.00  0.00     0.114 C 
HETATM   13  N1  UNL     1      31.244   7.753  49.770  1.00  0.00    -0.420 N 
HETATM   14  C19 UNL     1      31.635   6.857  48.743  1.00  0.00     0.133 C 
HETATM   15  H19 UNL     1      31.057   7.394  50.693  1.00  0.00     0.153 HD
HETATM   16  C20 UNL     1      30.571   5.863  48.351  1.00  0.00     0.133 C 
HETATM   17  N2  UNL     1      29.327   6.126  49.003  1.00  0.00    -0.409 N 
HETATM   18  H24 UNL     1      29.371   6.435  49.979  1.00  0.00     0.154 HD
ENDBRANCH   7   9
ENDBRANCH   1   7
BRANCH   4  19
HETATM   19  O2  UNL     1      24.178   2.257  50.895  1.00  0.00    -0.347 OA
BRANCH  19  20
HETATM   20  C6  UNL     1      24.788   1.587  51.986  1.00  0.00     0.214 C 
BRANCH  20  21
HETATM   21  C7  UNL     1      23.775   0.858  52.799  1.00  0.00    -0.034 A 
HETATM   22  C8  UNL     1      22.462   1.297  52.803  1.00  0.00     0.009 A 
HETATM   23  C9  UNL     1      21.446   0.702  53.517  1.00  0.00     0.001 A 
HETATM   24  C10 UNL     1      21.761  -0.403  54.275  1.00  0.00     0.000 A 
HETATM   25  C11 UNL     1      23.065  -0.850  54.277  1.00  0.00     0.001 A 
HETATM   26  C12 UNL     1      24.088  -0.266  53.571  1.00  0.00     0.009 A 
ENDBRANCH  20  21
ENDBRANCH  19  20
ENDBRANCH   4  19
TORSDOF 5
ENDMDL
MODEL 7
REMARK VINA RESULT:      -8.1      6.043      8.660
REMARK  5 active torsions:
REMARK  status: ('A' for Active; 'I' for Inactive)
REMARK    1  A    between atoms: C1_2  and  C2_3 
REMARK    2  A    between atoms: C1_2  and  C15_17 
REMARK    3  A    between atoms: C5_6  and  O2_7 
REMARK    4  A    between atoms: O2_7  and  C6_8 
REMARK    5  A    between atoms: C6_8  and  C7_9 
ROOT
HETATM    1  C2  UNL     1      26.604   5.377  48.902  1.00  0.00     0.012 A 
HETATM    2  C3  UNL     1      25.315   5.795  49.139  1.00  0.00     0.018 A 
HETATM    3  C4  UNL     1      24.443   4.892  49.683  1.00  0.00     0.038 A 
HETATM    4  C5  UNL     1      24.870   3.618  49.971  1.00  0.00     0.069 A 
HETATM    5  C13 UNL     1      26.186   3.229  49.716  1.00  0.00     0.038 A 
HETATM    6  C14 UNL     1      27.107   4.124  49.161  1.00  0.00     0.018 A 
ENDROOT
BRANCH   1   7
HETATM    7  C1  UNL     1      27.571   6.277  48.333  1.00  0.00     0.181 C 
HETATM    8  O1  UNL     1      27.497   7.503  48.014  1.00  0.00    -0.290 OA
BRANCH   7   9
HETATM    9  C15 UNL     1      28.939   6.441  47.842  1.00  0.00     0.152 C 
HETATM   10  C16 UNL     1      29.066   7.564  46.825  1.00  0.00     0.034 C 
HETATM   11  C17 UNL     1      30.459   7.670  46.303  1.00  0.00     0.022 C 
HETATM   12  C18 UNL     1      31.348   8.631  47.017  1.00  0.00     0.114 C 
HETATM   13  N1  UNL     1      31.776   8.248  48.309  1.00  0.00    -0.420 N 
HETATM   14  C19 UNL     1      32.152   6.894  48.495  1.00  0.00     0.133 C 
HETATM   15  H19 UNL     1      31.503   8.799  49.109  1.00  0.00     0.153 HD
HETATM   16  C20 UNL     1      31.034   6.002  48.971  1.00  0.00     0.133 C 
HETATM   17  N2  UNL     1      29.779   6.684  48.999  1.00  0.00    -0.409 N 
HETATM   18  H24 UNL     1      29.789   7.661  49.307  1.00  0.00     0.154 HD
ENDBRANCH   7   9
ENDBRANCH   1   7
BRANCH   4  19
HETATM   19  O2  UNL     1      23.947   2.751  50.518  1.00  0.00    -0.347 OA
BRANCH  19  20
HETATM   20  C6  UNL     1      23.661   2.869  51.902  1.00  0.00     0.214 C 
BRANCH  20  21
HETATM   21  C7  UNL     1      24.449   1.885  52.697  1.00  0.00    -0.034 A 
HETATM   22  C8  UNL     1      24.086   0.549  52.677  1.00  0.00     0.009 A 
HETATM   23  C9  UNL     1      24.741  -0.443  53.372  1.00  0.00     0.001 A 
HETATM   24  C10 UNL     1      25.827  -0.078  54.135  1.00  0.00     0.000 A 
HETATM   25  C11 UNL     1      26.198   1.250  54.160  1.00  0.00     0.001 A 
HETATM   26  C12 UNL     1      25.554   2.250  53.473  1.00  0.00     0.009 A 
ENDBRANCH  20  21
ENDBRANCH  19  20
ENDBRANCH   4  19
TORSDOF 5
ENDMDL
MODEL 8
REMARK VINA RESULT:      -7.8      1.502      2.388
REMARK  5 active torsions:
REMARK  status: ('A' for Active; 'I' for Inactive)
REMARK    1  A    between atoms: C1_2  and  C2_3 
REMARK    2  A    between atoms: C1_2  and  C15_17 
REMARK    3  A    between atoms: C5_6  and  O2_7 
REMARK    4  A    between atoms: O2_7  and  C6_8 
REMARK    5  A    between atoms: C6_8  and  C7_9 
ROOT
HETATM    1  C2  UNL     1      24.189   0.977  53.156  1.00  0.00     0.012 A 
HETATM    2  C3  UNL     1      23.346  -0.089  53.363  1.00  0.00     0.018 A 
HETATM    3  C4  UNL     1      22.011   0.099  53.127  1.00  0.00     0.038 A 
HETATM    4  C5  UNL     1      21.560   1.324  52.697  1.00  0.00     0.069 A 
HETATM    5  C13 UNL     1      22.445   2.383  52.498  1.00  0.00     0.038 A 
HETATM    6  C14 UNL     1      23.816   2.230  52.728  1.00  0.00     0.018 A 
ENDROOT
BRANCH   1   7
HETATM    7  C1  UNL     1      25.603   0.846  53.384  1.00  0.00     0.181 C 
HETATM    8  O1  UNL     1      26.374   1.384  54.236  1.00  0.00    -0.290 OA
BRANCH   7   9
HETATM    9  C15 UNL     1      26.849   0.206  52.962  1.00  0.00     0.152 C 
HETATM   10  C16 UNL     1      28.084   0.959  53.432  1.00  0.00     0.034 C 
HETATM   11  C17 UNL     1      29.335   0.313  52.941  1.00  0.00     0.022 C 
HETATM   12  C18 UNL     1      29.961  -0.673  53.867  1.00  0.00     0.114 C 
HETATM   13  N1  UNL     1      29.288  -1.909  54.018  1.00  0.00    -0.420 N 
HETATM   14  C19 UNL     1      28.749  -2.502  52.848  1.00  0.00     0.133 C 
HETATM   15  H19 UNL     1      28.917  -2.168  54.919  1.00  0.00     0.153 HD
HETATM   16  C20 UNL     1      27.312  -2.138  52.577  1.00  0.00     0.133 C 
HETATM   17  N2  UNL     1      26.830  -1.147  53.486  1.00  0.00    -0.409 N 
HETATM   18  H24 UNL     1      27.139  -1.220  54.460  1.00  0.00     0.154 HD
ENDBRANCH   7   9
ENDBRANCH   1   7
BRANCH   4  19
HETATM   19  O2  UNL     1      20.205   1.455  52.475  1.00  0.00    -0.347 OA
BRANCH  19  20
HETATM   20  C6  UNL     1      19.644   0.780  51.361  1.00  0.00     0.214 C 
BRANCH  20  21
HETATM   21  C7  UNL     1      18.521  -0.104  51.781  1.00  0.00    -0.034 A 
HETATM   22  C8  UNL     1      17.384  -0.181  50.994  1.00  0.00     0.009 A 
HETATM   23  C9  UNL     1      16.288  -0.962  51.287  1.00  0.00     0.001 A 
HETATM   24  C10 UNL     1      16.331  -1.715  52.438  1.00  0.00     0.000 A 
HETATM   25  C11 UNL     1      17.458  -1.648  53.229  1.00  0.00     0.001 A 
HETATM   26  C12 UNL     1      18.557  -0.873  52.949  1.00  0.00     0.009 A 
ENDBRANCH  20  21
ENDBRANCH  19  20
ENDBRANCH   4  19
TORSDOF 5
ENDMDL
MODEL 9
REMARK VINA RESULT:      -7.8      6.751      9.397
REMARK  5 active torsions:
REMARK  status: ('A' for Active; 'I' for Inactive)
REMARK    1  A    between atoms: C1_2  and  C2_3 
REMARK    2  A    between atoms: C1_2  and  C15_17 
REMARK    3  A    between atoms: C5_6  and  O2_7 
REMARK    4  A    between atoms: O2_7  and  C6_8 
REMARK    5  A    between atoms: C6_8  and  C7_9 
ROOT
HETATM    1  C2  UNL     1      26.979   5.825  48.638  1.00  0.00     0.012 A 
HETATM    2  C3  UNL     1      27.513   4.575  48.845  1.00  0.00     0.018 A 
HETATM    3  C4  UNL     1      26.686   3.604  49.341  1.00  0.00     0.038 A 
HETATM    4  C5  UNL     1      25.371   3.899  49.613  1.00  0.00     0.069 A 
HETATM    5  C13 UNL     1      24.864   5.179  49.389  1.00  0.00     0.038 A 
HETATM    6  C14 UNL     1      25.678   6.199  48.883  1.00  0.00     0.018 A 
ENDROOT
BRANCH   1   7
HETATM    7  C1  UNL     1      27.793   6.890  48.117  1.00  0.00     0.181 C 
HETATM    8  O1  UNL     1      27.559   7.782  47.247  1.00  0.00    -0.290 OA
BRANCH   7   9
HETATM    9  C15 UNL     1      29.092   7.561  48.162  1.00  0.00     0.152 C 
HETATM   10  C16 UNL     1      29.910   7.340  46.900  1.00  0.00     0.034 C 
HETATM   11  C17 UNL     1      31.249   7.990  46.999  1.00  0.00     0.022 C 
HETATM   12  C18 UNL     1      31.340   9.372  46.446  1.00  0.00     0.114 C 
HETATM   13  N1  UNL     1      30.702  10.390  47.193  1.00  0.00    -0.420 N 
HETATM   14  C19 UNL     1      30.834  10.341  48.604  1.00  0.00     0.133 C 
HETATM   15  H19 UNL     1      29.932  10.899  46.787  1.00  0.00     0.153 HD
HETATM   16  C20 UNL     1      29.723   9.600  49.303  1.00  0.00     0.133 C 
HETATM   17  N2  UNL     1      28.833   8.972  48.378  1.00  0.00    -0.409 N 
HETATM   18  H24 UNL     1      28.611   9.490  47.522  1.00  0.00     0.154 HD
ENDBRANCH   7   9
ENDBRANCH   1   7
BRANCH   4  19
HETATM   19  O2  UNL     1      24.585   2.880  50.110  1.00  0.00    -0.347 OA
BRANCH  19  20
HETATM   20  C6  UNL     1      24.381   2.819  51.512  1.00  0.00     0.214 C 
BRANCH  20  21
HETATM   21  C7  UNL     1      24.900   1.540  52.073  1.00  0.00    -0.034 A 
HETATM   22  C8  UNL     1      24.090   0.781  52.900  1.00  0.00     0.009 A 
HETATM   23  C9  UNL     1      24.466  -0.413  53.473  1.00  0.00     0.001 A 
HETATM   24  C10 UNL     1      25.732  -0.879  53.201  1.00  0.00     0.000 A 
HETATM   25  C11 UNL     1      26.547  -0.133  52.378  1.00  0.00     0.001 A 
HETATM   26  C12 UNL     1      26.185   1.060  51.800  1.00  0.00     0.009 A 
ENDBRANCH  20  21
ENDBRANCH  19  20
ENDBRANCH   4  19
TORSDOF 5
ENDMDL
