MODEL 1
REMARK VINA RESULT:      -8.9      0.000      0.000
REMARK  6 active torsions:
REMARK  status: ('A' for Active; 'I' for Inactive)
REMARK    1  A    between atoms: C4_5  and  C5_6 
REMARK    2  A    between atoms: C6_7  and  N1_8 
REMARK    3  A    between atoms: N1_8  and  C7_9 
REMARK       I    between atoms: N1_8  and  C15_18 
REMARK    4  A    between atoms: C7_9  and  C8_10 
REMARK    5  A    between atoms: C14_16  and  O1_17 
REMARK       I    between atoms: C15_18  and  N2_20 
REMARK    6  A    between atoms: N2_20  and  C16_21 
ROOT
HETATM    1  C1  UNL     1      18.191  -1.999  53.466  1.00  0.00     0.020 C 
HETATM    2  C2  UNL     1      19.330  -1.702  53.717  1.00  0.00    -0.047 C 
HETATM    3  C3  UNL     1      20.678  -1.348  54.038  1.00  0.00     0.168 C 
HETATM    4  F1  UNL     1      21.458  -1.976  54.945  1.00  0.00    -0.196 F 
HETATM    5  C4  UNL     1      21.182  -0.318  53.383  1.00  0.00     0.053 C 
ENDROOT
BRANCH   5   6
HETATM    6  C5  UNL     1      22.544   0.144  53.617  1.00  0.00     0.021 C 
HETATM    7  C6  UNL     1      23.304   0.933  52.916  1.00  0.00     0.096 C 
BRANCH   7   8
HETATM    8  N1  UNL     1      24.625   1.391  53.122  1.00  0.00    -0.305 N 
HETATM    9  C15 UNL     1      25.110   2.382  52.183  1.00  0.00     0.327 C 
HETATM   10  O2  UNL     1      26.259   2.883  52.246  1.00  0.00    -0.246 OA
HETATM   11  N2  UNL     1      24.435   2.958  51.070  1.00  0.00    -0.309 N 
HETATM   12  H14 UNL     1      23.457   2.635  50.890  1.00  0.00     0.170 HD
BRANCH   8  13
HETATM   13  C7  UNL     1      25.592   1.040  54.142  1.00  0.00     0.174 C 
BRANCH  13  14
HETATM   14  C8  UNL     1      26.595   0.037  53.736  1.00  0.00    -0.006 A 
HETATM   15  C9  UNL     1      26.141  -1.071  53.000  1.00  0.00     0.012 A 
HETATM   16  C10 UNL     1      26.931  -2.081  52.552  1.00  0.00     0.001 A 
HETATM   17  C11 UNL     1      28.286  -2.079  52.803  1.00  0.00     0.009 A 
HETATM   18  C12 UNL     1      28.796  -1.022  53.519  1.00  0.00    -0.028 A 
HETATM   19  C13 UNL     1      30.245  -0.950  53.829  1.00  0.00     0.051 C 
HETATM   20  C14 UNL     1      27.946  -0.033  53.944  1.00  0.00     0.079 A 
BRANCH  20  21
HETATM   21  O1  UNL     1      28.513   1.005  54.658  1.00  0.00    -0.360 OA
HETATM   22  H13 UNL     1      28.846   1.865  54.277  1.00  0.00     0.217 HD
ENDBRANCH  20  21
ENDBRANCH  13  14
ENDBRANCH   8  13
BRANCH  11  23
HETATM   23  C16 UNL     1      25.201   3.917  50.334  1.00  0.00     0.036 A 
HETATM   24  C17 UNL     1      26.282   3.365  49.687  1.00  0.00     0.029 A 
HETATM   25  C18 UNL     1      27.134   4.150  48.923  1.00  0.00     0.002 A 
HETATM   26  C19 UNL     1      26.910   5.521  48.796  1.00  0.00     0.000 A 
HETATM   27  C20 UNL     1      25.817   6.053  49.455  1.00  0.00     0.002 A 
HETATM   28  C21 UNL     1      24.975   5.251  50.216  1.00  0.00     0.029 A 
ENDBRANCH  11  23
ENDBRANCH   7   8
ENDBRANCH   5   6
TORSDOF 6
ENDMDL
MODEL 2
REMARK VINA RESULT:      -8.5      1.126      5.423
REMARK  6 active torsions:
REMARK  status: ('A' for Active; 'I' for Inactive)
REMARK    1  A    between atoms: C4_5  and  C5_6 
REMARK    2  A    between atoms: C6_7  and  N1_8 
REMARK    3  A    between atoms: N1_8  and  C7_9 
REMARK       I    between atoms: N1_8  and  C15_18 
REMARK    4  A    between atoms: C7_9  and  C8_10 
REMARK    5  A    between atoms: C14_16  and  O1_17 
REMARK       I    between atoms: C15_18  and  N2_20 
REMARK    6  A    between atoms: N2_20  and  C16_21 
ROOT
HETATM    1  C1  UNL     1      18.059  -2.374  53.536  1.00  0.00     0.020 C 
HETATM    2  C2  UNL     1      19.079  -1.755  53.697  1.00  0.00    -0.047 C 
HETATM    3  C3  UNL     1      20.286  -1.019  53.912  1.00  0.00     0.168 C 
HETATM    4  F1  UNL     1      21.263  -1.353  54.783  1.00  0.00    -0.196 F 
HETATM    5  C4  UNL     1      20.438   0.076  53.190  1.00  0.00     0.053 C 
ENDROOT
BRANCH   5   6
HETATM    6  C5  UNL     1      21.622   0.916  53.314  1.00  0.00     0.021 C 
HETATM    7  C6  UNL     1      22.796   0.812  52.764  1.00  0.00     0.096 C 
BRANCH   7   8
HETATM    8  N1  UNL     1      23.957   1.611  52.873  1.00  0.00    -0.305 N 
HETATM    9  C15 UNL     1      25.209   0.897  53.027  1.00  0.00     0.327 C 
HETATM   10  O2  UNL     1      26.319   1.474  53.129  1.00  0.00    -0.246 OA
HETATM   11  N2  UNL     1      25.430  -0.506  53.090  1.00  0.00    -0.309 N 
HETATM   12  H14 UNL     1      24.589  -1.123  53.017  1.00  0.00     0.170 HD
BRANCH   8  13
HETATM   13  C7  UNL     1      24.113   3.051  52.841  1.00  0.00     0.174 C 
BRANCH  13  14
HETATM   14  C8  UNL     1      24.314   3.629  51.499  1.00  0.00    -0.006 A 
HETATM   15  C9  UNL     1      23.170   4.015  50.781  1.00  0.00     0.012 A 
HETATM   16  C10 UNL     1      23.181   4.559  49.537  1.00  0.00     0.001 A 
HETATM   17  C11 UNL     1      24.370   4.777  48.875  1.00  0.00     0.009 A 
HETATM   18  C12 UNL     1      25.530   4.421  49.521  1.00  0.00    -0.028 A 
HETATM   19  C13 UNL     1      26.847   4.624  48.871  1.00  0.00     0.051 C 
HETATM   20  C14 UNL     1      25.451   3.875  50.777  1.00  0.00     0.079 A 
BRANCH  20  21
HETATM   21  O1  UNL     1      26.648   3.537  51.380  1.00  0.00    -0.360 OA
HETATM   22  H13 UNL     1      27.515   3.378  50.911  1.00  0.00     0.217 HD
ENDBRANCH  20  21
ENDBRANCH  13  14
ENDBRANCH   8  13
BRANCH  11  23
HETATM   23  C16 UNL     1      26.799  -0.892  53.250  1.00  0.00     0.036 A 
HETATM   24  C17 UNL     1      27.090  -2.108  52.675  1.00  0.00     0.029 A 
HETATM   25  C18 UNL     1      28.371  -2.637  52.732  1.00  0.00     0.002 A 
HETATM   26  C19 UNL     1      29.396  -1.943  53.377  1.00  0.00     0.000 A 
HETATM   27  C20 UNL     1      29.080  -0.723  53.946  1.00  0.00     0.002 A 
HETATM   28  C21 UNL     1      27.791  -0.210  53.880  1.00  0.00     0.029 A 
ENDBRANCH  11  23
ENDBRANCH   7   8
ENDBRANCH   5   6
TORSDOF 6
ENDMDL
MODEL 3
REMARK VINA RESULT:      -8.5      2.937      6.734
REMARK  6 active torsions:
REMARK  status: ('A' for Active; 'I' for Inactive)
REMARK    1  A    between atoms: C4_5  and  C5_6 
REMARK    2  A    between atoms: C6_7  and  N1_8 
REMARK    3  A    between atoms: N1_8  and  C7_9 
REMARK       I    between atoms: N1_8  and  C15_18 
REMARK    4  A    between atoms: C7_9  and  C8_10 
REMARK    5  A    between atoms: C14_16  and  O1_17 
REMARK       I    between atoms: C15_18  and  N2_20 
REMARK    6  A    between atoms: N2_20  and  C16_21 
ROOT
HETATM    1  C1  UNL     1      21.900   3.615  45.634  1.00  0.00     0.020 C 
HETATM    2  C2  UNL     1      21.955   3.430  46.822  1.00  0.00    -0.047 C 
HETATM    3  C3  UNL     1      22.008   3.230  48.238  1.00  0.00     0.168 C 
HETATM    4  F1  UNL     1      20.940   3.187  49.063  1.00  0.00    -0.196 F 
HETATM    5  C4  UNL     1      23.211   3.079  48.760  1.00  0.00     0.053 C 
ENDROOT
BRANCH   5   6
HETATM    6  C5  UNL     1      23.402   2.868  50.190  1.00  0.00     0.021 C 
HETATM    7  C6  UNL     1      23.509   1.770  50.878  1.00  0.00     0.096 C 
BRANCH   7   8
HETATM    8  N1  UNL     1      23.691   1.543  52.261  1.00  0.00    -0.305 N 
HETATM    9  C15 UNL     1      25.015   1.117  52.668  1.00  0.00     0.327 C 
HETATM   10  O2  UNL     1      25.324   0.885  53.862  1.00  0.00    -0.246 OA
HETATM   11  N2  UNL     1      26.164   0.889  51.860  1.00  0.00    -0.309 N 
HETATM   12  H14 UNL     1      26.059   1.045  50.831  1.00  0.00     0.170 HD
BRANCH   8  13
HETATM   13  C7  UNL     1      22.764   1.680  53.365  1.00  0.00     0.174 C 
BRANCH  13  14
HETATM   14  C8  UNL     1      21.742   0.619  53.459  1.00  0.00    -0.006 A 
HETATM   15  C9  UNL     1      22.051  -0.510  54.237  1.00  0.00     0.012 A 
HETATM   16  C10 UNL     1      21.226  -1.572  54.425  1.00  0.00     0.001 A 
HETATM   17  C11 UNL     1      19.979  -1.607  53.838  1.00  0.00     0.009 A 
HETATM   18  C12 UNL     1      19.613  -0.532  53.063  1.00  0.00    -0.028 A 
HETATM   19  C13 UNL     1      18.288  -0.498  52.398  1.00  0.00     0.051 C 
HETATM   20  C14 UNL     1      20.493   0.510  52.912  1.00  0.00     0.079 A 
BRANCH  20  21
HETATM   21  O1  UNL     1      20.073   1.563  52.122  1.00  0.00    -0.360 OA
HETATM   22  H13 UNL     1      20.647   2.099  51.507  1.00  0.00     0.217 HD
ENDBRANCH  20  21
ENDBRANCH  13  14
ENDBRANCH   8  13
BRANCH  11  23
HETATM   23  C16 UNL     1      27.329   0.469  52.577  1.00  0.00     0.036 A 
HETATM   24  C17 UNL     1      27.468  -0.899  52.629  1.00  0.00     0.029 A 
HETATM   25  C18 UNL     1      28.543  -1.483  53.284  1.00  0.00     0.002 A 
HETATM   26  C19 UNL     1      29.510  -0.690  53.905  1.00  0.00     0.000 A 
HETATM   27  C20 UNL     1      29.349   0.681  53.838  1.00  0.00     0.002 A 
HETATM   28  C21 UNL     1      28.265   1.248  53.179  1.00  0.00     0.029 A 
ENDBRANCH  11  23
ENDBRANCH   7   8
ENDBRANCH   5   6
TORSDOF 6
ENDMDL
MODEL 4
REMARK VINA RESULT:      -8.4      2.650      7.603
REMARK  6 active torsions:
REMARK  status: ('A' for Active; 'I' for Inactive)
REMARK    1  A    between atoms: C4_5  and  C5_6 
REMARK    2  A    between atoms: C6_7  and  N1_8 
REMARK    3  A    between atoms: N1_8  and  C7_9 
REMARK       I    between atoms: N1_8  and  C15_18 
REMARK    4  A    between atoms: C7_9  and  C8_10 
REMARK    5  A    between atoms: C14_16  and  O1_17 
REMARK       I    between atoms: C15_18  and  N2_20 
REMARK    6  A    between atoms: N2_20  and  C16_21 
ROOT
HETATM    1  C1  UNL     1      29.799  -0.804  53.737  1.00  0.00     0.020 C 
HETATM    2  C2  UNL     1      28.773  -0.191  53.879  1.00  0.00    -0.047 C 
HETATM    3  C3  UNL     1      27.541   0.516  54.051  1.00  0.00     0.168 C 
HETATM    4  F1  UNL     1      26.714   0.401  55.112  1.00  0.00    -0.196 F 
HETATM    5  C4  UNL     1      27.204   1.344  53.079  1.00  0.00     0.053 C 
ENDROOT
BRANCH   5   6
HETATM    6  C5  UNL     1      25.974   2.125  53.133  1.00  0.00     0.021 C 
HETATM    7  C6  UNL     1      24.877   2.026  52.442  1.00  0.00     0.096 C 
BRANCH   7   8
HETATM    8  N1  UNL     1      23.677   2.772  52.475  1.00  0.00    -0.305 N 
HETATM    9  C15 UNL     1      22.449   2.003  52.453  1.00  0.00     0.327 C 
HETATM   10  O2  UNL     1      21.310   2.530  52.484  1.00  0.00    -0.246 OA
HETATM   11  N2  UNL     1      22.284   0.592  52.396  1.00  0.00    -0.309 N 
HETATM   12  H14 UNL     1      23.155   0.013  52.367  1.00  0.00     0.170 HD
BRANCH   8  13
HETATM   13  C7  UNL     1      23.462   4.203  52.542  1.00  0.00     0.174 C 
BRANCH  13  14
HETATM   14  C8  UNL     1      23.812   4.946  51.316  1.00  0.00    -0.006 A 
HETATM   15  C9  UNL     1      23.616   4.296  50.087  1.00  0.00     0.012 A 
HETATM   16  C10 UNL     1      23.888   4.837  48.871  1.00  0.00     0.001 A 
HETATM   17  C11 UNL     1      24.394   6.115  48.766  1.00  0.00     0.009 A 
HETATM   18  C12 UNL     1      24.609   6.809  49.933  1.00  0.00    -0.028 A 
HETATM   19  C13 UNL     1      25.152   8.188  49.901  1.00  0.00     0.051 C 
HETATM   20  C14 UNL     1      24.315   6.206  51.130  1.00  0.00     0.079 A 
BRANCH  20  21
HETATM   21  O1  UNL     1      24.550   6.949  52.271  1.00  0.00    -0.360 OA
HETATM   22  H13 UNL     1      25.306   7.587  52.408  1.00  0.00     0.217 HD
ENDBRANCH  20  21
ENDBRANCH  13  14
ENDBRANCH   8  13
BRANCH  11  23
HETATM   23  C16 UNL     1      20.924   0.146  52.387  1.00  0.00     0.036 A 
HETATM   24  C17 UNL     1      20.586  -0.587  53.501  1.00  0.00     0.029 A 
HETATM   25  C18 UNL     1      19.306  -1.098  53.659  1.00  0.00     0.002 A 
HETATM   26  C19 UNL     1      18.331  -0.878  52.686  1.00  0.00     0.000 A 
HETATM   27  C20 UNL     1      18.693  -0.139  51.575  1.00  0.00     0.002 A 
HETATM   28  C21 UNL     1      19.981   0.364  51.434  1.00  0.00     0.029 A 
ENDBRANCH  11  23
ENDBRANCH   7   8
ENDBRANCH   5   6
TORSDOF 6
ENDMDL
MODEL 5
REMARK VINA RESULT:      -8.2      2.875      7.097
REMARK  6 active torsions:
REMARK  status: ('A' for Active; 'I' for Inactive)
REMARK    1  A    between atoms: C4_5  and  C5_6 
REMARK    2  A    between atoms: C6_7  and  N1_8 
REMARK    3  A    between atoms: N1_8  and  C7_9 
REMARK       I    between atoms: N1_8  and  C15_18 
REMARK    4  A    between atoms: C7_9  and  C8_10 
REMARK    5  A    between atoms: C14_16  and  O1_17 
REMARK       I    between atoms: C15_18  and  N2_20 
REMARK    6  A    between atoms: N2_20  and  C16_21 
ROOT
HETATM    1  C1  UNL     1      22.274   4.685  47.040  1.00  0.00     0.020 C 
HETATM    2  C2  UNL     1      22.319   3.755  47.804  1.00  0.00    -0.047 C 
HETATM    3  C3  UNL     1      22.347   2.651  48.713  1.00  0.00     0.168 C 
HETATM    4  F1  UNL     1      21.630   1.513  48.586  1.00  0.00    -0.196 F 
HETATM    5  C4  UNL     1      23.147   2.776  49.756  1.00  0.00     0.053 C 
ENDROOT
BRANCH   5   6
HETATM    6  C5  UNL     1      23.267   1.723  50.757  1.00  0.00     0.021 C 
HETATM    7  C6  UNL     1      23.242   1.781  52.055  1.00  0.00     0.096 C 
BRANCH   7   8
HETATM    8  N1  UNL     1      23.360   0.776  53.042  1.00  0.00    -0.305 N 
HETATM    9  C15 UNL     1      24.641   0.101  53.114  1.00  0.00     0.327 C 
HETATM   10  O2  UNL     1      24.891  -0.807  53.943  1.00  0.00    -0.246 OA
HETATM   11  N2  UNL     1      25.801   0.308  52.318  1.00  0.00    -0.309 N 
HETATM   12  H14 UNL     1      25.743   1.043  51.576  1.00  0.00     0.170 HD
BRANCH   8  13
HETATM   13  C7  UNL     1      22.404   0.306  54.023  1.00  0.00     0.174 C 
BRANCH  13  14
HETATM   14  C8  UNL     1      21.058   0.013  53.494  1.00  0.00    -0.006 A 
HETATM   15  C9  UNL     1      20.545   0.880  52.514  1.00  0.00     0.012 A 
HETATM   16  C10 UNL     1      19.326   0.752  51.928  1.00  0.00     0.001 A 
HETATM   17  C11 UNL     1      18.483  -0.281  52.274  1.00  0.00     0.009 A 
HETATM   18  C12 UNL     1      18.924  -1.167  53.228  1.00  0.00    -0.028 A 
HETATM   19  C13 UNL     1      18.073  -2.305  53.652  1.00  0.00     0.051 C 
HETATM   20  C14 UNL     1      20.165  -0.984  53.783  1.00  0.00     0.079 A 
BRANCH  20  21
HETATM   21  O1  UNL     1      20.558  -1.904  54.736  1.00  0.00    -0.360 OA
HETATM   22  H13 UNL     1      21.481  -2.014  55.098  1.00  0.00     0.217 HD
ENDBRANCH  20  21
ENDBRANCH  13  14
ENDBRANCH   8  13
BRANCH  11  23
HETATM   23  C16 UNL     1      26.913  -0.533  52.645  1.00  0.00     0.036 A 
HETATM   24  C17 UNL     1      27.968   0.156  53.197  1.00  0.00     0.029 A 
HETATM   25  C18 UNL     1      29.129  -0.502  53.576  1.00  0.00     0.002 A 
HETATM   26  C19 UNL     1      29.250  -1.882  53.404  1.00  0.00     0.000 A 
HETATM   27  C20 UNL     1      28.176  -2.552  52.848  1.00  0.00     0.002 A 
HETATM   28  C21 UNL     1      27.021  -1.876  52.473  1.00  0.00     0.029 A 
ENDBRANCH  11  23
ENDBRANCH   7   8
ENDBRANCH   5   6
TORSDOF 6
ENDMDL
MODEL 6
REMARK VINA RESULT:      -8.2      1.976      6.311
REMARK  6 active torsions:
REMARK  status: ('A' for Active; 'I' for Inactive)
REMARK    1  A    between atoms: C4_5  and  C5_6 
REMARK    2  A    between atoms: C6_7  and  N1_8 
REMARK    3  A    between atoms: N1_8  and  C7_9 
REMARK       I    between atoms: N1_8  and  C15_18 
REMARK    4  A    between atoms: C7_9  and  C8_10 
REMARK    5  A    between atoms: C14_16  and  O1_17 
REMARK       I    between atoms: C15_18  and  N2_20 
REMARK    6  A    between atoms: N2_20  and  C16_21 
ROOT
HETATM    1  C1  UNL     1      18.706  -0.564  53.084  1.00  0.00     0.020 C 
HETATM    2  C2  UNL     1      19.835  -0.343  52.729  1.00  0.00    -0.047 C 
HETATM    3  C3  UNL     1      21.184  -0.082  52.330  1.00  0.00     0.168 C 
HETATM    4  F1  UNL     1      22.256  -0.839  52.651  1.00  0.00    -0.196 F 
HETATM    5  C4  UNL     1      21.374   0.993  51.588  1.00  0.00     0.053 C 
ENDROOT
BRANCH   5   6
HETATM    6  C5  UNL     1      22.700   1.371  51.116  1.00  0.00     0.021 C 
HETATM    7  C6  UNL     1      23.584   2.176  51.627  1.00  0.00     0.096 C 
BRANCH   7   8
HETATM    8  N1  UNL     1      24.871   2.559  51.186  1.00  0.00    -0.305 N 
HETATM    9  C15 UNL     1      25.987   1.874  51.808  1.00  0.00     0.327 C 
HETATM   10  O2  UNL     1      27.184   2.106  51.511  1.00  0.00    -0.246 OA
HETATM   11  N2  UNL     1      25.965   0.868  52.813  1.00  0.00    -0.309 N 
HETATM   12  H14 UNL     1      25.026   0.567  53.163  1.00  0.00     0.170 HD
BRANCH   8  13
HETATM   13  C7  UNL     1      25.272   3.528  50.187  1.00  0.00     0.174 C 
BRANCH  13  14
HETATM   14  C8  UNL     1      24.214   4.467  49.766  1.00  0.00    -0.006 A 
HETATM   15  C9  UNL     1      23.442   4.113  48.647  1.00  0.00     0.012 A 
HETATM   16  C10 UNL     1      22.434   4.864  48.132  1.00  0.00     0.001 A 
HETATM   17  C11 UNL     1      22.093   6.071  48.703  1.00  0.00     0.009 A 
HETATM   18  C12 UNL     1      22.809   6.477  49.803  1.00  0.00    -0.028 A 
HETATM   19  C13 UNL     1      22.501   7.765  50.471  1.00  0.00     0.051 C 
HETATM   20  C14 UNL     1      23.816   5.674  50.275  1.00  0.00     0.079 A 
BRANCH  20  21
HETATM   21  O1  UNL     1      24.503   6.131  51.383  1.00  0.00    -0.360 OA
HETATM   22  H13 UNL     1      25.495   6.197  51.471  1.00  0.00     0.217 HD
ENDBRANCH  20  21
ENDBRANCH  13  14
ENDBRANCH   8  13
BRANCH  11  23
HETATM   23  C16 UNL     1      27.253   0.395  53.218  1.00  0.00     0.036 A 
HETATM   24  C17 UNL     1      27.508  -0.895  52.814  1.00  0.00     0.029 A 
HETATM   25  C18 UNL     1      28.712  -1.514  53.119  1.00  0.00     0.002 A 
HETATM   26  C19 UNL     1      29.693  -0.837  53.845  1.00  0.00     0.000 A 
HETATM   27  C20 UNL     1      29.414   0.458  54.240  1.00  0.00     0.002 A 
HETATM   28  C21 UNL     1      28.203   1.062  53.926  1.00  0.00     0.029 A 
ENDBRANCH  11  23
ENDBRANCH   7   8
ENDBRANCH   5   6
TORSDOF 6
ENDMDL
MODEL 7
REMARK VINA RESULT:      -8.2      4.024      7.764
REMARK  6 active torsions:
REMARK  status: ('A' for Active; 'I' for Inactive)
REMARK    1  A    between atoms: C4_5  and  C5_6 
REMARK    2  A    between atoms: C6_7  and  N1_8 
REMARK    3  A    between atoms: N1_8  and  C7_9 
REMARK       I    between atoms: N1_8  and  C15_18 
REMARK    4  A    between atoms: C7_9  and  C8_10 
REMARK    5  A    between atoms: C14_16  and  O1_17 
REMARK       I    between atoms: C15_18  and  N2_20 
REMARK    6  A    between atoms: N2_20  and  C16_21 
ROOT
HETATM    1  C1  UNL     1      20.477   3.803  43.833  1.00  0.00     0.020 C 
HETATM    2  C2  UNL     1      21.114   3.994  44.837  1.00  0.00    -0.047 C 
HETATM    3  C3  UNL     1      21.890   4.226  46.016  1.00  0.00     0.168 C 
HETATM    4  F1  UNL     1      22.586   5.352  46.286  1.00  0.00    -0.196 F 
HETATM    5  C4  UNL     1      21.915   3.246  46.900  1.00  0.00     0.053 C 
ENDROOT
BRANCH   5   6
HETATM    6  C5  UNL     1      22.668   3.356  48.142  1.00  0.00     0.021 C 
HETATM    7  C6  UNL     1      22.309   3.786  49.316  1.00  0.00     0.096 C 
BRANCH   7   8
HETATM    8  N1  UNL     1      23.022   3.905  50.530  1.00  0.00    -0.305 N 
HETATM    9  C15 UNL     1      22.815   2.844  51.497  1.00  0.00     0.327 C 
HETATM   10  O2  UNL     1      23.386   2.815  52.614  1.00  0.00    -0.246 OA
HETATM   11  N2  UNL     1      21.983   1.696  51.392  1.00  0.00    -0.309 N 
HETATM   12  H14 UNL     1      21.439   1.583  50.506  1.00  0.00     0.170 HD
BRANCH   8  13
HETATM   13  C7  UNL     1      23.954   4.919  50.977  1.00  0.00     0.174 C 
BRANCH  13  14
HETATM   14  C8  UNL     1      25.150   5.087  50.128  1.00  0.00    -0.006 A 
HETATM   15  C9  UNL     1      25.989   3.972  49.965  1.00  0.00     0.012 A 
HETATM   16  C10 UNL     1      27.126   3.960  49.220  1.00  0.00     0.001 A 
HETATM   17  C11 UNL     1      27.540   5.090  48.550  1.00  0.00     0.009 A 
HETATM   18  C12 UNL     1      26.763   6.218  48.667  1.00  0.00    -0.028 A 
HETATM   19  C13 UNL     1      27.145   7.473  47.975  1.00  0.00     0.051 C 
HETATM   20  C14 UNL     1      25.627   6.166  49.434  1.00  0.00     0.079 A 
BRANCH  20  21
HETATM   21  O1  UNL     1      24.884   7.328  49.516  1.00  0.00    -0.360 OA
HETATM   22  H13 UNL     1      25.211   8.210  49.849  1.00  0.00     0.217 HD
ENDBRANCH  20  21
ENDBRANCH  13  14
ENDBRANCH   8  13
BRANCH  11  23
HETATM   23  C16 UNL     1      22.001   0.835  52.535  1.00  0.00     0.036 A 
HETATM   24  C17 UNL     1      20.888   0.969  53.333  1.00  0.00     0.029 A 
HETATM   25  C18 UNL     1      20.738   0.210  54.484  1.00  0.00     0.002 A 
HETATM   26  C19 UNL     1      21.718  -0.711  54.858  1.00  0.00     0.000 A 
HETATM   27  C20 UNL     1      22.827  -0.830  54.040  1.00  0.00     0.002 A 
HETATM   28  C21 UNL     1      22.960  -0.059  52.892  1.00  0.00     0.029 A 
ENDBRANCH  11  23
ENDBRANCH   7   8
ENDBRANCH   5   6
TORSDOF 6
ENDMDL
MODEL 8
REMARK VINA RESULT:      -8.0      2.116      6.067
REMARK  6 active torsions:
REMARK  status: ('A' for Active; 'I' for Inactive)
REMARK    1  A    between atoms: C4_5  and  C5_6 
REMARK    2  A    between atoms: C6_7  and  N1_8 
REMARK    3  A    between atoms: N1_8  and  C7_9 
REMARK       I    between atoms: N1_8  and  C15_18 
REMARK    4  A    between atoms: C7_9  and  C8_10 
REMARK    5  A    between atoms: C14_16  and  O1_17 
REMARK       I    between atoms: C15_18  and  N2_20 
REMARK    6  A    between atoms: N2_20  and  C16_21 
ROOT
HETATM    1  C1  UNL     1      17.799  -2.591  53.504  1.00  0.00     0.020 C 
HETATM    2  C2  UNL     1      18.754  -1.869  53.630  1.00  0.00    -0.047 C 
HETATM    3  C3  UNL     1      19.886  -1.011  53.805  1.00  0.00     0.168 C 
HETATM    4  F1  UNL     1      20.949  -1.269  54.596  1.00  0.00    -0.196 F 
HETATM    5  C4  UNL     1      19.868   0.122  53.127  1.00  0.00     0.053 C 
ENDROOT
BRANCH   5   6
HETATM    6  C5  UNL     1      20.960   1.083  53.217  1.00  0.00     0.021 C 
HETATM    7  C6  UNL     1      22.132   1.089  52.654  1.00  0.00     0.096 C 
BRANCH   7   8
HETATM    8  N1  UNL     1      23.205   2.006  52.729  1.00  0.00    -0.305 N 
HETATM    9  C15 UNL     1      24.498   1.447  53.069  1.00  0.00     0.327 C 
HETATM   10  O2  UNL     1      25.540   2.140  53.165  1.00  0.00    -0.246 OA
HETATM   11  N2  UNL     1      24.838   0.094  53.344  1.00  0.00    -0.309 N 
HETATM   12  H14 UNL     1      24.063  -0.608  53.300  1.00  0.00     0.170 HD
BRANCH   8  13
HETATM   13  C7  UNL     1      23.234   3.437  52.507  1.00  0.00     0.174 C 
BRANCH  13  14
HETATM   14  C8  UNL     1      23.099   3.854  51.097  1.00  0.00    -0.006 A 
HETATM   15  C9  UNL     1      24.280   4.122  50.385  1.00  0.00     0.012 A 
HETATM   16  C10 UNL     1      24.331   4.515  49.086  1.00  0.00     0.001 A 
HETATM   17  C11 UNL     1      23.174   4.682  48.356  1.00  0.00     0.009 A 
HETATM   18  C12 UNL     1      21.981   4.435  48.993  1.00  0.00    -0.028 A 
HETATM   19  C13 UNL     1      20.694   4.594  48.273  1.00  0.00     0.051 C 
HETATM   20  C14 UNL     1      21.997   4.041  50.307  1.00  0.00     0.079 A 
BRANCH  20  21
HETATM   21  O1  UNL     1      20.770   3.807  50.897  1.00  0.00    -0.360 OA
HETATM   22  H13 UNL     1      19.892   4.160  50.580  1.00  0.00     0.217 HD
ENDBRANCH  20  21
ENDBRANCH  13  14
ENDBRANCH   8  13
BRANCH  11  23
HETATM   23  C16 UNL     1      26.218  -0.129  53.651  1.00  0.00     0.036 A 
HETATM   24  C17 UNL     1      26.853  -0.934  52.734  1.00  0.00     0.029 A 
HETATM   25  C18 UNL     1      28.195  -1.255  52.874  1.00  0.00     0.002 A 
HETATM   26  C19 UNL     1      28.932  -0.764  53.953  1.00  0.00     0.000 A 
HETATM   27  C20 UNL     1      28.273   0.044  54.860  1.00  0.00     0.002 A 
HETATM   28  C21 UNL     1      26.927   0.353  54.704  1.00  0.00     0.029 A 
ENDBRANCH  11  23
ENDBRANCH   7   8
ENDBRANCH   5   6
TORSDOF 6
ENDMDL
MODEL 9
REMARK VINA RESULT:      -7.9      3.358      7.340
REMARK  6 active torsions:
REMARK  status: ('A' for Active; 'I' for Inactive)
REMARK    1  A    between atoms: C4_5  and  C5_6 
REMARK    2  A    between atoms: C6_7  and  N1_8 
REMARK    3  A    between atoms: N1_8  and  C7_9 
REMARK       I    between atoms: N1_8  and  C15_18 
REMARK    4  A    between atoms: C7_9  and  C8_10 
REMARK    5  A    between atoms: C14_16  and  O1_17 
REMARK       I    between atoms: C15_18  and  N2_20 
REMARK    6  A    between atoms: N2_20  and  C16_21 
ROOT
HETATM    1  C1  UNL     1      22.255   5.670  46.230  1.00  0.00     0.020 C 
HETATM    2  C2  UNL     1      22.130   4.899  47.146  1.00  0.00    -0.047 C 
HETATM    3  C3  UNL     1      21.970   3.999  48.247  1.00  0.00     0.168 C 
HETATM    4  F1  UNL     1      20.798   3.689  48.841  1.00  0.00    -0.196 F 
HETATM    5  C4  UNL     1      23.074   3.437  48.704  1.00  0.00     0.053 C 
ENDROOT
BRANCH   5   6
HETATM    6  C5  UNL     1      23.048   2.501  49.822  1.00  0.00     0.021 C 
HETATM    7  C6  UNL     1      23.389   2.659  51.067  1.00  0.00     0.096 C 
BRANCH   7   8
HETATM    8  N1  UNL     1      23.375   1.767  52.163  1.00  0.00    -0.305 N 
HETATM    9  C15 UNL     1      24.655   1.204  52.543  1.00  0.00     0.327 C 
HETATM   10  O2  UNL     1      24.796   0.404  53.500  1.00  0.00    -0.246 OA
HETATM   11  N2  UNL     1      25.932   1.423  51.956  1.00  0.00    -0.309 N 
HETATM   12  H14 UNL     1      25.973   2.075  51.139  1.00  0.00     0.170 HD
BRANCH   8  13
HETATM   13  C7  UNL     1      22.278   1.322  52.998  1.00  0.00     0.174 C 
BRANCH  13  14
HETATM   14  C8  UNL     1      20.943   1.406  52.374  1.00  0.00    -0.006 A 
HETATM   15  C9  UNL     1      20.408   0.227  51.828  1.00  0.00     0.012 A 
HETATM   16  C10 UNL     1      19.198   0.135  51.218  1.00  0.00     0.001 A 
HETATM   17  C11 UNL     1      18.385   1.241  51.096  1.00  0.00     0.009 A 
HETATM   18  C12 UNL     1      18.849   2.428  51.610  1.00  0.00    -0.028 A 
HETATM   19  C13 UNL     1      18.031   3.662  51.515  1.00  0.00     0.051 C 
HETATM   20  C14 UNL     1      20.081   2.456  52.213  1.00  0.00     0.079 A 
BRANCH  20  21
HETATM   21  O1  UNL     1      20.496   3.676  52.713  1.00  0.00    -0.360 OA
HETATM   22  H13 UNL     1      21.379   3.864  53.138  1.00  0.00     0.217 HD
ENDBRANCH  20  21
ENDBRANCH  13  14
ENDBRANCH   8  13
BRANCH  11  23
HETATM   23  C16 UNL     1      27.008   0.708  52.572  1.00  0.00     0.036 A 
HETATM   24  C17 UNL     1      27.845   1.516  53.305  1.00  0.00     0.029 A 
HETATM   25  C18 UNL     1      28.942   0.989  53.973  1.00  0.00     0.002 A 
HETATM   26  C19 UNL     1      29.218  -0.378  53.914  1.00  0.00     0.000 A 
HETATM   27  C20 UNL     1      28.361  -1.170  53.171  1.00  0.00     0.002 A 
HETATM   28  C21 UNL     1      27.269  -0.624  52.508  1.00  0.00     0.029 A 
ENDBRANCH  11  23
ENDBRANCH   7   8
ENDBRANCH   5   6
TORSDOF 6
ENDMDL
