MODEL 1
REMARK VINA RESULT:      -6.7      0.000      0.000
REMARK  7 active torsions:
REMARK  status: ('A' for Active; 'I' for Inactive)
REMARK    1  A    between atoms: O1_2  and  C2_3 
REMARK    2  A    between atoms: C2_3  and  O2_4 
REMARK    3  A    between atoms: O2_4  and  C3_5 
REMARK    4  A    between atoms: C6_8  and  O3_9 
REMARK    5  A    between atoms: C8_11  and  O4_12 
REMARK    6  A    between atoms: N1_16  and  C12_17 
REMARK    7  A    between atoms: C15_22  and  O5_23 
ROOT
HETATM    1  C3  UNL     1      23.076   3.215  50.734  1.00  0.00     0.230 C 
HETATM    2  C4  UNL     1      24.299   2.692  49.961  1.00  0.00     0.084 C 
HETATM    3  C5  UNL     1      25.087   3.877  49.540  1.00  0.00     0.017 C 
HETATM    4  C6  UNL     1      25.240   5.171  49.789  1.00  0.00     0.097 C 
HETATM    5  C8  UNL     1      24.558   6.066  50.751  1.00  0.00     0.099 C 
HETATM    6  C10 UNL     1      23.859   5.906  51.856  1.00  0.00     0.032 C 
HETATM    7  C11 UNL     1      23.376   4.814  52.730  1.00  0.00     0.157 C 
HETATM    8  N1  UNL     1      23.492   3.526  52.079  1.00  0.00    -0.338 N 
ENDROOT
BRANCH   8   9
HETATM    9  C12 UNL     1      24.008   2.318  52.558  1.00  0.00     0.117 C 
HETATM   10  N2  UNL     1      23.113   1.316  52.687  1.00  0.00    -0.228 NA
HETATM   11  C13 UNL     1      23.530  -0.010  53.179  1.00  0.00     0.235 C 
HETATM   12  N3  UNL     1      24.613  -0.464  53.717  1.00  0.00    -0.243 NA
HETATM   13  C14 UNL     1      25.867   0.091  54.070  1.00  0.00     0.072 C 
HETATM   14  C15 UNL     1      27.078   0.574  54.447  1.00  0.00     0.083 C 
HETATM   15  C19 UNL     1      25.548   1.477  54.047  1.00  0.00     0.076 A 
HETATM   16  C17 UNL     1      26.789   1.656  53.411  1.00  0.00     0.053 A 
HETATM   17  C18 UNL     1      25.472   2.144  52.842  1.00  0.00     0.063 A 
BRANCH  14  18
HETATM   18  O5  UNL     1      28.264   0.850  54.944  1.00  0.00    -0.357 OA
HETATM   19  C16 UNL     1      29.299   1.560  54.256  1.00  0.00     0.209 C 
ENDBRANCH  14  18
ENDBRANCH   8   9
BRANCH   1  20
HETATM   20  O2  UNL     1      22.541   4.268  50.024  1.00  0.00    -0.342 OA
BRANCH  20  21
HETATM   21  C2  UNL     1      21.180   4.171  49.789  1.00  0.00     0.339 C 
BRANCH  21  22
HETATM   22  O1  UNL     1      20.466   4.712  50.866  1.00  0.00    -0.372 OA
HETATM   23  C1  UNL     1      19.416   3.915  51.249  1.00  0.00     0.204 C 
ENDBRANCH  21  22
ENDBRANCH  20  21
ENDBRANCH   1  20
BRANCH   5  24
HETATM   24  O4  UNL     1      24.775   7.351  50.267  1.00  0.00    -0.353 OA
HETATM   25  C9  UNL     1      23.784   8.250  49.868  1.00  0.00     0.210 C 
ENDBRANCH   5  24
BRANCH   4  26
HETATM   26  O3  UNL     1      26.219   5.701  48.968  1.00  0.00    -0.353 OA
HETATM   27  C7  UNL     1      27.424   5.022  48.666  1.00  0.00     0.210 C 
ENDBRANCH   4  26
TORSDOF 7
ENDMDL
MODEL 2
REMARK VINA RESULT:      -6.5      2.817      4.188
REMARK  7 active torsions:
REMARK  status: ('A' for Active; 'I' for Inactive)
REMARK    1  A    between atoms: O1_2  and  C2_3 
REMARK    2  A    between atoms: C2_3  and  O2_4 
REMARK    3  A    between atoms: O2_4  and  C3_5 
REMARK    4  A    between atoms: C6_8  and  O3_9 
REMARK    5  A    between atoms: C8_11  and  O4_12 
REMARK    6  A    between atoms: N1_16  and  C12_17 
REMARK    7  A    between atoms: C15_22  and  O5_23 
ROOT
HETATM    1  C3  UNL     1      22.137   1.904  52.056  1.00  0.00     0.230 C 
HETATM    2  C4  UNL     1      22.527   1.285  50.703  1.00  0.00     0.084 C 
HETATM    3  C5  UNL     1      21.561   1.791  49.697  1.00  0.00     0.017 C 
HETATM    4  C6  UNL     1      20.657   2.744  49.506  1.00  0.00     0.097 C 
HETATM    5  C8  UNL     1      20.202   3.847  50.381  1.00  0.00     0.099 C 
HETATM    6  C10 UNL     1      20.685   4.476  51.434  1.00  0.00     0.032 C 
HETATM    7  C11 UNL     1      21.882   4.453  52.303  1.00  0.00     0.157 C 
HETATM    8  N1  UNL     1      22.657   3.247  52.104  1.00  0.00    -0.338 N 
ENDROOT
BRANCH   8   9
HETATM    9  C12 UNL     1      24.033   3.081  51.917  1.00  0.00     0.117 C 
HETATM   10  N2  UNL     1      24.539   3.650  50.802  1.00  0.00    -0.228 NA
HETATM   11  C13 UNL     1      25.977   3.552  50.490  1.00  0.00     0.235 C 
HETATM   12  N3  UNL     1      26.953   2.863  50.981  1.00  0.00    -0.243 NA
HETATM   13  C14 UNL     1      27.085   1.910  52.020  1.00  0.00     0.072 C 
HETATM   14  C15 UNL     1      27.267   0.978  52.990  1.00  0.00     0.083 C 
HETATM   15  C19 UNL     1      25.723   1.548  52.210  1.00  0.00     0.076 A 
HETATM   16  C17 UNL     1      26.002   1.587  53.587  1.00  0.00     0.053 A 
HETATM   17  C18 UNL     1      24.886   2.375  52.929  1.00  0.00     0.063 A 
BRANCH  14  18
HETATM   18  O5  UNL     1      27.640   0.025  53.816  1.00  0.00    -0.357 OA
HETATM   19  C16 UNL     1      28.611   0.173  54.857  1.00  0.00     0.209 C 
ENDBRANCH  14  18
ENDBRANCH   8   9
BRANCH   1  20
HETATM   20  O2  UNL     1      20.771   1.794  52.196  1.00  0.00    -0.342 OA
BRANCH  20  21
HETATM   21  C2  UNL     1      20.362   0.885  53.157  1.00  0.00     0.339 C 
BRANCH  21  22
HETATM   22  O1  UNL     1      21.427   0.575  54.012  1.00  0.00    -0.372 OA
HETATM   23  C1  UNL     1      21.259  -0.634  54.638  1.00  0.00     0.204 C 
ENDBRANCH  21  22
ENDBRANCH  20  21
ENDBRANCH   1  20
BRANCH   5  24
HETATM   24  O4  UNL     1      18.964   4.225  49.876  1.00  0.00    -0.353 OA
HETATM   25  C9  UNL     1      17.745   4.133  50.552  1.00  0.00     0.210 C 
ENDBRANCH   5  24
BRANCH   4  26
HETATM   26  O3  UNL     1      20.087   2.613  48.252  1.00  0.00    -0.353 OA
HETATM   27  C7  UNL     1      20.648   3.185  47.085  1.00  0.00     0.210 C 
ENDBRANCH   4  26
TORSDOF 7
ENDMDL
MODEL 3
REMARK VINA RESULT:      -6.4      1.200      3.852
REMARK  7 active torsions:
REMARK  status: ('A' for Active; 'I' for Inactive)
REMARK    1  A    between atoms: O1_2  and  C2_3 
REMARK    2  A    between atoms: C2_3  and  O2_4 
REMARK    3  A    between atoms: O2_4  and  C3_5 
REMARK    4  A    between atoms: C6_8  and  O3_9 
REMARK    5  A    between atoms: C8_11  and  O4_12 
REMARK    6  A    between atoms: N1_16  and  C12_17 
REMARK    7  A    between atoms: C15_22  and  O5_23 
ROOT
HETATM    1  C3  UNL     1      24.100   3.905  51.318  1.00  0.00     0.230 C 
HETATM    2  C4  UNL     1      23.096   3.891  52.483  1.00  0.00     0.084 C 
HETATM    3  C5  UNL     1      21.766   4.228  51.917  1.00  0.00     0.017 C 
HETATM    4  C6  UNL     1      21.109   4.297  50.767  1.00  0.00     0.097 C 
HETATM    5  C8  UNL     1      21.539   4.013  49.379  1.00  0.00     0.099 C 
HETATM    6  C10 UNL     1      22.513   3.327  48.816  1.00  0.00     0.032 C 
HETATM    7  C11 UNL     1      23.671   2.494  49.208  1.00  0.00     0.157 C 
HETATM    8  N1  UNL     1      23.986   2.653  50.612  1.00  0.00    -0.338 N 
ENDROOT
BRANCH   8   9
HETATM    9  C12 UNL     1      24.247   1.690  51.591  1.00  0.00     0.117 C 
HETATM   10  N2  UNL     1      23.186   0.949  51.972  1.00  0.00    -0.228 NA
HETATM   11  C13 UNL     1      23.328  -0.104  52.995  1.00  0.00     0.235 C 
HETATM   12  N3  UNL     1      24.271  -0.433  53.814  1.00  0.00    -0.243 NA
HETATM   13  C14 UNL     1      25.571   0.055  54.096  1.00  0.00     0.072 C 
HETATM   14  C15 UNL     1      26.813   0.492  54.421  1.00  0.00     0.083 C 
HETATM   15  C19 UNL     1      25.498   1.339  53.490  1.00  0.00     0.076 A 
HETATM   16  C17 UNL     1      26.797   1.086  53.017  1.00  0.00     0.053 A 
HETATM   17  C18 UNL     1      25.632   1.463  52.123  1.00  0.00     0.063 A 
BRANCH  14  18
HETATM   18  O5  UNL     1      27.987   0.794  54.933  1.00  0.00    -0.357 OA
HETATM   19  C16 UNL     1      29.181   1.017  54.177  1.00  0.00     0.209 C 
ENDBRANCH  14  18
ENDBRANCH   8   9
BRANCH   1  20
HETATM   20  O2  UNL     1      23.861   5.032  50.563  1.00  0.00    -0.342 OA
BRANCH  20  21
HETATM   21  C2  UNL     1      24.989   5.781  50.274  1.00  0.00     0.339 C 
BRANCH  21  22
HETATM   22  O1  UNL     1      25.422   5.518  48.968  1.00  0.00    -0.372 OA
HETATM   23  C1  UNL     1      26.735   5.124  48.923  1.00  0.00     0.204 C 
ENDBRANCH  21  22
ENDBRANCH  20  21
ENDBRANCH   1  20
BRANCH   5  24
HETATM   24  O4  UNL     1      20.625   4.679  48.572  1.00  0.00    -0.353 OA
HETATM   25  C9  UNL     1      20.667   4.749  47.178  1.00  0.00     0.210 C 
ENDBRANCH   5  24
BRANCH   4  26
HETATM   26  O3  UNL     1      19.809   4.716  50.987  1.00  0.00    -0.353 OA
HETATM   27  C7  UNL     1      18.758   3.830  51.326  1.00  0.00     0.210 C 
ENDBRANCH   4  26
TORSDOF 7
ENDMDL
MODEL 4
REMARK VINA RESULT:      -6.3      1.953      3.023
REMARK  7 active torsions:
REMARK  status: ('A' for Active; 'I' for Inactive)
REMARK    1  A    between atoms: O1_2  and  C2_3 
REMARK    2  A    between atoms: C2_3  and  O2_4 
REMARK    3  A    between atoms: O2_4  and  C3_5 
REMARK    4  A    between atoms: C6_8  and  O3_9 
REMARK    5  A    between atoms: C8_11  and  O4_12 
REMARK    6  A    between atoms: N1_16  and  C12_17 
REMARK    7  A    between atoms: C15_22  and  O5_23 
ROOT
HETATM    1  C3  UNL     1      23.370   3.595  50.397  1.00  0.00     0.230 C 
HETATM    2  C4  UNL     1      24.633   2.924  49.831  1.00  0.00     0.084 C 
HETATM    3  C5  UNL     1      25.513   4.007  49.326  1.00  0.00     0.017 C 
HETATM    4  C6  UNL     1      25.703   5.318  49.402  1.00  0.00     0.097 C 
HETATM    5  C8  UNL     1      24.978   6.366  50.154  1.00  0.00     0.099 C 
HETATM    6  C10 UNL     1      24.173   6.392  51.197  1.00  0.00     0.032 C 
HETATM    7  C11 UNL     1      23.559   5.456  52.165  1.00  0.00     0.157 C 
HETATM    8  N1  UNL     1      23.674   4.084  51.718  1.00  0.00    -0.338 N 
ENDROOT
BRANCH   8   9
HETATM    9  C12 UNL     1      24.085   2.943  52.413  1.00  0.00     0.117 C 
HETATM   10  N2  UNL     1      25.407   2.869  52.676  1.00  0.00    -0.228 NA
HETATM   11  C13 UNL     1      25.969   1.718  53.406  1.00  0.00     0.235 C 
HETATM   12  N3  UNL     1      25.497   0.570  53.764  1.00  0.00    -0.243 NA
HETATM   13  C14 UNL     1      24.252  -0.091  53.625  1.00  0.00     0.072 C 
HETATM   14  C15 UNL     1      23.089  -0.779  53.504  1.00  0.00     0.083 C 
HETATM   15  C19 UNL     1      23.664   0.687  52.590  1.00  0.00     0.076 A 
HETATM   16  C17 UNL     1      22.474   0.607  53.334  1.00  0.00     0.053 A 
HETATM   17  C18 UNL     1      23.102   1.912  52.886  1.00  0.00     0.063 A 
BRANCH  14  18
HETATM   18  O5  UNL     1      22.091  -1.634  53.435  1.00  0.00    -0.357 OA
HETATM   19  C16 UNL     1      20.911  -1.586  54.243  1.00  0.00     0.209 C 
ENDBRANCH  14  18
ENDBRANCH   8   9
BRANCH   1  20
HETATM   20  O2  UNL     1      22.954   4.549  49.495  1.00  0.00    -0.342 OA
BRANCH  20  21
HETATM   21  C2  UNL     1      21.661   4.378  49.031  1.00  0.00     0.339 C 
BRANCH  21  22
HETATM   22  O1  UNL     1      21.600   4.653  47.659  1.00  0.00    -0.372 OA
HETATM   23  C1  UNL     1      22.548   5.564  47.267  1.00  0.00     0.204 C 
ENDBRANCH  21  22
ENDBRANCH  20  21
ENDBRANCH   1  20
BRANCH   5  24
HETATM   24  O4  UNL     1      25.300   7.559  49.517  1.00  0.00    -0.353 OA
HETATM   25  C9  UNL     1      24.653   8.783  49.702  1.00  0.00     0.210 C 
ENDBRANCH   5  24
BRANCH   4  26
HETATM   26  O3  UNL     1      26.779   5.689  48.615  1.00  0.00    -0.353 OA
HETATM   27  C7  UNL     1      27.982   4.946  48.552  1.00  0.00     0.210 C 
ENDBRANCH   4  26
TORSDOF 7
ENDMDL
MODEL 5
REMARK VINA RESULT:      -6.2      2.777      4.737
REMARK  7 active torsions:
REMARK  status: ('A' for Active; 'I' for Inactive)
REMARK    1  A    between atoms: O1_2  and  C2_3 
REMARK    2  A    between atoms: C2_3  and  O2_4 
REMARK    3  A    between atoms: O2_4  and  C3_5 
REMARK    4  A    between atoms: C6_8  and  O3_9 
REMARK    5  A    between atoms: C8_11  and  O4_12 
REMARK    6  A    between atoms: N1_16  and  C12_17 
REMARK    7  A    between atoms: C15_22  and  O5_23 
ROOT
HETATM    1  C3  UNL     1      23.023   2.278  51.093  1.00  0.00     0.230 C 
HETATM    2  C4  UNL     1      22.231   3.124  52.105  1.00  0.00     0.084 C 
HETATM    3  C5  UNL     1      21.685   4.289  51.367  1.00  0.00     0.017 C 
HETATM    4  C6  UNL     1      21.439   4.724  50.137  1.00  0.00     0.097 C 
HETATM    5  C8  UNL     1      21.659   4.091  48.817  1.00  0.00     0.099 C 
HETATM    6  C10 UNL     1      21.838   2.862  48.379  1.00  0.00     0.032 C 
HETATM    7  C11 UNL     1      21.919   1.482  48.907  1.00  0.00     0.157 C 
HETATM    8  N1  UNL     1      22.087   1.477  50.345  1.00  0.00    -0.338 N 
ENDROOT
BRANCH   8   9
HETATM    9  C12 UNL     1      21.422   0.735  51.326  1.00  0.00     0.117 C 
HETATM   10  N2  UNL     1      20.078   0.856  51.333  1.00  0.00    -0.228 NA
HETATM   11  C13 UNL     1      19.258   0.123  52.315  1.00  0.00     0.235 C 
HETATM   12  N3  UNL     1      19.533  -0.559  53.377  1.00  0.00    -0.243 NA
HETATM   13  C14 UNL     1      20.720  -0.908  54.067  1.00  0.00     0.072 C 
HETATM   14  C15 UNL     1      21.822  -1.255  54.778  1.00  0.00     0.083 C 
HETATM   15  C19 UNL     1      21.625   0.037  53.510  1.00  0.00     0.076 A 
HETATM   16  C17 UNL     1      22.550  -1.020  53.459  1.00  0.00     0.053 A 
HETATM   17  C18 UNL     1      22.161  -0.181  52.258  1.00  0.00     0.063 A 
BRANCH  14  18
HETATM   18  O5  UNL     1      22.740  -1.633  55.641  1.00  0.00    -0.357 OA
HETATM   19  C16 UNL     1      24.125  -1.280  55.576  1.00  0.00     0.209 C 
ENDBRANCH  14  18
ENDBRANCH   8   9
BRANCH   1  20
HETATM   20  O2  UNL     1      23.801   3.132  50.341  1.00  0.00    -0.342 OA
BRANCH  20  21
HETATM   21  C2  UNL     1      24.982   3.521  50.951  1.00  0.00     0.339 C 
BRANCH  21  22
HETATM   22  O1  UNL     1      26.050   2.759  50.463  1.00  0.00    -0.372 OA
HETATM   23  C1  UNL     1      26.699   2.072  51.458  1.00  0.00     0.204 C 
ENDBRANCH  21  22
ENDBRANCH  20  21
ENDBRANCH   1  20
BRANCH   5  24
HETATM   24  O4  UNL     1      21.658   5.141  47.907  1.00  0.00    -0.353 OA
HETATM   25  C9  UNL     1      22.082   5.070  46.578  1.00  0.00     0.210 C 
ENDBRANCH   5  24
BRANCH   4  26
HETATM   26  O3  UNL     1      20.886   5.991  50.183  1.00  0.00    -0.353 OA
HETATM   27  C7  UNL     1      21.519   7.088  50.814  1.00  0.00     0.210 C 
ENDBRANCH   4  26
TORSDOF 7
ENDMDL
MODEL 6
REMARK VINA RESULT:      -6.2      2.667      3.553
REMARK  7 active torsions:
REMARK  status: ('A' for Active; 'I' for Inactive)
REMARK    1  A    between atoms: O1_2  and  C2_3 
REMARK    2  A    between atoms: C2_3  and  O2_4 
REMARK    3  A    between atoms: O2_4  and  C3_5 
REMARK    4  A    between atoms: C6_8  and  O3_9 
REMARK    5  A    between atoms: C8_11  and  O4_12 
REMARK    6  A    between atoms: N1_16  and  C12_17 
REMARK    7  A    between atoms: C15_22  and  O5_23 
ROOT
HETATM    1  C3  UNL     1      21.156   2.531  50.419  1.00  0.00     0.230 C 
HETATM    2  C4  UNL     1      22.284   1.506  50.207  1.00  0.00     0.084 C 
HETATM    3  C5  UNL     1      23.567   2.247  50.290  1.00  0.00     0.017 C 
HETATM    4  C6  UNL     1      24.083   3.396  50.707  1.00  0.00     0.097 C 
HETATM    5  C8  UNL     1      23.457   4.567  51.361  1.00  0.00     0.099 C 
HETATM    6  C10 UNL     1      22.344   4.790  52.030  1.00  0.00     0.032 C 
HETATM    7  C11 UNL     1      21.147   4.054  52.494  1.00  0.00     0.157 C 
HETATM    8  N1  UNL     1      21.027   2.771  51.834  1.00  0.00    -0.338 N 
ENDROOT
BRANCH   8   9
HETATM    9  C12 UNL     1      20.768   1.505  52.368  1.00  0.00     0.117 C 
HETATM   10  N2  UNL     1      19.516   1.040  52.176  1.00  0.00    -0.228 NA
HETATM   11  C13 UNL     1      19.116  -0.284  52.687  1.00  0.00     0.235 C 
HETATM   12  N3  UNL     1      19.667  -1.139  53.483  1.00  0.00    -0.243 NA
HETATM   13  C14 UNL     1      20.880  -1.195  54.212  1.00  0.00     0.072 C 
HETATM   14  C15 UNL     1      22.017  -1.293  54.945  1.00  0.00     0.083 C 
HETATM   15  C19 UNL     1      21.260   0.175  54.181  1.00  0.00     0.076 A 
HETATM   16  C17 UNL     1      22.564  -0.288  53.937  1.00  0.00     0.053 A 
HETATM   17  C18 UNL     1      21.840   0.702  53.046  1.00  0.00     0.063 A 
BRANCH  14  18
HETATM   18  O5  UNL     1      23.004  -1.553  55.776  1.00  0.00    -0.357 OA
HETATM   19  C16 UNL     1      24.382  -1.253  55.534  1.00  0.00     0.209 C 
ENDBRANCH  14  18
ENDBRANCH   8   9
BRANCH   1  20
HETATM   20  O2  UNL     1      21.440   3.641  49.655  1.00  0.00    -0.342 OA
BRANCH  20  21
HETATM   21  C2  UNL     1      20.381   4.100  48.890  1.00  0.00     0.339 C 
BRANCH  21  22
HETATM   22  O1  UNL     1      20.092   5.431  49.216  1.00  0.00    -0.372 OA
HETATM   23  C1  UNL     1      20.220   6.272  48.138  1.00  0.00     0.204 C 
ENDBRANCH  21  22
ENDBRANCH  20  21
ENDBRANCH   1  20
BRANCH   5  24
HETATM   24  O4  UNL     1      24.342   5.618  51.149  1.00  0.00    -0.353 OA
HETATM   25  C9  UNL     1      23.988   6.930  50.826  1.00  0.00     0.210 C 
ENDBRANCH   5  24
BRANCH   4  26
HETATM   26  O3  UNL     1      25.443   3.427  50.451  1.00  0.00    -0.353 OA
HETATM   27  C7  UNL     1      26.360   2.518  51.031  1.00  0.00     0.210 C 
ENDBRANCH   4  26
TORSDOF 7
ENDMDL
MODEL 7
REMARK VINA RESULT:      -6.1      2.702      5.045
REMARK  7 active torsions:
REMARK  status: ('A' for Active; 'I' for Inactive)
REMARK    1  A    between atoms: O1_2  and  C2_3 
REMARK    2  A    between atoms: C2_3  and  O2_4 
REMARK    3  A    between atoms: O2_4  and  C3_5 
REMARK    4  A    between atoms: C6_8  and  O3_9 
REMARK    5  A    between atoms: C8_11  and  O4_12 
REMARK    6  A    between atoms: N1_16  and  C12_17 
REMARK    7  A    between atoms: C15_22  and  O5_23 
ROOT
HETATM    1  C3  UNL     1      22.011   2.379  51.512  1.00  0.00     0.230 C 
HETATM    2  C4  UNL     1      21.015   2.750  52.625  1.00  0.00     0.084 C 
HETATM    3  C5  UNL     1      19.782   3.238  51.960  1.00  0.00     0.017 C 
HETATM    4  C6  UNL     1      19.159   3.243  50.788  1.00  0.00     0.097 C 
HETATM    5  C8  UNL     1      19.535   2.657  49.482  1.00  0.00     0.099 C 
HETATM    6  C10 UNL     1      20.360   1.713  49.074  1.00  0.00     0.032 C 
HETATM    7  C11 UNL     1      21.330   0.749  49.639  1.00  0.00     0.157 C 
HETATM    8  N1  UNL     1      21.659   1.074  51.011  1.00  0.00    -0.338 N 
ENDROOT
BRANCH   8   9
HETATM    9  C12 UNL     1      21.719   0.253  52.141  1.00  0.00     0.117 C 
HETATM   10  N2  UNL     1      20.527  -0.142  52.635  1.00  0.00    -0.228 NA
HETATM   11  C13 UNL     1      20.452  -1.013  53.822  1.00  0.00     0.235 C 
HETATM   12  N3  UNL     1      21.318  -1.416  54.691  1.00  0.00    -0.243 NA
HETATM   13  C14 UNL     1      22.704  -1.211  54.896  1.00  0.00     0.072 C 
HETATM   14  C15 UNL     1      24.025  -1.034  55.151  1.00  0.00     0.083 C 
HETATM   15  C19 UNL     1      22.916  -0.065  54.081  1.00  0.00     0.076 A 
HETATM   16  C17 UNL     1      24.102  -0.694  53.666  1.00  0.00     0.053 A 
HETATM   17  C18 UNL     1      23.029  -0.205  52.714  1.00  0.00     0.063 A 
BRANCH  14  18
HETATM   18  O5  UNL     1      25.253  -0.938  55.613  1.00  0.00    -0.357 OA
HETATM   19  C16 UNL     1      26.264  -0.072  55.088  1.00  0.00     0.209 C 
ENDBRANCH  14  18
ENDBRANCH   8   9
BRANCH   1  20
HETATM   20  O2  UNL     1      22.003   3.391  50.578  1.00  0.00    -0.342 OA
BRANCH  20  21
HETATM   21  C2  UNL     1      23.259   3.831  50.196  1.00  0.00     0.339 C 
BRANCH  21  22
HETATM   22  O1  UNL     1      23.434   3.653  48.818  1.00  0.00    -0.372 OA
HETATM   23  C1  UNL     1      22.649   4.501  48.078  1.00  0.00     0.204 C 
ENDBRANCH  21  22
ENDBRANCH  20  21
ENDBRANCH   1  20
BRANCH   5  24
HETATM   24  O4  UNL     1      18.776   3.345  48.543  1.00  0.00    -0.353 OA
HETATM   25  C9  UNL     1      18.980   3.332  47.162  1.00  0.00     0.210 C 
ENDBRANCH   5  24
BRANCH   4  26
HETATM   26  O3  UNL     1      17.965   3.934  50.887  1.00  0.00    -0.353 OA
HETATM   27  C7  UNL     1      16.881   3.494  51.685  1.00  0.00     0.210 C 
ENDBRANCH   4  26
TORSDOF 7
ENDMDL
MODEL 8
REMARK VINA RESULT:      -6.1      2.616      6.688
REMARK  7 active torsions:
REMARK  status: ('A' for Active; 'I' for Inactive)
REMARK    1  A    between atoms: O1_2  and  C2_3 
REMARK    2  A    between atoms: C2_3  and  O2_4 
REMARK    3  A    between atoms: O2_4  and  C3_5 
REMARK    4  A    between atoms: C6_8  and  O3_9 
REMARK    5  A    between atoms: C8_11  and  O4_12 
REMARK    6  A    between atoms: N1_16  and  C12_17 
REMARK    7  A    between atoms: C15_22  and  O5_23 
ROOT
HETATM    1  C3  UNL     1      24.916   3.878  50.538  1.00  0.00     0.230 C 
HETATM    2  C4  UNL     1      24.040   3.850  49.275  1.00  0.00     0.084 C 
HETATM    3  C5  UNL     1      23.128   2.686  49.403  1.00  0.00     0.017 C 
HETATM    4  C6  UNL     1      22.648   1.830  50.296  1.00  0.00     0.097 C 
HETATM    5  C8  UNL     1      22.887   1.701  51.751  1.00  0.00     0.099 C 
HETATM    6  C10 UNL     1      23.339   2.489  52.705  1.00  0.00     0.032 C 
HETATM    7  C11 UNL     1      23.839   3.871  52.877  1.00  0.00     0.157 C 
HETATM    8  N1  UNL     1      24.153   4.481  51.602  1.00  0.00    -0.338 N 
ENDROOT
BRANCH   8   9
HETATM    9  C12 UNL     1      23.817   5.742  51.101  1.00  0.00     0.117 C 
HETATM   10  N2  UNL     1      22.495   5.973  50.950  1.00  0.00    -0.228 NA
HETATM   11  C13 UNL     1      22.008   7.265  50.434  1.00  0.00     0.235 C 
HETATM   12  N3  UNL     1      22.584   8.285  49.890  1.00  0.00    -0.243 NA
HETATM   13  C14 UNL     1      23.918   8.622  49.551  1.00  0.00     0.072 C 
HETATM   14  C15 UNL     1      25.172   8.988  49.188  1.00  0.00     0.083 C 
HETATM   15  C19 UNL     1      24.526   7.337  49.601  1.00  0.00     0.076 A 
HETATM   16  C17 UNL     1      25.601   7.974  50.243  1.00  0.00     0.053 A 
HETATM   17  C18 UNL     1      24.861   6.782  50.818  1.00  0.00     0.063 A 
BRANCH  14  18
HETATM   18  O5  UNL     1      26.282   9.500  48.699  1.00  0.00    -0.357 OA
HETATM   19  C16 UNL     1      27.585   9.325  49.263  1.00  0.00     0.209 C 
ENDBRANCH  14  18
ENDBRANCH   8   9
BRANCH   1  20
HETATM   20  O2  UNL     1      25.356   2.595  50.781  1.00  0.00    -0.342 OA
BRANCH  20  21
HETATM   21  C2  UNL     1      26.698   2.498  51.107  1.00  0.00     0.339 C 
BRANCH  21  22
HETATM   22  O1  UNL     1      26.861   1.698  52.245  1.00  0.00    -0.372 OA
HETATM   23  C1  UNL     1      26.439   0.408  52.041  1.00  0.00     0.204 C 
ENDBRANCH  21  22
ENDBRANCH  20  21
ENDBRANCH   1  20
BRANCH   5  24
HETATM   24  O4  UNL     1      22.511   0.401  52.067  1.00  0.00    -0.353 OA
HETATM   25  C9  UNL     1      22.908  -0.309  53.202  1.00  0.00     0.210 C 
ENDBRANCH   5  24
BRANCH   4  26
HETATM   26  O3  UNL     1      21.785   0.938  49.683  1.00  0.00    -0.353 OA
HETATM   27  C7  UNL     1      20.581   1.335  49.054  1.00  0.00     0.210 C 
ENDBRANCH   4  26
TORSDOF 7
ENDMDL
MODEL 9
REMARK VINA RESULT:      -6.0      2.697      3.610
REMARK  7 active torsions:
REMARK  status: ('A' for Active; 'I' for Inactive)
REMARK    1  A    between atoms: O1_2  and  C2_3 
REMARK    2  A    between atoms: C2_3  and  O2_4 
REMARK    3  A    between atoms: O2_4  and  C3_5 
REMARK    4  A    between atoms: C6_8  and  O3_9 
REMARK    5  A    between atoms: C8_11  and  O4_12 
REMARK    6  A    between atoms: N1_16  and  C12_17 
REMARK    7  A    between atoms: C15_22  and  O5_23 
ROOT
HETATM    1  C3  UNL     1      22.024   2.208  51.317  1.00  0.00     0.230 C 
HETATM    2  C4  UNL     1      22.563   1.873  49.916  1.00  0.00     0.084 C 
HETATM    3  C5  UNL     1      21.912   2.806  48.964  1.00  0.00     0.017 C 
HETATM    4  C6  UNL     1      21.236   3.947  48.918  1.00  0.00     0.097 C 
HETATM    5  C8  UNL     1      20.810   4.873  49.992  1.00  0.00     0.099 C 
HETATM    6  C10 UNL     1      21.176   5.104  51.237  1.00  0.00     0.032 C 
HETATM    7  C11 UNL     1      22.158   4.612  52.228  1.00  0.00     0.157 C 
HETATM    8  N1  UNL     1      22.743   3.355  51.813  1.00  0.00    -0.338 N 
ENDROOT
BRANCH   8   9
HETATM    9  C12 UNL     1      24.081   2.950  51.788  1.00  0.00     0.117 C 
HETATM   10  N2  UNL     1      24.881   3.644  50.952  1.00  0.00    -0.228 NA
HETATM   11  C13 UNL     1      26.314   3.318  50.834  1.00  0.00     0.235 C 
HETATM   12  N3  UNL     1      27.047   2.342  51.257  1.00  0.00    -0.243 NA
HETATM   13  C14 UNL     1      26.814   1.165  52.010  1.00  0.00     0.072 C 
HETATM   14  C15 UNL     1      26.645   0.015  52.709  1.00  0.00     0.083 C 
HETATM   15  C19 UNL     1      25.399   1.067  51.898  1.00  0.00     0.076 A 
HETATM   16  C17 UNL     1      25.410   0.720  53.260  1.00  0.00     0.053 A 
HETATM   17  C18 UNL     1      24.591   1.860  52.685  1.00  0.00     0.063 A 
BRANCH  14  18
HETATM   18  O5  UNL     1      26.685  -1.163  53.295  1.00  0.00    -0.357 OA
HETATM   19  C16 UNL     1      27.193  -2.360  52.698  1.00  0.00     0.209 C 
ENDBRANCH  14  18
ENDBRANCH   8   9
BRANCH   1  20
HETATM   20  O2  UNL     1      20.658   2.363  51.222  1.00  0.00    -0.342 OA
BRANCH  20  21
HETATM   21  C2  UNL     1      19.923   1.460  51.972  1.00  0.00     0.339 C 
BRANCH  21  22
HETATM   22  O1  UNL     1      20.366   1.463  53.300  1.00  0.00    -0.372 OA
HETATM   23  C1  UNL     1      20.403   0.202  53.841  1.00  0.00     0.204 C 
ENDBRANCH  21  22
ENDBRANCH  20  21
ENDBRANCH   1  20
BRANCH   5  24
HETATM   24  O4  UNL     1      19.777   5.619  49.440  1.00  0.00    -0.353 OA
HETATM   25  C9  UNL     1      19.670   7.011  49.469  1.00  0.00     0.210 C 
ENDBRANCH   5  24
BRANCH   4  26
HETATM   26  O3  UNL     1      20.910   4.255  47.609  1.00  0.00    -0.353 OA
HETATM   27  C7  UNL     1      21.418   3.539  46.498  1.00  0.00     0.210 C 
ENDBRANCH   4  26
TORSDOF 7
ENDMDL
