MODEL 1
REMARK VINA RESULT:      -8.5      0.000      0.000
REMARK  3 active torsions:
REMARK  status: ('A' for Active; 'I' for Inactive)
REMARK    1  A    between atoms: N1_1  and  C1_2 
REMARK    2  A    between atoms: N2_5  and  C4_6 
REMARK    3  A    between atoms: C4_6  and  C5_7 
ROOT
HETATM    1  C5  UNL     1      24.671   1.817  51.411  1.00  0.00    -0.017 A 
HETATM    2  C6  UNL     1      25.369   1.079  52.289  1.00  0.00     0.051 A 
HETATM    3  C7  UNL     1      25.196  -0.285  52.999  1.00  0.00     0.099 C 
HETATM    4  C8  UNL     1      26.563  -0.813  53.222  1.00  0.00    -0.050 A 
HETATM    5  C9  UNL     1      27.250  -1.906  52.765  1.00  0.00     0.007 A 
HETATM    6  C10 UNL     1      28.601  -1.938  53.016  1.00  0.00     0.003 A 
HETATM    7  C11 UNL     1      29.263  -0.936  53.685  1.00  0.00     0.029 A 
HETATM    8  C12 UNL     1      28.531   0.141  54.123  1.00  0.00     0.034 A 
HETATM    9  C13 UNL     1      27.153   0.217  53.904  1.00  0.00     0.037 A 
HETATM   10  N3  UNL     1      28.986   1.418  54.671  1.00  0.00    -0.340 N 
HETATM   11  C14 UNL     1      28.525   2.347  53.604  1.00  0.00     0.302 C 
HETATM   12  N4  UNL     1      27.488   2.192  53.009  1.00  0.00    -0.319 NA
HETATM   13  N5  UNL     1      26.405   2.114  52.320  1.00  0.00    -0.226 N 
HETATM   14  C15 UNL     1      25.675   2.870  51.331  1.00  0.00     0.201 A 
HETATM   15  H16 UNL     1      29.383   0.988  55.500  1.00  0.00     0.167 HD
ENDROOT
BRANCH   1  16
HETATM   16  C4  UNL     1      23.396   1.780  50.644  1.00  0.00     0.155 C 
BRANCH  16  17
HETATM   17  N2  UNL     1      22.285   1.410  51.425  1.00  0.00    -0.408 N 
HETATM   18  C3  UNL     1      21.847   0.085  51.461  1.00  0.00     0.119 C 
HETATM   19  C2  UNL     1      21.625  -0.447  52.878  1.00  0.00     0.055 C 
HETATM   20  C1  UNL     1      20.586   0.457  53.475  1.00  0.00     0.221 C 
HETATM   21  C17 UNL     1      20.883   1.908  53.391  1.00  0.00     0.055 C 
HETATM   22  C16 UNL     1      21.617   2.377  52.186  1.00  0.00     0.119 C 
BRANCH  20  23
HETATM   23  N1  UNL     1      20.475   0.095  54.886  1.00  0.00     0.083 N 
HETATM   24  H1  UNL     1      21.144  -0.645  55.146  1.00  0.00     0.313 HD
HETATM   25  H2  UNL     1      19.482  -0.085  55.158  1.00  0.00     0.313 HD
ENDBRANCH  20  23
ENDBRANCH  16  17
ENDBRANCH   1  16
TORSDOF 3
ENDMDL
MODEL 2
REMARK VINA RESULT:      -8.3      1.772      2.762
REMARK  3 active torsions:
REMARK  status: ('A' for Active; 'I' for Inactive)
REMARK    1  A    between atoms: N1_1  and  C1_2 
REMARK    2  A    between atoms: N2_5  and  C4_6 
REMARK    3  A    between atoms: C4_6  and  C5_7 
ROOT
HETATM    1  C5  UNL     1      24.675   1.736  51.610  1.00  0.00    -0.017 A 
HETATM    2  C6  UNL     1      25.442   1.039  52.463  1.00  0.00     0.051 A 
HETATM    3  C7  UNL     1      25.354  -0.317  53.202  1.00  0.00     0.099 C 
HETATM    4  C8  UNL     1      26.749  -0.792  53.364  1.00  0.00    -0.050 A 
HETATM    5  C9  UNL     1      27.452  -1.867  52.891  1.00  0.00     0.007 A 
HETATM    6  C10 UNL     1      28.815  -1.846  53.075  1.00  0.00     0.003 A 
HETATM    7  C11 UNL     1      29.472  -0.810  53.694  1.00  0.00     0.029 A 
HETATM    8  C12 UNL     1      28.723   0.247  54.151  1.00  0.00     0.034 A 
HETATM    9  C13 UNL     1      27.334   0.270  54.000  1.00  0.00     0.037 A 
HETATM   10  N3  UNL     1      29.156   1.549  54.657  1.00  0.00    -0.340 N 
HETATM   11  C14 UNL     1      28.610   2.443  53.600  1.00  0.00     0.302 C 
HETATM   12  N4  UNL     1      27.551   2.240  53.060  1.00  0.00    -0.319 NA
HETATM   13  N5  UNL     1      26.440   2.111  52.427  1.00  0.00    -0.226 N 
HETATM   14  C15 UNL     1      25.634   2.824  51.464  1.00  0.00     0.201 A 
HETATM   15  H16 UNL     1      29.609   1.147  55.472  1.00  0.00     0.167 HD
ENDROOT
BRANCH   1  16
HETATM   16  C4  UNL     1      23.366   1.640  50.908  1.00  0.00     0.155 C 
BRANCH  16  17
HETATM   17  N2  UNL     1      22.631   2.840  50.931  1.00  0.00    -0.408 N 
HETATM   18  C3  UNL     1      22.054   3.301  52.116  1.00  0.00     0.119 C 
HETATM   19  C2  UNL     1      22.355   4.772  52.410  1.00  0.00     0.055 C 
HETATM   20  C1  UNL     1      21.800   5.526  51.238  1.00  0.00     0.221 C 
HETATM   21  C17 UNL     1      22.247   5.049  49.906  1.00  0.00     0.055 C 
HETATM   22  C16 UNL     1      22.485   3.589  49.757  1.00  0.00     0.119 C 
BRANCH  20  23
HETATM   23  N1  UNL     1      22.223   6.915  51.392  1.00  0.00     0.083 N 
HETATM   24  H1  UNL     1      23.247   7.013  51.325  1.00  0.00     0.313 HD
HETATM   25  H2  UNL     1      21.785   7.358  52.230  1.00  0.00     0.313 HD
ENDBRANCH  20  23
ENDBRANCH  16  17
ENDBRANCH   1  16
TORSDOF 3
ENDMDL
MODEL 3
REMARK VINA RESULT:      -7.7      2.045      7.103
REMARK  3 active torsions:
REMARK  status: ('A' for Active; 'I' for Inactive)
REMARK    1  A    between atoms: N1_1  and  C1_2 
REMARK    2  A    between atoms: N2_5  and  C4_6 
REMARK    3  A    between atoms: C4_6  and  C5_7 
ROOT
HETATM    1  C5  UNL     1      23.134  -0.773  54.391  1.00  0.00    -0.017 A 
HETATM    2  C6  UNL     1      22.569   0.126  53.569  1.00  0.00     0.051 A 
HETATM    3  C7  UNL     1      23.008   1.427  52.856  1.00  0.00     0.099 C 
HETATM    4  C8  UNL     1      22.219   1.499  51.603  1.00  0.00    -0.050 A 
HETATM    5  C9  UNL     1      22.536   1.467  50.272  1.00  0.00     0.007 A 
HETATM    6  C10 UNL     1      21.491   1.325  49.389  1.00  0.00     0.003 A 
HETATM    7  C11 UNL     1      20.181   1.213  49.789  1.00  0.00     0.029 A 
HETATM    8  C12 UNL     1      19.913   1.251  51.136  1.00  0.00     0.034 A 
HETATM    9  C13 UNL     1      20.936   1.405  52.075  1.00  0.00     0.037 A 
HETATM   10  N3  UNL     1      18.669   0.961  51.849  1.00  0.00    -0.340 N 
HETATM   11  C14 UNL     1      19.072  -0.252  52.609  1.00  0.00     0.302 C 
HETATM   12  N4  UNL     1      20.174  -0.390  53.078  1.00  0.00    -0.319 NA
HETATM   13  N5  UNL     1      21.316  -0.632  53.615  1.00  0.00    -0.226 N 
HETATM   14  C15 UNL     1      21.951  -1.624  54.449  1.00  0.00     0.201 A 
HETATM   15  H16 UNL     1      18.182   1.753  51.439  1.00  0.00     0.167 HD
ENDROOT
BRANCH   1  16
HETATM   16  C4  UNL     1      24.429  -1.047  55.071  1.00  0.00     0.155 C 
BRANCH  16  17
HETATM   17  N2  UNL     1      25.546  -0.598  54.345  1.00  0.00    -0.408 N 
HETATM   18  C3  UNL     1      26.321   0.466  54.812  1.00  0.00     0.119 C 
HETATM   19  C2  UNL     1      27.823   0.175  54.810  1.00  0.00     0.055 C 
HETATM   20  C1  UNL     1      28.161  -0.120  53.378  1.00  0.00     0.221 C 
HETATM   21  C17 UNL     1      27.322  -1.156  52.727  1.00  0.00     0.055 C 
HETATM   22  C16 UNL     1      25.896  -1.229  53.145  1.00  0.00     0.119 C 
BRANCH  20  23
HETATM   23  N1  UNL     1      29.548  -0.577  53.358  1.00  0.00     0.083 N 
HETATM   24  H1  UNL     1      29.858  -0.816  52.404  1.00  0.00     0.313 HD
HETATM   25  H2  UNL     1      29.720  -1.310  54.081  1.00  0.00     0.313 HD
ENDBRANCH  20  23
ENDBRANCH  16  17
ENDBRANCH   1  16
TORSDOF 3
ENDMDL
MODEL 4
REMARK VINA RESULT:      -7.6      2.371      3.311
REMARK  3 active torsions:
REMARK  status: ('A' for Active; 'I' for Inactive)
REMARK    1  A    between atoms: N1_1  and  C1_2 
REMARK    2  A    between atoms: N2_5  and  C4_6 
REMARK    3  A    between atoms: C4_6  and  C5_7 
ROOT
HETATM    1  C5  UNL     1      24.940   3.661  49.947  1.00  0.00    -0.017 A 
HETATM    2  C6  UNL     1      24.873   3.145  51.184  1.00  0.00     0.051 A 
HETATM    3  C7  UNL     1      23.773   2.910  52.246  1.00  0.00     0.099 C 
HETATM    4  C8  UNL     1      24.184   1.709  53.011  1.00  0.00    -0.050 A 
HETATM    5  C9  UNL     1      23.658   0.456  53.175  1.00  0.00     0.007 A 
HETATM    6  C10 UNL     1      24.460  -0.478  53.789  1.00  0.00     0.003 A 
HETATM    7  C11 UNL     1      25.734  -0.201  54.223  1.00  0.00     0.029 A 
HETATM    8  C12 UNL     1      26.218   1.071  54.036  1.00  0.00     0.034 A 
HETATM    9  C13 UNL     1      25.440   2.060  53.429  1.00  0.00     0.037 A 
HETATM   10  N3  UNL     1      27.574   1.589  54.209  1.00  0.00    -0.340 N 
HETATM   11  C14 UNL     1      27.910   1.938  52.803  1.00  0.00     0.302 C 
HETATM   12  N4  UNL     1      27.100   2.393  52.034  1.00  0.00    -0.319 NA
HETATM   13  N5  UNL     1      26.314   2.881  51.142  1.00  0.00    -0.226 N 
HETATM   14  C15 UNL     1      26.362   3.384  49.790  1.00  0.00     0.201 A 
HETATM   15  H16 UNL     1      27.569   1.431  55.213  1.00  0.00     0.167 HD
ENDROOT
BRANCH   1  16
HETATM   16  C4  UNL     1      24.063   4.282  48.917  1.00  0.00     0.155 C 
BRANCH  16  17
HETATM   17  N2  UNL     1      22.803   3.666  48.812  1.00  0.00    -0.408 N 
HETATM   18  C3  UNL     1      22.650   2.467  48.113  1.00  0.00     0.119 C 
HETATM   19  C2  UNL     1      21.877   1.400  48.891  1.00  0.00     0.055 C 
HETATM   20  C1  UNL     1      20.535   2.013  49.165  1.00  0.00     0.221 C 
HETATM   21  C17 UNL     1      20.566   3.352  49.802  1.00  0.00     0.055 C 
HETATM   22  C16 UNL     1      21.688   4.252  49.425  1.00  0.00     0.119 C 
BRANCH  20  23
HETATM   23  N1  UNL     1      19.829   1.098  50.059  1.00  0.00     0.083 N 
HETATM   24  H1  UNL     1      20.125   0.121  49.918  1.00  0.00     0.313 HD
HETATM   25  H2  UNL     1      18.798   1.261  50.037  1.00  0.00     0.313 HD
ENDBRANCH  20  23
ENDBRANCH  16  17
ENDBRANCH   1  16
TORSDOF 3
ENDMDL
MODEL 5
REMARK VINA RESULT:      -7.6      2.397      4.367
REMARK  3 active torsions:
REMARK  status: ('A' for Active; 'I' for Inactive)
REMARK    1  A    between atoms: N1_1  and  C1_2 
REMARK    2  A    between atoms: N2_5  and  C4_6 
REMARK    3  A    between atoms: C4_6  and  C5_7 
ROOT
HETATM    1  C5  UNL     1      23.645   1.989  52.541  1.00  0.00    -0.017 A 
HETATM    2  C6  UNL     1      24.943   1.681  52.390  1.00  0.00     0.051 A 
HETATM    3  C7  UNL     1      26.208   2.383  51.842  1.00  0.00     0.099 C 
HETATM    4  C8  UNL     1      27.352   1.832  52.606  1.00  0.00    -0.050 A 
HETATM    5  C9  UNL     1      28.262   2.363  53.479  1.00  0.00     0.007 A 
HETATM    6  C10 UNL     1      29.048   1.474  54.175  1.00  0.00     0.003 A 
HETATM    7  C11 UNL     1      28.946   0.111  54.028  1.00  0.00     0.029 A 
HETATM    8  C12 UNL     1      28.017  -0.375  53.140  1.00  0.00     0.034 A 
HETATM    9  C13 UNL     1      27.203   0.486  52.400  1.00  0.00     0.037 A 
HETATM   10  N3  UNL     1      27.557  -1.746  52.929  1.00  0.00    -0.340 N 
HETATM   11  C14 UNL     1      26.139  -1.624  53.363  1.00  0.00     0.302 C 
HETATM   12  N4  UNL     1      25.475  -0.641  53.147  1.00  0.00    -0.319 NA
HETATM   13  N5  UNL     1      24.687   0.358  52.966  1.00  0.00    -0.226 N 
HETATM   14  C15 UNL     1      23.307   0.722  53.178  1.00  0.00     0.201 A 
HETATM   15  H16 UNL     1      28.463  -2.061  52.594  1.00  0.00     0.167 HD
ENDROOT
BRANCH   1  16
HETATM   16  C4  UNL     1      22.697   3.109  52.290  1.00  0.00     0.155 C 
BRANCH  16  17
HETATM   17  N2  UNL     1      23.083   3.936  51.220  1.00  0.00    -0.408 N 
HETATM   18  C3  UNL     1      23.399   5.279  51.434  1.00  0.00     0.119 C 
HETATM   19  C2  UNL     1      24.721   5.706  50.793  1.00  0.00     0.055 C 
HETATM   20  C1  UNL     1      24.544   5.445  49.326  1.00  0.00     0.221 C 
HETATM   21  C17 UNL     1      24.091   4.077  48.974  1.00  0.00     0.055 C 
HETATM   22  C16 UNL     1      23.164   3.408  49.925  1.00  0.00     0.119 C 
BRANCH  20  23
HETATM   23  N1  UNL     1      25.844   5.671  48.698  1.00  0.00     0.083 N 
HETATM   24  H1  UNL     1      25.874   6.568  48.191  1.00  0.00     0.313 HD
HETATM   25  H2  UNL     1      26.154   4.838  48.151  1.00  0.00     0.313 HD
ENDBRANCH  20  23
ENDBRANCH  16  17
ENDBRANCH   1  16
TORSDOF 3
ENDMDL
MODEL 6
REMARK VINA RESULT:      -7.5      1.959      6.638
REMARK  3 active torsions:
REMARK  status: ('A' for Active; 'I' for Inactive)
REMARK    1  A    between atoms: N1_1  and  C1_2 
REMARK    2  A    between atoms: N2_5  and  C4_6 
REMARK    3  A    between atoms: C4_6  and  C5_7 
ROOT
HETATM    1  C5  UNL     1      23.678   2.642  52.625  1.00  0.00    -0.017 A 
HETATM    2  C6  UNL     1      22.824   1.671  52.266  1.00  0.00     0.051 A 
HETATM    3  C7  UNL     1      22.657   0.159  52.552  1.00  0.00     0.099 C 
HETATM    4  C8  UNL     1      21.203  -0.119  52.475  1.00  0.00    -0.050 A 
HETATM    5  C9  UNL     1      20.262  -0.537  53.377  1.00  0.00     0.007 A 
HETATM    6  C10 UNL     1      18.947  -0.458  52.983  1.00  0.00     0.003 A 
HETATM    7  C11 UNL     1      18.561   0.017  51.753  1.00  0.00     0.029 A 
HETATM    8  C12 UNL     1      19.541   0.426  50.882  1.00  0.00     0.034 A 
HETATM    9  C13 UNL     1      20.893   0.355  51.228  1.00  0.00     0.037 A 
HETATM   10  N3  UNL     1      19.424   1.145  49.614  1.00  0.00    -0.340 N 
HETATM   11  C14 UNL     1      20.094   2.425  49.969  1.00  0.00     0.302 C 
HETATM   12  N4  UNL     1      21.055   2.477  50.695  1.00  0.00    -0.319 NA
HETATM   13  N5  UNL     1      22.079   2.638  51.456  1.00  0.00    -0.226 N 
HETATM   14  C15 UNL     1      22.968   3.686  51.896  1.00  0.00     0.201 A 
HETATM   15  H16 UNL     1      18.938   0.379  49.157  1.00  0.00     0.167 HD
ENDROOT
BRANCH   1  16
HETATM   16  C4  UNL     1      24.898   2.845  53.453  1.00  0.00     0.155 C 
BRANCH  16  17
HETATM   17  N2  UNL     1      25.855   1.826  53.295  1.00  0.00    -0.408 N 
HETATM   18  C3  UNL     1      26.431   1.209  54.407  1.00  0.00     0.119 C 
HETATM   19  C2  UNL     1      26.411  -0.319  54.335  1.00  0.00     0.055 C 
HETATM   20  C1  UNL     1      27.186  -0.661  53.097  1.00  0.00     0.221 C 
HETATM   21  C17 UNL     1      26.744   0.029  51.860  1.00  0.00     0.055 C 
HETATM   22  C16 UNL     1      26.229   1.416  52.009  1.00  0.00     0.119 C 
BRANCH  20  23
HETATM   23  N1  UNL     1      27.041  -2.101  52.893  1.00  0.00     0.083 N 
HETATM   24  H1  UNL     1      27.803  -2.630  53.343  1.00  0.00     0.313 HD
HETATM   25  H2  UNL     1      26.870  -2.330  51.889  1.00  0.00     0.313 HD
ENDBRANCH  20  23
ENDBRANCH  16  17
ENDBRANCH   1  16
TORSDOF 3
ENDMDL
MODEL 7
REMARK VINA RESULT:      -7.5      3.255      5.551
REMARK  3 active torsions:
REMARK  status: ('A' for Active; 'I' for Inactive)
REMARK    1  A    between atoms: N1_1  and  C1_2 
REMARK    2  A    between atoms: N2_5  and  C4_6 
REMARK    3  A    between atoms: C4_6  and  C5_7 
ROOT
HETATM    1  C5  UNL     1      25.439   3.610  50.208  1.00  0.00    -0.017 A 
HETATM    2  C6  UNL     1      25.221   3.061  51.413  1.00  0.00     0.051 A 
HETATM    3  C7  UNL     1      24.048   2.987  52.420  1.00  0.00     0.099 C 
HETATM    4  C8  UNL     1      24.197   1.699  53.136  1.00  0.00    -0.050 A 
HETATM    5  C9  UNL     1      23.444   0.558  53.216  1.00  0.00     0.007 A 
HETATM    6  C10 UNL     1      24.032  -0.534  53.810  1.00  0.00     0.003 A 
HETATM    7  C11 UNL     1      25.314  -0.517  54.305  1.00  0.00     0.029 A 
HETATM    8  C12 UNL     1      26.030   0.650  54.202  1.00  0.00     0.034 A 
HETATM    9  C13 UNL     1      25.475   1.792  53.618  1.00  0.00     0.037 A 
HETATM   10  N3  UNL     1      27.449   0.900  54.453  1.00  0.00    -0.340 N 
HETATM   11  C14 UNL     1      27.908   1.243  53.080  1.00  0.00     0.302 C 
HETATM   12  N4  UNL     1      27.231   1.874  52.306  1.00  0.00    -0.319 NA
HETATM   13  N5  UNL     1      26.590   2.537  51.412  1.00  0.00    -0.226 N 
HETATM   14  C15 UNL     1      26.792   3.081  50.090  1.00  0.00     0.201 A 
HETATM   15  H16 UNL     1      27.369   0.702  55.446  1.00  0.00     0.167 HD
ENDROOT
BRANCH   1  16
HETATM   16  C4  UNL     1      24.739   4.427  49.179  1.00  0.00     0.155 C 
BRANCH  16  17
HETATM   17  N2  UNL     1      25.121   5.781  49.187  1.00  0.00    -0.408 N 
HETATM   18  C3  UNL     1      24.362   6.733  49.869  1.00  0.00     0.119 C 
HETATM   19  C2  UNL     1      25.193   7.638  50.781  1.00  0.00     0.055 C 
HETATM   20  C1  UNL     1      26.173   8.316  49.869  1.00  0.00     0.221 C 
HETATM   21  C17 UNL     1      26.962   7.410  48.998  1.00  0.00     0.055 C 
HETATM   22  C16 UNL     1      26.282   6.180  48.513  1.00  0.00     0.119 C 
BRANCH  20  23
HETATM   23  N1  UNL     1      27.102   9.053  50.722  1.00  0.00     0.083 N 
HETATM   24  H1  UNL     1      28.002   8.561  50.822  1.00  0.00     0.313 HD
HETATM   25  H2  UNL     1      26.650   9.346  51.617  1.00  0.00     0.313 HD
ENDBRANCH  20  23
ENDBRANCH  16  17
ENDBRANCH   1  16
TORSDOF 3
ENDMDL
MODEL 8
REMARK VINA RESULT:      -7.5      2.027      2.893
REMARK  3 active torsions:
REMARK  status: ('A' for Active; 'I' for Inactive)
REMARK    1  A    between atoms: N1_1  and  C1_2 
REMARK    2  A    between atoms: N2_5  and  C4_6 
REMARK    3  A    between atoms: C4_6  and  C5_7 
ROOT
HETATM    1  C5  UNL     1      23.856   2.193  52.392  1.00  0.00    -0.017 A 
HETATM    2  C6  UNL     1      25.143   1.821  52.303  1.00  0.00     0.051 A 
HETATM    3  C7  UNL     1      26.464   2.453  51.803  1.00  0.00     0.099 C 
HETATM    4  C8  UNL     1      27.545   1.860  52.625  1.00  0.00    -0.050 A 
HETATM    5  C9  UNL     1      28.441   2.361  53.530  1.00  0.00     0.007 A 
HETATM    6  C10 UNL     1      29.151   1.447  54.273  1.00  0.00     0.003 A 
HETATM    7  C11 UNL     1      28.989   0.088  54.141  1.00  0.00     0.029 A 
HETATM    8  C12 UNL     1      28.078  -0.367  53.219  1.00  0.00     0.034 A 
HETATM    9  C13 UNL     1      27.340   0.520  52.432  1.00  0.00     0.037 A 
HETATM   10  N3  UNL     1      27.561  -1.718  53.006  1.00  0.00    -0.340 N 
HETATM   11  C14 UNL     1      26.134  -1.521  53.375  1.00  0.00     0.302 C 
HETATM   12  N4  UNL     1      25.528  -0.511  53.116  1.00  0.00    -0.319 NA
HETATM   13  N5  UNL     1      24.798   0.522  52.886  1.00  0.00    -0.226 N 
HETATM   14  C15 UNL     1      23.429   0.955  53.031  1.00  0.00     0.201 A 
HETATM   15  H16 UNL     1      28.465  -2.081  52.717  1.00  0.00     0.167 HD
ENDROOT
BRANCH   1  16
HETATM   16  C4  UNL     1      22.977   3.353  52.083  1.00  0.00     0.155 C 
BRANCH  16  17
HETATM   17  N2  UNL     1      21.733   2.981  51.541  1.00  0.00    -0.408 N 
HETATM   18  C3  UNL     1      21.650   2.415  50.268  1.00  0.00     0.119 C 
HETATM   19  C2  UNL     1      20.805   1.139  50.220  1.00  0.00     0.055 C 
HETATM   20  C1  UNL     1      19.443   1.557  50.689  1.00  0.00     0.221 C 
HETATM   21  C17 UNL     1      19.410   2.282  51.983  1.00  0.00     0.055 C 
HETATM   22  C16 UNL     1      20.563   3.170  52.288  1.00  0.00     0.119 C 
BRANCH  20  23
HETATM   23  N1  UNL     1      18.653   0.336  50.830  1.00  0.00     0.083 N 
HETATM   24  H1  UNL     1      18.916  -0.195  51.673  1.00  0.00     0.313 HD
HETATM   25  H2  UNL     1      18.638  -0.214  49.942  1.00  0.00     0.313 HD
ENDBRANCH  20  23
ENDBRANCH  16  17
ENDBRANCH   1  16
TORSDOF 3
ENDMDL
MODEL 9
REMARK VINA RESULT:      -7.2      9.094     10.594
REMARK  3 active torsions:
REMARK  status: ('A' for Active; 'I' for Inactive)
REMARK    1  A    between atoms: N1_1  and  C1_2 
REMARK    2  A    between atoms: N2_5  and  C4_6 
REMARK    3  A    between atoms: C4_6  and  C5_7 
ROOT
HETATM    1  C5  UNL     1      32.121   8.469  47.103  1.00  0.00    -0.017 A 
HETATM    2  C6  UNL     1      32.352   7.178  47.393  1.00  0.00     0.051 A 
HETATM    3  C7  UNL     1      31.576   5.844  47.278  1.00  0.00     0.099 C 
HETATM    4  C8  UNL     1      32.595   4.788  47.074  1.00  0.00    -0.050 A 
HETATM    5  C9  UNL     1      32.883   3.924  46.052  1.00  0.00     0.007 A 
HETATM    6  C10 UNL     1      34.069   3.234  46.138  1.00  0.00     0.003 A 
HETATM    7  C11 UNL     1      34.950   3.386  47.183  1.00  0.00     0.029 A 
HETATM    8  C12 UNL     1      34.618   4.266  48.184  1.00  0.00     0.034 A 
HETATM    9  C13 UNL     1      33.418   4.982  48.151  1.00  0.00     0.037 A 
HETATM   10  N3  UNL     1      35.429   4.770  49.291  1.00  0.00    -0.340 N 
HETATM   11  C14 UNL     1      35.516   6.210  48.925  1.00  0.00     0.302 C 
HETATM   12  N4  UNL     1      34.599   6.810  48.423  1.00  0.00    -0.319 NA
HETATM   13  N5  UNL     1      33.683   7.537  47.888  1.00  0.00    -0.226 N 
HETATM   14  C15 UNL     1      33.447   8.911  47.517  1.00  0.00     0.201 A 
HETATM   15  H16 UNL     1      35.506   3.857  49.728  1.00  0.00     0.167 HD
ENDROOT
BRANCH   1  16
HETATM   16  C4  UNL     1      31.057   9.342  46.539  1.00  0.00     0.155 C 
BRANCH  16  17
HETATM   17  N2  UNL     1      29.809   9.179  47.169  1.00  0.00    -0.408 N 
HETATM   18  C3  UNL     1      28.787   8.457  46.551  1.00  0.00     0.119 C 
HETATM   19  C2  UNL     1      28.141   7.410  47.462  1.00  0.00     0.055 C 
HETATM   20  C1  UNL     1      27.595   8.188  48.623  1.00  0.00     0.221 C 
HETATM   21  C17 UNL     1      28.562   9.091  49.294  1.00  0.00     0.055 C 
HETATM   22  C16 UNL     1      29.591   9.735  48.435  1.00  0.00     0.119 C 
BRANCH  20  23
HETATM   23  N1  UNL     1      27.128   7.210  49.602  1.00  0.00     0.083 N 
HETATM   24  H1  UNL     1      26.709   7.665  50.428  1.00  0.00     0.313 HD
HETATM   25  H2  UNL     1      27.860   6.495  49.809  1.00  0.00     0.313 HD
ENDBRANCH  20  23
ENDBRANCH  16  17
ENDBRANCH   1  16
TORSDOF 3
ENDMDL
