MODEL 1
REMARK VINA RESULT:      -8.4      0.000      0.000
REMARK  4 active torsions:
REMARK  status: ('A' for Active; 'I' for Inactive)
REMARK       I    between atoms: N1_2  and  C2_3 
REMARK       I    between atoms: C2_3  and  N2_5 
REMARK    1  A    between atoms: N2_5  and  C3_6 
REMARK    2  A    between atoms: C5_8  and  O2_9 
REMARK    3  A    between atoms: O2_9  and  C6_10 
REMARK    4  A    between atoms: C13_20  and  O3_21 
ROOT
HETATM    1  C6  UNL     1      22.061  -0.266  53.849  1.00  0.00     0.183 A 
HETATM    2  N3  UNL     1      21.864  -1.074  54.907  1.00  0.00    -0.217 NA
HETATM    3  C7  UNL     1      22.917  -1.552  55.577  1.00  0.00     0.236 A 
HETATM    4  N4  UNL     1      24.224  -1.299  55.291  1.00  0.00    -0.241 NA
HETATM    5  C8  UNL     1      24.430  -0.482  54.221  1.00  0.00     0.075 A 
HETATM    6  C9  UNL     1      23.378   0.038  53.496  1.00  0.00     0.046 A 
HETATM    7  C10 UNL     1      23.280   0.915  52.335  1.00  0.00     0.025 C 
HETATM    8  C11 UNL     1      24.062   1.653  51.563  1.00  0.00     0.046 C 
HETATM    9  S1  UNL     1      25.847   1.872  51.702  1.00  0.00    -0.135 SA
HETATM   10  C12 UNL     1      26.658   0.235  51.776  1.00  0.00     0.143 C 
HETATM   11  C13 UNL     1      26.793  -0.105  53.217  1.00  0.00     0.057 C 
HETATM   12  C15 UNL     1      25.883  -0.380  54.139  1.00  0.00     0.065 C 
ENDROOT
BRANCH   1  13
HETATM   13  O2  UNL     1      21.061   0.297  53.067  1.00  0.00    -0.291 OA
BRANCH  13  14
HETATM   14  C5  UNL     1      19.803  -0.244  52.897  1.00  0.00     0.076 A 
HETATM   15  C4  UNL     1      18.998  -1.211  53.633  1.00  0.00     0.062 A 
HETATM   16  C3  UNL     1      17.844  -1.349  52.990  1.00  0.00     0.020 A 
HETATM   17  C17 UNL     1      17.792  -0.486  51.781  1.00  0.00     0.087 A 
HETATM   18  C16 UNL     1      19.124   0.174  51.841  1.00  0.00     0.016 A 
BRANCH  16  19
HETATM   19  N2  UNL     1      16.797  -2.199  53.390  1.00  0.00    -0.312 N 
HETATM   20  C2  UNL     1      16.725  -3.603  53.465  1.00  0.00     0.320 C 
HETATM   21  N1  UNL     1      15.531  -4.250  53.908  1.00  0.00    -0.347 N 
HETATM   22  O1  UNL     1      17.643  -4.412  53.172  1.00  0.00    -0.247 OA
HETATM   23  C1  UNL     1      15.531  -5.709  53.961  1.00  0.00     0.151 C 
HETATM   24  H4  UNL     1      14.678  -3.700  54.188  1.00  0.00     0.163 HD
HETATM   25  H5  UNL     1      15.937  -1.652  53.671  1.00  0.00     0.170 HD
ENDBRANCH  16  19
ENDBRANCH  13  14
ENDBRANCH   1  13
BRANCH  11  26
HETATM   26  O3  UNL     1      28.120  -0.123  53.606  1.00  0.00    -0.359 OA
HETATM   27  C14 UNL     1      28.606   0.181  54.881  1.00  0.00     0.209 C 
ENDBRANCH  11  26
TORSDOF 4
ENDMDL
MODEL 2
REMARK VINA RESULT:      -8.3      5.769     10.474
REMARK  4 active torsions:
REMARK  status: ('A' for Active; 'I' for Inactive)
REMARK       I    between atoms: N1_2  and  C2_3 
REMARK       I    between atoms: C2_3  and  N2_5 
REMARK    1  A    between atoms: N2_5  and  C3_6 
REMARK    2  A    between atoms: C5_8  and  O2_9 
REMARK    3  A    between atoms: O2_9  and  C6_10 
REMARK    4  A    between atoms: C13_20  and  O3_21 
ROOT
HETATM    1  C6  UNL     1      25.840   2.779  50.852  1.00  0.00     0.183 A 
HETATM    2  N3  UNL     1      27.060   2.662  51.407  1.00  0.00    -0.217 NA
HETATM    3  C7  UNL     1      27.243   1.819  52.428  1.00  0.00     0.236 A 
HETATM    4  N4  UNL     1      26.285   1.033  52.991  1.00  0.00    -0.241 NA
HETATM    5  C8  UNL     1      25.048   1.146  52.435  1.00  0.00     0.075 A 
HETATM    6  C9  UNL     1      24.807   2.001  51.379  1.00  0.00     0.046 A 
HETATM    7  C10 UNL     1      23.626   2.334  50.592  1.00  0.00     0.025 C 
HETATM    8  C11 UNL     1      22.370   1.939  50.444  1.00  0.00     0.046 C 
HETATM    9  S1  UNL     1      21.529   0.609  51.326  1.00  0.00    -0.135 SA
HETATM   10  C12 UNL     1      21.750   0.838  53.127  1.00  0.00     0.143 C 
HETATM   11  C13 UNL     1      22.954   0.054  53.509  1.00  0.00     0.057 C 
HETATM   12  C15 UNL     1      24.233   0.217  53.210  1.00  0.00     0.065 C 
ENDROOT
BRANCH   1  13
HETATM   13  O2  UNL     1      25.513   3.613  49.791  1.00  0.00    -0.291 OA
BRANCH  13  14
HETATM   14  C5  UNL     1      26.330   4.611  49.300  1.00  0.00     0.076 A 
HETATM   15  C4  UNL     1      27.640   4.638  48.661  1.00  0.00     0.062 A 
HETATM   16  C3  UNL     1      27.935   5.905  48.398  1.00  0.00     0.020 A 
HETATM   17  C17 UNL     1      26.848   6.817  48.839  1.00  0.00     0.087 A 
HETATM   18  C16 UNL     1      25.871   5.847  49.405  1.00  0.00     0.016 A 
BRANCH  16  19
HETATM   19  N2  UNL     1      29.121   6.344  47.781  1.00  0.00    -0.312 N 
HETATM   20  C2  UNL     1      30.471   6.147  48.131  1.00  0.00     0.320 C 
HETATM   21  N1  UNL     1      31.519   6.702  47.336  1.00  0.00    -0.347 N 
HETATM   22  O1  UNL     1      30.896   5.500  49.123  1.00  0.00    -0.247 OA
HETATM   23  C1  UNL     1      32.895   6.456  47.761  1.00  0.00     0.151 C 
HETATM   24  H4  UNL     1      31.315   7.269  46.473  1.00  0.00     0.163 HD
HETATM   25  H5  UNL     1      28.923   6.915  46.915  1.00  0.00     0.170 HD
ENDBRANCH  16  19
ENDBRANCH  13  14
ENDBRANCH   1  13
BRANCH  11  26
HETATM   26  O3  UNL     1      22.619  -1.019  54.316  1.00  0.00    -0.359 OA
HETATM   27  C14 UNL     1      21.347  -1.581  54.447  1.00  0.00     0.209 C 
ENDBRANCH  11  26
TORSDOF 4
ENDMDL
MODEL 3
REMARK VINA RESULT:      -8.1      3.723      8.771
REMARK  4 active torsions:
REMARK  status: ('A' for Active; 'I' for Inactive)
REMARK       I    between atoms: N1_2  and  C2_3 
REMARK       I    between atoms: C2_3  and  N2_5 
REMARK    1  A    between atoms: N2_5  and  C3_6 
REMARK    2  A    between atoms: C5_8  and  O2_9 
REMARK    3  A    between atoms: O2_9  and  C6_10 
REMARK    4  A    between atoms: C13_20  and  O3_21 
ROOT
HETATM    1  C6  UNL     1      20.741   1.059  52.514  1.00  0.00     0.183 A 
HETATM    2  N3  UNL     1      21.490   2.177  52.527  1.00  0.00    -0.217 NA
HETATM    3  C7  UNL     1      20.926   3.353  52.236  1.00  0.00     0.236 A 
HETATM    4  N4  UNL     1      19.618   3.549  51.911  1.00  0.00    -0.241 NA
HETATM    5  C8  UNL     1      18.855   2.422  51.895  1.00  0.00     0.075 A 
HETATM    6  C9  UNL     1      19.389   1.184  52.190  1.00  0.00     0.046 A 
HETATM    7  C10 UNL     1      18.844  -0.167  52.254  1.00  0.00     0.025 C 
HETATM    8  C11 UNL     1      17.675  -0.786  52.184  1.00  0.00     0.046 C 
HETATM    9  S1  UNL     1      16.053  -0.037  51.937  1.00  0.00    -0.135 SA
HETATM   10  C12 UNL     1      16.103   1.058  50.473  1.00  0.00     0.143 C 
HETATM   11  C13 UNL     1      16.429   2.419  50.975  1.00  0.00     0.057 C 
HETATM   12  C15 UNL     1      17.529   2.907  51.527  1.00  0.00     0.065 C 
ENDROOT
BRANCH   1  13
HETATM   13  O2  UNL     1      21.198  -0.221  52.796  1.00  0.00    -0.291 OA
BRANCH  13  14
HETATM   14  C5  UNL     1      22.319  -0.503  53.551  1.00  0.00     0.076 A 
HETATM   15  C4  UNL     1      23.755  -0.418  53.320  1.00  0.00     0.062 A 
HETATM   16  C3  UNL     1      24.367  -0.830  54.424  1.00  0.00     0.020 A 
HETATM   17  C17 UNL     1      23.389  -1.219  55.472  1.00  0.00     0.087 A 
HETATM   18  C16 UNL     1      22.101  -0.958  54.774  1.00  0.00     0.016 A 
BRANCH  16  19
HETATM   19  N2  UNL     1      25.762  -0.895  54.593  1.00  0.00    -0.312 N 
HETATM   20  C2  UNL     1      26.741   0.118  54.601  1.00  0.00     0.320 C 
HETATM   21  N1  UNL     1      28.119  -0.200  54.794  1.00  0.00    -0.347 N 
HETATM   22  O1  UNL     1      26.536   1.350  54.449  1.00  0.00    -0.247 OA
HETATM   23  C1  UNL     1      29.076   0.904  54.790  1.00  0.00     0.151 C 
HETATM   24  H4  UNL     1      28.441  -1.192  54.935  1.00  0.00     0.163 HD
HETATM   25  H5  UNL     1      26.092  -1.889  54.735  1.00  0.00     0.170 HD
ENDBRANCH  16  19
ENDBRANCH  13  14
ENDBRANCH   1  13
BRANCH  11  26
HETATM   26  O3  UNL     1      15.362   3.284  50.809  1.00  0.00    -0.359 OA
HETATM   27  C14 UNL     1      14.721   4.000  51.824  1.00  0.00     0.209 C 
ENDBRANCH  11  26
TORSDOF 4
ENDMDL
MODEL 4
REMARK VINA RESULT:      -7.7      6.217     10.597
REMARK  4 active torsions:
REMARK  status: ('A' for Active; 'I' for Inactive)
REMARK       I    between atoms: N1_2  and  C2_3 
REMARK       I    between atoms: C2_3  and  N2_5 
REMARK    1  A    between atoms: N2_5  and  C3_6 
REMARK    2  A    between atoms: C5_8  and  O2_9 
REMARK    3  A    between atoms: O2_9  and  C6_10 
REMARK    4  A    between atoms: C13_20  and  O3_21 
ROOT
HETATM    1  C6  UNL     1      25.885   2.905  50.696  1.00  0.00     0.183 A 
HETATM    2  N3  UNL     1      27.086   2.827  51.296  1.00  0.00    -0.217 NA
HETATM    3  C7  UNL     1      27.238   2.041  52.367  1.00  0.00     0.236 A 
HETATM    4  N4  UNL     1      26.265   1.281  52.941  1.00  0.00    -0.241 NA
HETATM    5  C8  UNL     1      25.047   1.355  52.338  1.00  0.00     0.075 A 
HETATM    6  C9  UNL     1      24.838   2.150  51.229  1.00  0.00     0.046 A 
HETATM    7  C10 UNL     1      23.682   2.433  50.386  1.00  0.00     0.025 C 
HETATM    8  C11 UNL     1      22.434   2.022  50.218  1.00  0.00     0.046 C 
HETATM    9  S1  UNL     1      21.570   0.737  51.143  1.00  0.00    -0.135 SA
HETATM   10  C12 UNL     1      21.729   1.065  52.935  1.00  0.00     0.143 C 
HETATM   11  C13 UNL     1      22.923   0.310  53.399  1.00  0.00     0.057 C 
HETATM   12  C15 UNL     1      24.210   0.464  53.134  1.00  0.00     0.065 C 
ENDROOT
BRANCH   1  13
HETATM   13  O2  UNL     1      25.590   3.678  49.581  1.00  0.00    -0.291 OA
BRANCH  13  14
HETATM   14  C5  UNL     1      26.295   4.802  49.198  1.00  0.00     0.076 A 
HETATM   15  C4  UNL     1      26.025   6.234  49.221  1.00  0.00     0.062 A 
HETATM   16  C3  UNL     1      27.086   6.853  48.717  1.00  0.00     0.020 A 
HETATM   17  C17 UNL     1      28.141   5.883  48.322  1.00  0.00     0.087 A 
HETATM   18  C16 UNL     1      27.497   4.593  48.689  1.00  0.00     0.016 A 
BRANCH  16  19
HETATM   19  N2  UNL     1      27.211   8.246  48.569  1.00  0.00    -0.312 N 
HETATM   20  C2  UNL     1      28.279   9.115  48.864  1.00  0.00     0.320 C 
HETATM   21  N1  UNL     1      28.167  10.518  48.624  1.00  0.00    -0.347 N 
HETATM   22  O1  UNL     1      29.395   8.785  49.344  1.00  0.00    -0.247 OA
HETATM   23  C1  UNL     1      29.317  11.356  48.954  1.00  0.00     0.151 C 
HETATM   24  H4  UNL     1      27.290  10.939  48.223  1.00  0.00     0.163 HD
HETATM   25  H5  UNL     1      26.332   8.676  48.168  1.00  0.00     0.170 HD
ENDBRANCH  16  19
ENDBRANCH  13  14
ENDBRANCH   1  13
BRANCH  11  26
HETATM   26  O3  UNL     1      22.566  -0.719  54.252  1.00  0.00    -0.359 OA
HETATM   27  C14 UNL     1      21.310  -1.327  54.324  1.00  0.00     0.209 C 
ENDBRANCH  11  26
TORSDOF 4
ENDMDL
MODEL 5
REMARK VINA RESULT:      -7.6      6.292     10.370
REMARK  4 active torsions:
REMARK  status: ('A' for Active; 'I' for Inactive)
REMARK       I    between atoms: N1_2  and  C2_3 
REMARK       I    between atoms: C2_3  and  N2_5 
REMARK    1  A    between atoms: N2_5  and  C3_6 
REMARK    2  A    between atoms: C5_8  and  O2_9 
REMARK    3  A    between atoms: O2_9  and  C6_10 
REMARK    4  A    between atoms: C13_20  and  O3_21 
ROOT
HETATM    1  C6  UNL     1      25.360   2.954  50.125  1.00  0.00     0.183 A 
HETATM    2  N3  UNL     1      24.183   3.141  49.500  1.00  0.00    -0.217 NA
HETATM    3  C7  UNL     1      23.084   2.542  49.969  1.00  0.00     0.236 A 
HETATM    4  N4  UNL     1      23.026   1.727  51.058  1.00  0.00    -0.241 NA
HETATM    5  C8  UNL     1      24.213   1.533  51.695  1.00  0.00     0.075 A 
HETATM    6  C9  UNL     1      25.376   2.130  51.252  1.00  0.00     0.046 A 
HETATM    7  C10 UNL     1      26.761   2.115  51.707  1.00  0.00     0.025 C 
HETATM    8  C11 UNL     1      27.483   1.667  52.723  1.00  0.00     0.046 C 
HETATM    9  S1  UNL     1      26.897   0.749  54.161  1.00  0.00    -0.135 SA
HETATM   10  C12 UNL     1      25.909  -0.686  53.607  1.00  0.00     0.143 C 
HETATM   11  C13 UNL     1      24.492  -0.236  53.572  1.00  0.00     0.057 C 
HETATM   12  C15 UNL     1      23.873   0.642  52.799  1.00  0.00     0.065 C 
ENDROOT
BRANCH   1  13
HETATM   13  O2  UNL     1      26.572   3.514  49.746  1.00  0.00    -0.291 OA
BRANCH  13  14
HETATM   14  C5  UNL     1      26.723   4.796  49.256  1.00  0.00     0.076 A 
HETATM   15  C4  UNL     1      25.925   6.014  49.318  1.00  0.00     0.062 A 
HETATM   16  C3  UNL     1      26.578   6.960  48.654  1.00  0.00     0.020 A 
HETATM   17  C17 UNL     1      27.858   6.446  48.101  1.00  0.00     0.087 A 
HETATM   18  C16 UNL     1      27.826   5.033  48.565  1.00  0.00     0.016 A 
BRANCH  16  19
HETATM   19  N2  UNL     1      26.129   8.282  48.486  1.00  0.00    -0.312 N 
HETATM   20  C2  UNL     1      26.836   9.500  48.442  1.00  0.00     0.320 C 
HETATM   21  N1  UNL     1      26.148  10.737  48.259  1.00  0.00    -0.347 N 
HETATM   22  O1  UNL     1      28.082   9.640  48.549  1.00  0.00    -0.247 OA
HETATM   23  C1  UNL     1      26.948  11.958  48.224  1.00  0.00     0.151 C 
HETATM   24  H4  UNL     1      25.101  10.775  48.154  1.00  0.00     0.163 HD
HETATM   25  H5  UNL     1      25.079   8.327  48.381  1.00  0.00     0.170 HD
ENDBRANCH  16  19
ENDBRANCH  13  14
ENDBRANCH   1  13
BRANCH  11  26
HETATM   26  O3  UNL     1      23.738  -0.879  54.537  1.00  0.00    -0.359 OA
HETATM   27  C14 UNL     1      22.343  -0.954  54.573  1.00  0.00     0.209 C 
ENDBRANCH  11  26
TORSDOF 4
ENDMDL
MODEL 6
REMARK VINA RESULT:      -7.6      7.527     10.625
REMARK  4 active torsions:
REMARK  status: ('A' for Active; 'I' for Inactive)
REMARK       I    between atoms: N1_2  and  C2_3 
REMARK       I    between atoms: C2_3  and  N2_5 
REMARK    1  A    between atoms: N2_5  and  C3_6 
REMARK    2  A    between atoms: C5_8  and  O2_9 
REMARK    3  A    between atoms: O2_9  and  C6_10 
REMARK    4  A    between atoms: C13_20  and  O3_21 
ROOT
HETATM    1  C6  UNL     1      26.137   6.916  49.107  1.00  0.00     0.183 A 
HETATM    2  N3  UNL     1      25.179   7.655  49.696  1.00  0.00    -0.217 NA
HETATM    3  C7  UNL     1      25.459   8.899  50.097  1.00  0.00     0.236 A 
HETATM    4  N4  UNL     1      26.661   9.525  49.967  1.00  0.00    -0.241 NA
HETATM    5  C8  UNL     1      27.634   8.783  49.372  1.00  0.00     0.075 A 
HETATM    6  C9  UNL     1      27.397   7.494  48.939  1.00  0.00     0.046 A 
HETATM    7  C10 UNL     1      28.211   6.476  48.286  1.00  0.00     0.025 C 
HETATM    8  C11 UNL     1      29.411   6.343  47.742  1.00  0.00     0.046 C 
HETATM    9  S1  UNL     1      30.692   7.605  47.592  1.00  0.00    -0.135 SA
HETATM   10  C12 UNL     1      30.990   8.367  49.228  1.00  0.00     0.143 C 
HETATM   11  C13 UNL     1      30.109   9.562  49.305  1.00  0.00     0.057 C 
HETATM   12  C15 UNL     1      28.791   9.673  49.360  1.00  0.00     0.065 C 
ENDROOT
BRANCH   1  13
HETATM   13  O2  UNL     1      25.982   5.616  48.645  1.00  0.00    -0.291 OA
BRANCH  13  14
HETATM   14  C5  UNL     1      25.800   4.514  49.457  1.00  0.00     0.076 A 
HETATM   15  C4  UNL     1      26.694   3.552  50.089  1.00  0.00     0.062 A 
HETATM   16  C3  UNL     1      25.945   2.690  50.767  1.00  0.00     0.020 A 
HETATM   17  C17 UNL     1      24.500   3.011  50.639  1.00  0.00     0.087 A 
HETATM   18  C16 UNL     1      24.549   4.214  49.765  1.00  0.00     0.016 A 
BRANCH  16  19
HETATM   19  N2  UNL     1      26.442   1.607  51.515  1.00  0.00    -0.312 N 
HETATM   20  C2  UNL     1      27.483   1.537  52.461  1.00  0.00     0.320 C 
HETATM   21  N1  UNL     1      27.809   0.302  53.098  1.00  0.00    -0.347 N 
HETATM   22  O1  UNL     1      28.208   2.493  52.841  1.00  0.00    -0.247 OA
HETATM   23  C1  UNL     1      28.900   0.308  54.069  1.00  0.00     0.151 C 
HETATM   24  H4  UNL     1      27.285  -0.585  52.880  1.00  0.00     0.163 HD
HETATM   25  H5  UNL     1      25.921   0.713  51.300  1.00  0.00     0.170 HD
ENDBRANCH  16  19
ENDBRANCH  13  14
ENDBRANCH   1  13
BRANCH  11  26
HETATM   26  O3  UNL     1      30.848  10.731  49.319  1.00  0.00    -0.359 OA
HETATM   27  C14 UNL     1      30.377  12.004  48.987  1.00  0.00     0.209 C 
ENDBRANCH  11  26
TORSDOF 4
ENDMDL
MODEL 7
REMARK VINA RESULT:      -7.5      5.374      6.921
REMARK  4 active torsions:
REMARK  status: ('A' for Active; 'I' for Inactive)
REMARK       I    between atoms: N1_2  and  C2_3 
REMARK       I    between atoms: C2_3  and  N2_5 
REMARK    1  A    between atoms: N2_5  and  C3_6 
REMARK    2  A    between atoms: C5_8  and  O2_9 
REMARK    3  A    between atoms: O2_9  and  C6_10 
REMARK    4  A    between atoms: C13_20  and  O3_21 
ROOT
HETATM    1  C6  UNL     1      24.511   2.709  51.162  1.00  0.00     0.183 A 
HETATM    2  N3  UNL     1      25.335   3.447  50.397  1.00  0.00    -0.217 NA
HETATM    3  C7  UNL     1      26.658   3.302  50.521  1.00  0.00     0.236 A 
HETATM    4  N4  UNL     1      27.288   2.451  51.376  1.00  0.00    -0.241 NA
HETATM    5  C8  UNL     1      26.461   1.700  52.153  1.00  0.00     0.075 A 
HETATM    6  C9  UNL     1      25.088   1.811  52.064  1.00  0.00     0.046 A 
HETATM    7  C10 UNL     1      23.971   1.165  52.741  1.00  0.00     0.025 C 
HETATM    8  C11 UNL     1      23.746   0.179  53.598  1.00  0.00     0.046 C 
HETATM    9  S1  UNL     1      24.968  -0.903  54.365  1.00  0.00    -0.135 SA
HETATM   10  C12 UNL     1      26.281   0.109  55.135  1.00  0.00     0.143 C 
HETATM   11  C13 UNL     1      27.354   0.257  54.116  1.00  0.00     0.057 C 
HETATM   12  C15 UNL     1      27.374   0.895  52.956  1.00  0.00     0.065 C 
ENDROOT
BRANCH   1  13
HETATM   13  O2  UNL     1      23.124   2.759  51.135  1.00  0.00    -0.291 OA
BRANCH  13  14
HETATM   14  C5  UNL     1      22.356   2.576  50.003  1.00  0.00     0.076 A 
HETATM   15  C4  UNL     1      21.821   3.463  48.977  1.00  0.00     0.062 A 
HETATM   16  C3  UNL     1      21.143   2.717  48.113  1.00  0.00     0.020 A 
HETATM   17  C17 UNL     1      21.173   1.282  48.496  1.00  0.00     0.087 A 
HETATM   18  C16 UNL     1      21.992   1.333  49.737  1.00  0.00     0.016 A 
BRANCH  16  19
HETATM   19  N2  UNL     1      20.474   3.209  46.977  1.00  0.00    -0.312 N 
HETATM   20  C2  UNL     1      20.964   3.607  45.717  1.00  0.00     0.320 C 
HETATM   21  N1  UNL     1      20.075   4.081  44.706  1.00  0.00    -0.347 N 
HETATM   22  O1  UNL     1      22.167   3.594  45.349  1.00  0.00    -0.247 OA
HETATM   23  C1  UNL     1      20.655   4.475  43.424  1.00  0.00     0.151 C 
HETATM   24  H4  UNL     1      19.037   4.147  44.871  1.00  0.00     0.163 HD
HETATM   25  H5  UNL     1      19.432   3.279  47.137  1.00  0.00     0.170 HD
ENDBRANCH  16  19
ENDBRANCH  13  14
ENDBRANCH   1  13
BRANCH  11  26
HETATM   26  O3  UNL     1      28.505  -0.407  54.499  1.00  0.00    -0.359 OA
HETATM   27  C14 UNL     1      29.555  -0.781  53.657  1.00  0.00     0.209 C 
ENDBRANCH  11  26
TORSDOF 4
ENDMDL
MODEL 8
REMARK VINA RESULT:      -7.3      6.272      8.739
REMARK  4 active torsions:
REMARK  status: ('A' for Active; 'I' for Inactive)
REMARK       I    between atoms: N1_2  and  C2_3 
REMARK       I    between atoms: C2_3  and  N2_5 
REMARK    1  A    between atoms: N2_5  and  C3_6 
REMARK    2  A    between atoms: C5_8  and  O2_9 
REMARK    3  A    between atoms: O2_9  and  C6_10 
REMARK    4  A    between atoms: C13_20  and  O3_21 
ROOT
HETATM    1  C6  UNL     1      25.066   5.405  50.098  1.00  0.00     0.183 A 
HETATM    2  N3  UNL     1      23.976   5.699  50.829  1.00  0.00    -0.217 NA
HETATM    3  C7  UNL     1      23.695   6.975  51.112  1.00  0.00     0.236 A 
HETATM    4  N4  UNL     1      24.427   8.055  50.724  1.00  0.00    -0.241 NA
HETATM    5  C8  UNL     1      25.532   7.765  49.984  1.00  0.00     0.075 A 
HETATM    6  C9  UNL     1      25.866   6.464  49.664  1.00  0.00     0.046 A 
HETATM    7  C10 UNL     1      26.953   5.851  48.911  1.00  0.00     0.025 C 
HETATM    8  C11 UNL     1      27.977   6.207  48.150  1.00  0.00     0.046 C 
HETATM    9  S1  UNL     1      28.476   7.882  47.699  1.00  0.00    -0.135 SA
HETATM   10  C12 UNL     1      28.625   8.901  49.210  1.00  0.00     0.143 C 
HETATM   11  C13 UNL     1      27.309   9.565  49.403  1.00  0.00     0.057 C 
HETATM   12  C15 UNL     1      26.119   9.072  49.708  1.00  0.00     0.065 C 
ENDROOT
BRANCH   1  13
HETATM   13  O2  UNL     1      25.472   4.128  49.734  1.00  0.00    -0.291 OA
BRANCH  13  14
HETATM   14  C5  UNL     1      25.525   3.048  50.593  1.00  0.00     0.076 A 
HETATM   15  C4  UNL     1      24.530   2.151  51.168  1.00  0.00     0.062 A 
HETATM   16  C3  UNL     1      25.169   1.281  51.940  1.00  0.00     0.020 A 
HETATM   17  C17 UNL     1      26.634   1.530  51.938  1.00  0.00     0.087 A 
HETATM   18  C16 UNL     1      26.725   2.702  51.025  1.00  0.00     0.016 A 
BRANCH  16  19
HETATM   19  N2  UNL     1      24.553   0.250  52.672  1.00  0.00    -0.312 N 
HETATM   20  C2  UNL     1      23.315   0.206  53.342  1.00  0.00     0.320 C 
HETATM   21  N1  UNL     1      22.899  -0.975  54.029  1.00  0.00    -0.347 N 
HETATM   22  O1  UNL     1      22.475   1.139  53.414  1.00  0.00    -0.247 OA
HETATM   23  C1  UNL     1      21.603  -0.946  54.701  1.00  0.00     0.151 C 
HETATM   24  H4  UNL     1      23.501  -1.838  54.054  1.00  0.00     0.163 HD
HETATM   25  H5  UNL     1      25.152  -0.620  52.702  1.00  0.00     0.170 HD
ENDBRANCH  16  19
ENDBRANCH  13  14
ENDBRANCH   1  13
BRANCH  11  26
HETATM   26  O3  UNL     1      27.405  10.932  49.222  1.00  0.00    -0.359 OA
HETATM   27  C14 UNL     1      26.798  11.669  48.202  1.00  0.00     0.209 C 
ENDBRANCH  11  26
TORSDOF 4
ENDMDL
MODEL 9
REMARK VINA RESULT:      -7.2      3.592      8.097
REMARK  4 active torsions:
REMARK  status: ('A' for Active; 'I' for Inactive)
REMARK       I    between atoms: N1_2  and  C2_3 
REMARK       I    between atoms: C2_3  and  N2_5 
REMARK    1  A    between atoms: N2_5  and  C3_6 
REMARK    2  A    between atoms: C5_8  and  O2_9 
REMARK    3  A    between atoms: O2_9  and  C6_10 
REMARK    4  A    between atoms: C13_20  and  O3_21 
ROOT
HETATM    1  C6  UNL     1      19.802   1.083  52.304  1.00  0.00     0.183 A 
HETATM    2  N3  UNL     1      19.085  -0.016  52.008  1.00  0.00    -0.217 NA
HETATM    3  C7  UNL     1      18.379  -0.059  50.874  1.00  0.00     0.236 A 
HETATM    4  N4  UNL     1      18.304   0.935  49.946  1.00  0.00    -0.241 NA
HETATM    5  C8  UNL     1      19.028   2.050  50.239  1.00  0.00     0.075 A 
HETATM    6  C9  UNL     1      19.774   2.144  51.396  1.00  0.00     0.046 A 
HETATM    7  C10 UNL     1      20.628   3.175  51.973  1.00  0.00     0.025 C 
HETATM    8  C11 UNL     1      21.142   4.353  51.651  1.00  0.00     0.046 C 
HETATM    9  S1  UNL     1      20.926   5.256  50.104  1.00  0.00    -0.135 SA
HETATM   10  C12 UNL     1      19.143   5.393  49.722  1.00  0.00     0.143 C 
HETATM   11  C13 UNL     1      18.806   4.234  48.855  1.00  0.00     0.057 C 
HETATM   12  C15 UNL     1      18.776   2.935  49.106  1.00  0.00     0.065 C 
ENDROOT
BRANCH   1  13
HETATM   13  O2  UNL     1      20.576   1.258  53.443  1.00  0.00    -0.291 OA
BRANCH  13  14
HETATM   14  C5  UNL     1      21.686   0.501  53.759  1.00  0.00     0.076 A 
HETATM   15  C4  UNL     1      23.079   0.500  53.329  1.00  0.00     0.062 A 
HETATM   16  C3  UNL     1      23.703  -0.472  53.982  1.00  0.00     0.020 A 
HETATM   17  C17 UNL     1      22.777  -1.192  54.895  1.00  0.00     0.087 A 
HETATM   18  C16 UNL     1      21.505  -0.459  54.651  1.00  0.00     0.016 A 
BRANCH  16  19
HETATM   19  N2  UNL     1      25.065  -0.793  53.839  1.00  0.00    -0.312 N 
HETATM   20  C2  UNL     1      26.221  -0.160  54.336  1.00  0.00     0.320 C 
HETATM   21  N1  UNL     1      27.519  -0.681  54.051  1.00  0.00    -0.347 N 
HETATM   22  O1  UNL     1      26.253   0.877  55.048  1.00  0.00    -0.247 OA
HETATM   23  C1  UNL     1      28.671   0.029  54.601  1.00  0.00     0.151 C 
HETATM   24  H4  UNL     1      27.648  -1.547  53.465  1.00  0.00     0.163 HD
HETATM   25  H5  UNL     1      25.202  -1.661  53.251  1.00  0.00     0.170 HD
ENDBRANCH  16  19
ENDBRANCH  13  14
ENDBRANCH   1  13
BRANCH  11  26
HETATM   26  O3  UNL     1      18.476   4.644  47.576  1.00  0.00    -0.359 OA
HETATM   27  C14 UNL     1      19.342   5.238  46.655  1.00  0.00     0.209 C 
ENDBRANCH  11  26
TORSDOF 4
ENDMDL
