MODEL 1
REMARK VINA RESULT:      -9.0      0.000      0.000
REMARK  8 active torsions:
REMARK  status: ('A' for Active; 'I' for Inactive)
REMARK    1  A    between atoms: C4_4  and  O1_5 
REMARK    2  A    between atoms: C6_7  and  C7_8 
REMARK    3  A    between atoms: C7_8  and  N1_9 
REMARK    4  A    between atoms: N1_9  and  C8_10 
REMARK    5  A    between atoms: N1_9  and  C15_18 
REMARK    6  A    between atoms: C8_10  and  C9_11 
REMARK    7  A    between atoms: C15_18  and  N2_20 
REMARK    8  A    between atoms: N2_20  and  C16_21 
ROOT
HETATM    1  N1  UNL     1      24.344   2.269  52.352  1.00  0.00    -0.350 N 
ENDROOT
BRANCH   1   2
HETATM    2  C7  UNL     1      24.227   0.871  52.119  1.00  0.00     0.164 C 
BRANCH   2   3
HETATM    3  C6  UNL     1      23.151   0.195  52.904  1.00  0.00    -0.037 A 
HETATM    4  C5  UNL     1      23.451  -0.588  54.019  1.00  0.00     0.045 A 
HETATM    5  C4  UNL     1      22.443  -1.215  54.729  1.00  0.00     0.066 A 
HETATM    6  C3  UNL     1      21.107  -1.071  54.333  1.00  0.00     0.043 A 
HETATM    7  C2  UNL     1      20.852  -0.290  53.228  1.00  0.00    -0.059 A 
HETATM    8  C1  UNL     1      19.452  -0.114  52.777  1.00  0.00     0.048 C 
HETATM    9  C22 UNL     1      21.829   0.336  52.517  1.00  0.00     0.015 A 
BRANCH   5  10
HETATM   10  O1  UNL     1      22.825  -1.983  55.836  1.00  0.00    -0.361 OA
HETATM   11  H5  UNL     1      22.073  -2.476  56.319  1.00  0.00     0.217 HD
ENDBRANCH   5  10
ENDBRANCH   2   3
ENDBRANCH   1   2
BRANCH   1  12
HETATM   12  C8  UNL     1      25.001   2.455  53.632  1.00  0.00     0.164 C 
BRANCH  12  13
HETATM   13  C9  UNL     1      26.363   1.868  53.677  1.00  0.00    -0.040 A 
HETATM   14  C10 UNL     1      26.523   0.852  54.589  1.00  0.00     0.012 A 
HETATM   15  C11 UNL     1      27.738   0.208  54.743  1.00  0.00     0.043 A 
HETATM   16  C12 UNL     1      28.834   0.575  53.976  1.00  0.00     0.116 A 
HETATM   17  F1  UNL     1      30.046  -0.018  54.084  1.00  0.00    -0.206 F 
HETATM   18  C13 UNL     1      28.674   1.601  53.055  1.00  0.00     0.043 A 
HETATM   19  C14 UNL     1      27.460   2.221  52.923  1.00  0.00     0.012 A 
ENDBRANCH  12  13
ENDBRANCH   1  12
BRANCH   1  20
HETATM   20  C15 UNL     1      23.968   3.403  51.619  1.00  0.00     0.174 C 
HETATM   21  S1  UNL     1      23.081   4.585  52.357  1.00  0.00    -0.041 SA
BRANCH  20  22
HETATM   22  N2  UNL     1      24.186   3.815  50.278  1.00  0.00    -0.333 N 
HETATM   23  H15 UNL     1      23.602   3.669  49.421  1.00  0.00     0.168 HD
BRANCH  22  24
HETATM   24  C16 UNL     1      25.238   4.544  49.651  1.00  0.00     0.034 A 
HETATM   25  C17 UNL     1      26.450   3.867  49.493  1.00  0.00     0.029 A 
HETATM   26  C18 UNL     1      27.515   4.516  48.883  1.00  0.00     0.002 A 
HETATM   27  C19 UNL     1      27.322   5.812  48.459  1.00  0.00     0.000 A 
HETATM   28  C20 UNL     1      26.157   6.526  48.588  1.00  0.00     0.002 A 
HETATM   29  C21 UNL     1      25.112   5.854  49.199  1.00  0.00     0.029 A 
ENDBRANCH  22  24
ENDBRANCH  20  22
ENDBRANCH   1  20
TORSDOF 8
ENDMDL
MODEL 2
REMARK VINA RESULT:      -8.9      2.737      6.547
REMARK  8 active torsions:
REMARK  status: ('A' for Active; 'I' for Inactive)
REMARK    1  A    between atoms: C4_4  and  O1_5 
REMARK    2  A    between atoms: C6_7  and  C7_8 
REMARK    3  A    between atoms: C7_8  and  N1_9 
REMARK    4  A    between atoms: N1_9  and  C8_10 
REMARK    5  A    between atoms: N1_9  and  C15_18 
REMARK    6  A    between atoms: C8_10  and  C9_11 
REMARK    7  A    between atoms: C15_18  and  N2_20 
REMARK    8  A    between atoms: N2_20  and  C16_21 
ROOT
HETATM    1  N1  UNL     1      25.340   2.882  50.897  1.00  0.00    -0.350 N 
ENDROOT
BRANCH   1   2
HETATM    2  C7  UNL     1      26.740   2.722  51.089  1.00  0.00     0.164 C 
BRANCH   2   3
HETATM    3  C6  UNL     1      27.118   1.654  52.064  1.00  0.00    -0.037 A 
HETATM    4  C5  UNL     1      27.823   1.955  53.229  1.00  0.00     0.045 A 
HETATM    5  C4  UNL     1      28.174   0.953  54.116  1.00  0.00     0.066 A 
HETATM    6  C3  UNL     1      27.825  -0.377  53.852  1.00  0.00     0.043 A 
HETATM    7  C2  UNL     1      27.129  -0.633  52.691  1.00  0.00    -0.059 A 
HETATM    8  C1  UNL     1      26.742  -2.028  52.376  1.00  0.00     0.048 C 
HETATM    9  C22 UNL     1      26.774   0.339  51.806  1.00  0.00     0.015 A 
BRANCH   5  10
HETATM   10  O1  UNL     1      28.881   1.336  55.263  1.00  0.00    -0.361 OA
HETATM   11  H5  UNL     1      29.601   2.047  55.128  1.00  0.00     0.217 HD
ENDBRANCH   5  10
ENDBRANCH   2   3
ENDBRANCH   1   2
BRANCH   1  12
HETATM   12  C8  UNL     1      25.133   3.444  49.576  1.00  0.00     0.164 C 
BRANCH  12  13
HETATM   13  C9  UNL     1      25.795   4.758  49.391  1.00  0.00    -0.040 A 
HETATM   14  C10 UNL     1      25.178   5.809  50.029  1.00  0.00     0.012 A 
HETATM   15  C11 UNL     1      25.682   7.095  49.947  1.00  0.00     0.043 A 
HETATM   16  C12 UNL     1      26.830   7.359  49.214  1.00  0.00     0.116 A 
HETATM   17  F1  UNL     1      27.368   8.596  49.098  1.00  0.00    -0.206 F 
HETATM   18  C13 UNL     1      27.453   6.300  48.570  1.00  0.00     0.043 A 
HETATM   19  C14 UNL     1      26.933   5.036  48.668  1.00  0.00     0.012 A 
ENDBRANCH  12  13
ENDBRANCH   1  12
BRANCH   1  20
HETATM   20  C15 UNL     1      24.221   2.610  51.696  1.00  0.00     0.174 C 
HETATM   21  S1  UNL     1      23.820   3.659  52.908  1.00  0.00    -0.041 SA
BRANCH  20  22
HETATM   22  N2  UNL     1      23.266   1.560  51.714  1.00  0.00    -0.333 N 
HETATM   23  H15 UNL     1      22.753   1.098  50.926  1.00  0.00     0.168 HD
BRANCH  22  24
HETATM   24  C16 UNL     1      22.692   0.795  52.770  1.00  0.00     0.034 A 
HETATM   25  C17 UNL     1      23.536  -0.123  53.398  1.00  0.00     0.029 A 
HETATM   26  C18 UNL     1      23.044  -0.897  54.440  1.00  0.00     0.002 A 
HETATM   27  C19 UNL     1      21.730  -0.718  54.808  1.00  0.00     0.000 A 
HETATM   28  C20 UNL     1      20.854   0.167  54.230  1.00  0.00     0.002 A 
HETATM   29  C21 UNL     1      21.373   0.925  53.194  1.00  0.00     0.029 A 
ENDBRANCH  22  24
ENDBRANCH  20  22
ENDBRANCH   1  20
TORSDOF 8
ENDMDL
MODEL 3
REMARK VINA RESULT:      -8.7      2.682      5.065
REMARK  8 active torsions:
REMARK  status: ('A' for Active; 'I' for Inactive)
REMARK    1  A    between atoms: C4_4  and  O1_5 
REMARK    2  A    between atoms: C6_7  and  C7_8 
REMARK    3  A    between atoms: C7_8  and  N1_9 
REMARK    4  A    between atoms: N1_9  and  C8_10 
REMARK    5  A    between atoms: N1_9  and  C15_18 
REMARK    6  A    between atoms: C8_10  and  C9_11 
REMARK    7  A    between atoms: C15_18  and  N2_20 
REMARK    8  A    between atoms: N2_20  and  C16_21 
ROOT
HETATM    1  N1  UNL     1      24.849   2.319  51.835  1.00  0.00    -0.350 N 
ENDROOT
BRANCH   1   2
HETATM    2  C7  UNL     1      25.612   1.208  51.379  1.00  0.00     0.164 C 
BRANCH   2   3
HETATM    3  C6  UNL     1      26.808   0.888  52.215  1.00  0.00    -0.037 A 
HETATM    4  C5  UNL     1      27.544   1.893  52.842  1.00  0.00     0.045 A 
HETATM    5  C4  UNL     1      28.655   1.579  53.604  1.00  0.00     0.066 A 
HETATM    6  C3  UNL     1      29.053   0.245  53.753  1.00  0.00     0.043 A 
HETATM    7  C2  UNL     1      28.300  -0.718  53.120  1.00  0.00    -0.059 A 
HETATM    8  C1  UNL     1      28.689  -2.142  53.254  1.00  0.00     0.048 C 
HETATM    9  C22 UNL     1      27.204  -0.430  52.367  1.00  0.00     0.015 A 
BRANCH   5  10
HETATM   10  O1  UNL     1      29.341   2.645  54.200  1.00  0.00    -0.361 OA
HETATM   11  H5  UNL     1      30.080   3.070  53.639  1.00  0.00     0.217 HD
ENDBRANCH   5  10
ENDBRANCH   2   3
ENDBRANCH   1   2
BRANCH   1  12
HETATM   12  C8  UNL     1      24.443   2.051  53.201  1.00  0.00     0.164 C 
BRANCH  12  13
HETATM   13  C9  UNL     1      23.312   1.096  53.296  1.00  0.00    -0.040 A 
HETATM   14  C10 UNL     1      23.600  -0.074  53.956  1.00  0.00     0.012 A 
HETATM   15  C11 UNL     1      22.643  -1.060  54.124  1.00  0.00     0.043 A 
HETATM   16  C12 UNL     1      21.359  -0.890  53.624  1.00  0.00     0.116 A 
HETATM   17  F1  UNL     1      20.384  -1.819  53.757  1.00  0.00    -0.206 F 
HETATM   18  C13 UNL     1      21.068   0.291  52.957  1.00  0.00     0.043 A 
HETATM   19  C14 UNL     1      22.034   1.250  52.806  1.00  0.00     0.012 A 
ENDBRANCH  12  13
ENDBRANCH   1  12
BRANCH   1  20
HETATM   20  C15 UNL     1      24.459   3.528  51.242  1.00  0.00     0.174 C 
HETATM   21  S1  UNL     1      23.629   4.637  52.142  1.00  0.00    -0.041 SA
BRANCH  20  22
HETATM   22  N2  UNL     1      24.621   4.075  49.942  1.00  0.00    -0.333 N 
HETATM   23  H15 UNL     1      23.985   4.045  49.110  1.00  0.00     0.168 HD
BRANCH  22  24
HETATM   24  C16 UNL     1      25.667   4.828  49.336  1.00  0.00     0.034 A 
HETATM   25  C17 UNL     1      26.900   4.185  49.210  1.00  0.00     0.029 A 
HETATM   26  C18 UNL     1      27.962   4.858  48.621  1.00  0.00     0.002 A 
HETATM   27  C19 UNL     1      27.744   6.146  48.184  1.00  0.00     0.000 A 
HETATM   28  C20 UNL     1      26.558   6.828  48.280  1.00  0.00     0.002 A 
HETATM   29  C21 UNL     1      25.516   6.132  48.872  1.00  0.00     0.029 A 
ENDBRANCH  22  24
ENDBRANCH  20  22
ENDBRANCH   1  20
TORSDOF 8
ENDMDL
MODEL 4
REMARK VINA RESULT:      -8.6      1.676      2.105
REMARK  8 active torsions:
REMARK  status: ('A' for Active; 'I' for Inactive)
REMARK    1  A    between atoms: C4_4  and  O1_5 
REMARK    2  A    between atoms: C6_7  and  C7_8 
REMARK    3  A    between atoms: C7_8  and  N1_9 
REMARK    4  A    between atoms: N1_9  and  C8_10 
REMARK    5  A    between atoms: N1_9  and  C15_18 
REMARK    6  A    between atoms: C8_10  and  C9_11 
REMARK    7  A    between atoms: C15_18  and  N2_20 
REMARK    8  A    between atoms: N2_20  and  C16_21 
ROOT
HETATM    1  N1  UNL     1      24.486   2.780  51.745  1.00  0.00    -0.350 N 
ENDROOT
BRANCH   1   2
HETATM    2  C7  UNL     1      24.040   2.343  53.022  1.00  0.00     0.164 C 
BRANCH   2   3
HETATM    3  C6  UNL     1      22.802   1.507  53.000  1.00  0.00    -0.037 A 
HETATM    4  C5  UNL     1      21.645   1.945  52.354  1.00  0.00     0.045 A 
HETATM    5  C4  UNL     1      20.504   1.162  52.352  1.00  0.00     0.066 A 
HETATM    6  C3  UNL     1      20.499  -0.079  52.999  1.00  0.00     0.043 A 
HETATM    7  C2  UNL     1      21.660  -0.476  53.624  1.00  0.00    -0.059 A 
HETATM    8  C1  UNL     1      21.694  -1.783  54.320  1.00  0.00     0.048 C 
HETATM    9  C22 UNL     1      22.793   0.279  53.637  1.00  0.00     0.015 A 
BRANCH   5  10
HETATM   10  O1  UNL     1      19.384   1.672  51.682  1.00  0.00    -0.361 OA
HETATM   11  H5  UNL     1      18.556   1.833  52.257  1.00  0.00     0.217 HD
ENDBRANCH   5  10
ENDBRANCH   2   3
ENDBRANCH   1   2
BRANCH   1  12
HETATM   12  C8  UNL     1      25.273   1.713  51.158  1.00  0.00     0.164 C 
BRANCH  12  13
HETATM   13  C9  UNL     1      26.439   1.324  51.989  1.00  0.00    -0.040 A 
HETATM   14  C10 UNL     1      26.536  -0.022  52.252  1.00  0.00     0.012 A 
HETATM   15  C11 UNL     1      27.572  -0.532  53.014  1.00  0.00     0.043 A 
HETATM   16  C12 UNL     1      28.546   0.308  53.536  1.00  0.00     0.116 A 
HETATM   17  F1  UNL     1      29.581  -0.135  54.288  1.00  0.00    -0.206 F 
HETATM   18  C13 UNL     1      28.449   1.666  53.271  1.00  0.00     0.043 A 
HETATM   19  C14 UNL     1      27.413   2.145  52.513  1.00  0.00     0.012 A 
ENDBRANCH  12  13
ENDBRANCH   1  12
BRANCH   1  20
HETATM   20  C15 UNL     1      24.307   3.963  51.014  1.00  0.00     0.174 C 
HETATM   21  S1  UNL     1      23.544   5.244  51.727  1.00  0.00    -0.041 SA
BRANCH  20  22
HETATM   22  N2  UNL     1      24.654   4.359  49.696  1.00  0.00    -0.333 N 
HETATM   23  H15 UNL     1      24.142   4.226  48.792  1.00  0.00     0.168 HD
BRANCH  22  24
HETATM   24  C16 UNL     1      25.780   5.049  49.161  1.00  0.00     0.034 A 
HETATM   25  C17 UNL     1      26.976   4.331  49.106  1.00  0.00     0.029 A 
HETATM   26  C18 UNL     1      28.111   4.940  48.589  1.00  0.00     0.002 A 
HETATM   27  C19 UNL     1      27.999   6.241  48.150  1.00  0.00     0.000 A 
HETATM   28  C20 UNL     1      26.854   6.995  48.179  1.00  0.00     0.002 A 
HETATM   29  C21 UNL     1      25.738   6.362  48.700  1.00  0.00     0.029 A 
ENDBRANCH  22  24
ENDBRANCH  20  22
ENDBRANCH   1  20
TORSDOF 8
ENDMDL
MODEL 5
REMARK VINA RESULT:      -8.5      2.616      6.859
REMARK  8 active torsions:
REMARK  status: ('A' for Active; 'I' for Inactive)
REMARK    1  A    between atoms: C4_4  and  O1_5 
REMARK    2  A    between atoms: C6_7  and  C7_8 
REMARK    3  A    between atoms: C7_8  and  N1_9 
REMARK    4  A    between atoms: N1_9  and  C8_10 
REMARK    5  A    between atoms: N1_9  and  C15_18 
REMARK    6  A    between atoms: C8_10  and  C9_11 
REMARK    7  A    between atoms: C15_18  and  N2_20 
REMARK    8  A    between atoms: N2_20  and  C16_21 
ROOT
HETATM    1  N1  UNL     1      25.040   2.546  50.976  1.00  0.00    -0.350 N 
ENDROOT
BRANCH   1   2
HETATM    2  C7  UNL     1      25.808   2.648  49.784  1.00  0.00     0.164 C 
BRANCH   2   3
HETATM    3  C6  UNL     1      26.053   4.046  49.316  1.00  0.00    -0.037 A 
HETATM    4  C5  UNL     1      25.015   4.975  49.237  1.00  0.00     0.045 A 
HETATM    5  C4  UNL     1      25.258   6.262  48.792  1.00  0.00     0.066 A 
HETATM    6  C3  UNL     1      26.551   6.646  48.414  1.00  0.00     0.043 A 
HETATM    7  C2  UNL     1      27.547   5.700  48.507  1.00  0.00    -0.059 A 
HETATM    8  C1  UNL     1      28.929   6.067  48.117  1.00  0.00     0.048 C 
HETATM    9  C22 UNL     1      27.330   4.429  48.943  1.00  0.00     0.015 A 
BRANCH   5  10
HETATM   10  O1  UNL     1      24.164   7.135  48.741  1.00  0.00    -0.361 OA
HETATM   11  H5  UNL     1      23.984   7.573  47.836  1.00  0.00     0.217 HD
ENDBRANCH   5  10
ENDBRANCH   2   3
ENDBRANCH   1   2
BRANCH   1  12
HETATM   12  C8  UNL     1      25.929   2.772  52.099  1.00  0.00     0.164 C 
BRANCH  12  13
HETATM   13  C9  UNL     1      26.725   1.573  52.462  1.00  0.00    -0.040 A 
HETATM   14  C10 UNL     1      27.917   1.842  53.093  1.00  0.00     0.012 A 
HETATM   15  C11 UNL     1      28.765   0.824  53.491  1.00  0.00     0.043 A 
HETATM   16  C12 UNL     1      28.433  -0.503  53.261  1.00  0.00     0.116 A 
HETATM   17  F1  UNL     1      29.223  -1.540  53.627  1.00  0.00    -0.206 F 
HETATM   18  C13 UNL     1      27.231  -0.776  52.623  1.00  0.00     0.043 A 
HETATM   19  C14 UNL     1      26.409   0.251  52.240  1.00  0.00     0.012 A 
ENDBRANCH  12  13
ENDBRANCH   1  12
BRANCH   1  20
HETATM   20  C15 UNL     1      23.685   2.292  51.231  1.00  0.00     0.174 C 
HETATM   21  S1  UNL     1      22.660   2.034  49.962  1.00  0.00    -0.041 SA
BRANCH  20  22
HETATM   22  N2  UNL     1      22.917   2.194  52.421  1.00  0.00    -0.333 N 
HETATM   23  H15 UNL     1      22.605   2.939  53.089  1.00  0.00     0.168 HD
BRANCH  22  24
HETATM   24  C16 UNL     1      22.324   1.091  53.099  1.00  0.00     0.034 A 
HETATM   25  C17 UNL     1      23.198   0.095  53.542  1.00  0.00     0.029 A 
HETATM   26  C18 UNL     1      22.689  -1.005  54.217  1.00  0.00     0.002 A 
HETATM   27  C19 UNL     1      21.328  -1.062  54.419  1.00  0.00     0.000 A 
HETATM   28  C20 UNL     1      20.422  -0.117  54.008  1.00  0.00     0.002 A 
HETATM   29  C21 UNL     1      20.958   0.969  53.337  1.00  0.00     0.029 A 
ENDBRANCH  22  24
ENDBRANCH  20  22
ENDBRANCH   1  20
TORSDOF 8
ENDMDL
MODEL 6
REMARK VINA RESULT:      -8.5      3.068      5.122
REMARK  8 active torsions:
REMARK  status: ('A' for Active; 'I' for Inactive)
REMARK    1  A    between atoms: C4_4  and  O1_5 
REMARK    2  A    between atoms: C6_7  and  C7_8 
REMARK    3  A    between atoms: C7_8  and  N1_9 
REMARK    4  A    between atoms: N1_9  and  C8_10 
REMARK    5  A    between atoms: N1_9  and  C15_18 
REMARK    6  A    between atoms: C8_10  and  C9_11 
REMARK    7  A    between atoms: C15_18  and  N2_20 
REMARK    8  A    between atoms: N2_20  and  C16_21 
ROOT
HETATM    1  N1  UNL     1      23.773   0.067  53.531  1.00  0.00    -0.350 N 
ENDROOT
BRANCH   1   2
HETATM    2  C7  UNL     1      24.550   0.596  52.463  1.00  0.00     0.164 C 
BRANCH   2   3
HETATM    3  C6  UNL     1      24.182   1.984  52.051  1.00  0.00    -0.037 A 
HETATM    4  C5  UNL     1      24.153   3.030  52.974  1.00  0.00     0.045 A 
HETATM    5  C4  UNL     1      23.801   4.307  52.577  1.00  0.00     0.066 A 
HETATM    6  C3  UNL     1      23.467   4.563  51.241  1.00  0.00     0.043 A 
HETATM    7  C2  UNL     1      23.509   3.505  50.361  1.00  0.00    -0.059 A 
HETATM    8  C1  UNL     1      23.163   3.736  48.939  1.00  0.00     0.048 C 
HETATM    9  C22 UNL     1      23.853   2.242  50.731  1.00  0.00     0.015 A 
BRANCH   5  10
HETATM   10  O1  UNL     1      23.795   5.302  53.562  1.00  0.00    -0.361 OA
HETATM   11  H5  UNL     1      23.948   6.256  53.235  1.00  0.00     0.217 HD
ENDBRANCH   5  10
ENDBRANCH   2   3
ENDBRANCH   1   2
BRANCH   1  12
HETATM   12  C8  UNL     1      24.681  -0.308  54.598  1.00  0.00     0.164 C 
BRANCH  12  13
HETATM   13  C9  UNL     1      26.075  -0.513  54.133  1.00  0.00    -0.040 A 
HETATM   14  C10 UNL     1      27.021   0.226  54.804  1.00  0.00     0.012 A 
HETATM   15  C11 UNL     1      28.363   0.139  54.480  1.00  0.00     0.043 A 
HETATM   16  C12 UNL     1      28.791  -0.702  53.462  1.00  0.00     0.116 A 
HETATM   17  F1  UNL     1      30.090  -0.827  53.102  1.00  0.00    -0.206 F 
HETATM   18  C13 UNL     1      27.838  -1.447  52.784  1.00  0.00     0.043 A 
HETATM   19  C14 UNL     1      26.515  -1.342  53.126  1.00  0.00     0.012 A 
ENDBRANCH  12  13
ENDBRANCH   1  12
BRANCH   1  20
HETATM   20  C15 UNL     1      22.398  -0.131  53.717  1.00  0.00     0.174 C 
HETATM   21  S1  UNL     1      21.860  -1.598  54.254  1.00  0.00    -0.041 SA
BRANCH  20  22
HETATM   22  N2  UNL     1      21.259   0.697  53.539  1.00  0.00    -0.333 N 
HETATM   23  H15 UNL     1      20.513   0.977  54.219  1.00  0.00     0.168 HD
BRANCH  22  24
HETATM   24  C16 UNL     1      20.749   1.409  52.415  1.00  0.00     0.034 A 
HETATM   25  C17 UNL     1      20.631   0.685  51.227  1.00  0.00     0.029 A 
HETATM   26  C18 UNL     1      20.134   1.315  50.094  1.00  0.00     0.002 A 
HETATM   27  C19 UNL     1      19.778   2.641  50.200  1.00  0.00     0.000 A 
HETATM   28  C20 UNL     1      19.871   3.402  51.338  1.00  0.00     0.002 A 
HETATM   29  C21 UNL     1      20.370   2.747  52.452  1.00  0.00     0.029 A 
ENDBRANCH  22  24
ENDBRANCH  20  22
ENDBRANCH   1  20
TORSDOF 8
ENDMDL
MODEL 7
REMARK VINA RESULT:      -8.5      2.350      5.198
REMARK  8 active torsions:
REMARK  status: ('A' for Active; 'I' for Inactive)
REMARK    1  A    between atoms: C4_4  and  O1_5 
REMARK    2  A    between atoms: C6_7  and  C7_8 
REMARK    3  A    between atoms: C7_8  and  N1_9 
REMARK    4  A    between atoms: N1_9  and  C8_10 
REMARK    5  A    between atoms: N1_9  and  C15_18 
REMARK    6  A    between atoms: C8_10  and  C9_11 
REMARK    7  A    between atoms: C15_18  and  N2_20 
REMARK    8  A    between atoms: N2_20  and  C16_21 
ROOT
HETATM    1  N1  UNL     1      23.545   2.945  50.828  1.00  0.00    -0.350 N 
ENDROOT
BRANCH   1   2
HETATM    2  C7  UNL     1      22.975   1.713  50.403  1.00  0.00     0.164 C 
BRANCH   2   3
HETATM    3  C6  UNL     1      22.132   1.028  51.429  1.00  0.00    -0.037 A 
HETATM    4  C5  UNL     1      20.740   1.077  51.373  1.00  0.00     0.045 A 
HETATM    5  C4  UNL     1      19.975   0.445  52.337  1.00  0.00     0.066 A 
HETATM    6  C3  UNL     1      20.594  -0.253  53.382  1.00  0.00     0.043 A 
HETATM    7  C2  UNL     1      21.970  -0.279  53.401  1.00  0.00    -0.059 A 
HETATM    8  C1  UNL     1      22.662  -1.008  54.490  1.00  0.00     0.048 C 
HETATM    9  C22 UNL     1      22.740   0.336  52.462  1.00  0.00     0.015 A 
BRANCH   5  10
HETATM   10  O1  UNL     1      18.583   0.542  52.211  1.00  0.00    -0.361 OA
HETATM   11  H5  UNL     1      18.198   1.486  52.231  1.00  0.00     0.217 HD
ENDBRANCH   5  10
ENDBRANCH   2   3
ENDBRANCH   1   2
BRANCH   1  12
HETATM   12  C8  UNL     1      23.506   3.865  49.708  1.00  0.00     0.164 C 
BRANCH  12  13
HETATM   13  C9  UNL     1      24.843   4.388  49.336  1.00  0.00    -0.040 A 
HETATM   14  C10 UNL     1      24.857   5.703  48.935  1.00  0.00     0.012 A 
HETATM   15  C11 UNL     1      26.033   6.327  48.559  1.00  0.00     0.043 A 
HETATM   16  C12 UNL     1      27.236   5.637  48.577  1.00  0.00     0.116 A 
HETATM   17  F1  UNL     1      28.416   6.196  48.219  1.00  0.00    -0.206 F 
HETATM   18  C13 UNL     1      27.224   4.311  48.982  1.00  0.00     0.043 A 
HETATM   19  C14 UNL     1      26.046   3.717  49.349  1.00  0.00     0.012 A 
ENDBRANCH  12  13
ENDBRANCH   1  12
BRANCH   1  20
HETATM   20  C15 UNL     1      24.088   3.386  52.043  1.00  0.00     0.174 C 
HETATM   21  S1  UNL     1      23.331   4.597  52.873  1.00  0.00    -0.041 SA
BRANCH  20  22
HETATM   22  N2  UNL     1      25.231   3.009  52.795  1.00  0.00    -0.333 N 
HETATM   23  H15 UNL     1      25.907   3.596  53.340  1.00  0.00     0.168 HD
BRANCH  22  24
HETATM   24  C16 UNL     1      25.838   1.748  53.063  1.00  0.00     0.034 A 
HETATM   25  C17 UNL     1      26.273   1.023  51.951  1.00  0.00     0.029 A 
HETATM   26  C18 UNL     1      26.879  -0.211  52.140  1.00  0.00     0.002 A 
HETATM   27  C19 UNL     1      27.025  -0.665  53.432  1.00  0.00     0.000 A 
HETATM   28  C20 UNL     1      26.620   0.001  54.560  1.00  0.00     0.002 A 
HETATM   29  C21 UNL     1      26.017   1.229  54.342  1.00  0.00     0.029 A 
ENDBRANCH  22  24
ENDBRANCH  20  22
ENDBRANCH   1  20
TORSDOF 8
ENDMDL
MODEL 8
REMARK VINA RESULT:      -8.5      2.545      5.120
REMARK  8 active torsions:
REMARK  status: ('A' for Active; 'I' for Inactive)
REMARK    1  A    between atoms: C4_4  and  O1_5 
REMARK    2  A    between atoms: C6_7  and  C7_8 
REMARK    3  A    between atoms: C7_8  and  N1_9 
REMARK    4  A    between atoms: N1_9  and  C8_10 
REMARK    5  A    between atoms: N1_9  and  C15_18 
REMARK    6  A    between atoms: C8_10  and  C9_11 
REMARK    7  A    between atoms: C15_18  and  N2_20 
REMARK    8  A    between atoms: N2_20  and  C16_21 
ROOT
HETATM    1  N1  UNL     1      24.319   1.885  52.055  1.00  0.00    -0.350 N 
ENDROOT
BRANCH   1   2
HETATM    2  C7  UNL     1      24.979   0.699  51.631  1.00  0.00     0.164 C 
BRANCH   2   3
HETATM    3  C6  UNL     1      26.297   0.449  52.288  1.00  0.00    -0.037 A 
HETATM    4  C5  UNL     1      26.768  -0.848  52.496  1.00  0.00     0.045 A 
HETATM    5  C4  UNL     1      27.987  -1.061  53.114  1.00  0.00     0.066 A 
HETATM    6  C3  UNL     1      28.762   0.024  53.540  1.00  0.00     0.043 A 
HETATM    7  C2  UNL     1      28.263   1.288  53.316  1.00  0.00    -0.059 A 
HETATM    8  C1  UNL     1      29.053   2.463  53.752  1.00  0.00     0.048 C 
HETATM    9  C22 UNL     1      27.067   1.520  52.708  1.00  0.00     0.015 A 
BRANCH   5  10
HETATM   10  O1  UNL     1      28.389  -2.392  53.287  1.00  0.00    -0.361 OA
HETATM   11  H5  UNL     1      29.395  -2.563  53.252  1.00  0.00     0.217 HD
ENDBRANCH   5  10
ENDBRANCH   2   3
ENDBRANCH   1   2
BRANCH   1  12
HETATM   12  C8  UNL     1      23.903   1.696  53.431  1.00  0.00     0.164 C 
BRANCH  12  13
HETATM   13  C9  UNL     1      22.841   0.670  53.583  1.00  0.00    -0.040 A 
HETATM   14  C10 UNL     1      21.608   1.042  53.104  1.00  0.00     0.012 A 
HETATM   15  C11 UNL     1      20.521   0.189  53.177  1.00  0.00     0.043 A 
HETATM   16  C12 UNL     1      20.651  -1.073  53.739  1.00  0.00     0.116 A 
HETATM   17  F1  UNL     1      19.624  -1.950  53.837  1.00  0.00    -0.206 F 
HETATM   18  C13 UNL     1      21.895  -1.450  54.222  1.00  0.00     0.043 A 
HETATM   19  C14 UNL     1      22.954  -0.585  54.137  1.00  0.00     0.012 A 
ENDBRANCH  12  13
ENDBRANCH   1  12
BRANCH   1  20
HETATM   20  C15 UNL     1      24.031   3.105  51.426  1.00  0.00     0.174 C 
HETATM   21  S1  UNL     1      23.293   4.304  52.290  1.00  0.00    -0.041 SA
BRANCH  20  22
HETATM   22  N2  UNL     1      24.240   3.599  50.112  1.00  0.00    -0.333 N 
HETATM   23  H15 UNL     1      23.674   3.466  49.241  1.00  0.00     0.168 HD
BRANCH  22  24
HETATM   24  C16 UNL     1      25.255   4.418  49.539  1.00  0.00     0.034 A 
HETATM   25  C17 UNL     1      26.518   3.836  49.407  1.00  0.00     0.029 A 
HETATM   26  C18 UNL     1      27.552   4.575  48.850  1.00  0.00     0.002 A 
HETATM   27  C19 UNL     1      27.278   5.864  48.449  1.00  0.00     0.000 A 
HETATM   28  C20 UNL     1      26.060   6.488  48.552  1.00  0.00     0.002 A 
HETATM   29  C21 UNL     1      25.048   5.726  49.112  1.00  0.00     0.029 A 
ENDBRANCH  22  24
ENDBRANCH  20  22
ENDBRANCH   1  20
TORSDOF 8
ENDMDL
MODEL 9
REMARK VINA RESULT:      -8.4      3.044      6.756
REMARK  8 active torsions:
REMARK  status: ('A' for Active; 'I' for Inactive)
REMARK    1  A    between atoms: C4_4  and  O1_5 
REMARK    2  A    between atoms: C6_7  and  C7_8 
REMARK    3  A    between atoms: C7_8  and  N1_9 
REMARK    4  A    between atoms: N1_9  and  C8_10 
REMARK    5  A    between atoms: N1_9  and  C15_18 
REMARK    6  A    between atoms: C8_10  and  C9_11 
REMARK    7  A    between atoms: C15_18  and  N2_20 
REMARK    8  A    between atoms: N2_20  and  C16_21 
ROOT
HETATM    1  N1  UNL     1      23.677   2.855  51.243  1.00  0.00    -0.350 N 
ENDROOT
BRANCH   1   2
HETATM    2  C7  UNL     1      24.292   2.687  49.971  1.00  0.00     0.164 C 
BRANCH   2   3
HETATM    3  C6  UNL     1      25.042   3.881  49.477  1.00  0.00    -0.037 A 
HETATM    4  C5  UNL     1      26.437   3.913  49.484  1.00  0.00     0.045 A 
HETATM    5  C4  UNL     1      27.115   5.031  49.032  1.00  0.00     0.066 A 
HETATM    6  C3  UNL     1      26.407   6.144  48.563  1.00  0.00     0.043 A 
HETATM    7  C2  UNL     1      25.032   6.073  48.572  1.00  0.00    -0.059 A 
HETATM    8  C1  UNL     1      24.247   7.231  48.084  1.00  0.00     0.048 C 
HETATM    9  C22 UNL     1      24.346   4.983  49.012  1.00  0.00     0.015 A 
BRANCH   5  10
HETATM   10  O1  UNL     1      28.515   4.985  49.071  1.00  0.00    -0.361 OA
HETATM   11  H5  UNL     1      29.000   5.642  48.458  1.00  0.00     0.217 HD
ENDBRANCH   5  10
ENDBRANCH   2   3
ENDBRANCH   1   2
BRANCH   1  12
HETATM   12  C8  UNL     1      22.310   2.382  51.142  1.00  0.00     0.164 C 
BRANCH  12  13
HETATM   13  C9  UNL     1      22.010   1.266  52.073  1.00  0.00    -0.040 A 
HETATM   14  C10 UNL     1      20.979   1.507  52.949  1.00  0.00     0.012 A 
HETATM   15  C11 UNL     1      20.586   0.558  53.876  1.00  0.00     0.043 A 
HETATM   16  C12 UNL     1      21.227  -0.671  53.944  1.00  0.00     0.116 A 
HETATM   17  F1  UNL     1      20.886  -1.637  54.829  1.00  0.00    -0.206 F 
HETATM   18  C13 UNL     1      22.268  -0.916  53.059  1.00  0.00     0.043 A 
HETATM   19  C14 UNL     1      22.636   0.042  52.152  1.00  0.00     0.012 A 
ENDBRANCH  12  13
ENDBRANCH   1  12
BRANCH   1  20
HETATM   20  C15 UNL     1      24.128   3.354  52.473  1.00  0.00     0.174 C 
HETATM   21  S1  UNL     1      23.458   4.737  53.078  1.00  0.00    -0.041 SA
BRANCH  20  22
HETATM   22  N2  UNL     1      25.106   2.916  53.404  1.00  0.00    -0.333 N 
HETATM   23  H15 UNL     1      25.283   3.219  54.392  1.00  0.00     0.168 HD
BRANCH  22  24
HETATM   24  C16 UNL     1      26.149   1.950  53.326  1.00  0.00     0.034 A 
HETATM   25  C17 UNL     1      25.757   0.637  53.056  1.00  0.00     0.029 A 
HETATM   26  C18 UNL     1      26.724  -0.355  52.959  1.00  0.00     0.002 A 
HETATM   27  C19 UNL     1      28.040   0.010  53.136  1.00  0.00     0.000 A 
HETATM   28  C20 UNL     1      28.484   1.281  53.402  1.00  0.00     0.002 A 
HETATM   29  C21 UNL     1      27.498   2.249  53.493  1.00  0.00     0.029 A 
ENDBRANCH  22  24
ENDBRANCH  20  22
ENDBRANCH   1  20
TORSDOF 8
ENDMDL
