MODEL 1
REMARK VINA RESULT:      -7.9      0.000      0.000
REMARK  4 active torsions:
REMARK  status: ('A' for Active; 'I' for Inactive)
REMARK    1  A    between atoms: C2_2  and  O1_4 
REMARK    2  A    between atoms: O1_4  and  C4_5 
REMARK       I    between atoms: C4_5  and  N1_7 
REMARK    3  A    between atoms: N1_7  and  C5_8 
REMARK    4  A    between atoms: C5_8  and  C6_9 
ROOT
HETATM    1  C6  UNL     1      22.613   2.826  50.538  1.00  0.00     0.091 A 
HETATM    2  C7  UNL     1      22.066   2.709  49.165  1.00  0.00     0.068 A 
HETATM    3  C8  UNL     1      23.474   2.882  48.758  1.00  0.00     0.004 A 
HETATM    4  C9  UNL     1      24.017   2.992  49.982  1.00  0.00     0.035 A 
HETATM    5  N2  UNL     1      25.265   3.172  50.706  1.00  0.00    -0.360 N 
HETATM    6  C10 UNL     1      26.299   3.799  49.898  1.00  0.00     0.152 C 
HETATM    7  C11 UNL     1      25.588   2.810  52.098  1.00  0.00     0.245 C 
HETATM    8  N3  UNL     1      26.852   2.009  51.944  1.00  0.00    -0.244 NA
HETATM    9  C12 UNL     1      27.422   1.281  52.884  1.00  0.00     0.129 C 
HETATM   10  N4  UNL     1      26.431   0.726  54.034  1.00  0.00    -0.233 NA
HETATM   11  C13 UNL     1      25.525   1.282  53.316  1.00  0.00     0.207 C 
HETATM   12  N5  UNL     1      25.447  -0.266  52.813  1.00  0.00    -0.364 N 
HETATM   13  C14 UNL     1      26.511  -1.412  52.686  1.00  0.00     0.082 C 
HETATM   14  C15 UNL     1      27.835  -1.083  53.136  1.00  0.00     0.002 C 
HETATM   15  C16 UNL     1      28.500   0.399  53.231  1.00  0.00     0.076 C 
HETATM   16  C17 UNL     1      28.959   0.486  54.623  1.00  0.00     0.022 C 
HETATM   17  C18 UNL     1      24.528   1.698  52.432  1.00  0.00     0.034 C 
HETATM   18  C19 UNL     1      23.397   1.043  52.293  1.00  0.00     0.095 C 
HETATM   19  N6  UNL     1      22.555   1.572  51.247  1.00  0.00    -0.382 N 
HETATM   20  H18 UNL     1      24.593  -0.867  52.401  1.00  0.00     0.162 HD
HETATM   21  H26 UNL     1      21.869   0.766  51.111  1.00  0.00     0.160 HD
ENDROOT
BRANCH   1  22
HETATM   22  C5  UNL     1      22.139   4.015  51.286  1.00  0.00     0.162 C 
BRANCH  22  23
HETATM   23  N1  UNL     1      20.711   4.132  51.282  1.00  0.00    -0.334 N 
HETATM   24  C4  UNL     1      19.718   3.474  52.035  1.00  0.00     0.360 C 
HETATM   25  O2  UNL     1      20.028   2.633  52.882  1.00  0.00    -0.239 OA
HETATM   26  H8  UNL     1      20.228   4.817  50.622  1.00  0.00     0.164 HD
BRANCH  24  27
HETATM   27  O1  UNL     1      18.369   3.640  51.964  1.00  0.00    -0.299 OA
BRANCH  27  28
HETATM   28  C2  UNL     1      17.465   2.694  51.444  1.00  0.00     0.125 C 
HETATM   29  C1  UNL     1      16.019   3.083  51.654  1.00  0.00     0.040 C 
HETATM   30  C3  UNL     1      17.751   2.367  49.995  1.00  0.00     0.040 C 
ENDBRANCH  27  28
ENDBRANCH  24  27
ENDBRANCH  22  23
ENDBRANCH   1  22
TORSDOF 4
ENDMDL
MODEL 2
REMARK VINA RESULT:      -7.8      1.989      2.820
REMARK  4 active torsions:
REMARK  status: ('A' for Active; 'I' for Inactive)
REMARK    1  A    between atoms: C2_2  and  O1_4 
REMARK    2  A    between atoms: O1_4  and  C4_5 
REMARK       I    between atoms: C4_5  and  N1_7 
REMARK    3  A    between atoms: N1_7  and  C5_8 
REMARK    4  A    between atoms: C5_8  and  C6_9 
ROOT
HETATM    1  C6  UNL     1      21.781   1.367  51.468  1.00  0.00     0.091 A 
HETATM    2  C7  UNL     1      21.086   1.118  50.182  1.00  0.00     0.068 A 
HETATM    3  C8  UNL     1      22.324   1.656  49.588  1.00  0.00     0.004 A 
HETATM    4  C9  UNL     1      22.996   1.898  50.725  1.00  0.00     0.035 A 
HETATM    5  N2  UNL     1      24.248   2.396  51.272  1.00  0.00    -0.360 N 
HETATM    6  C10 UNL     1      24.953   3.276  50.354  1.00  0.00     0.152 C 
HETATM    7  C11 UNL     1      24.857   2.124  52.587  1.00  0.00     0.245 C 
HETATM    8  N3  UNL     1      26.248   1.683  52.220  1.00  0.00    -0.244 NA
HETATM    9  C12 UNL     1      27.120   1.126  53.036  1.00  0.00     0.129 C 
HETATM   10  N4  UNL     1      26.489   0.325  54.290  1.00  0.00    -0.233 NA
HETATM   11  C13 UNL     1      25.374   0.627  53.733  1.00  0.00     0.207 C 
HETATM   12  N5  UNL     1      25.625  -0.884  53.179  1.00  0.00    -0.364 N 
HETATM   13  C14 UNL     1      26.918  -1.710  52.852  1.00  0.00     0.082 C 
HETATM   14  C15 UNL     1      28.163  -1.048  53.124  1.00  0.00     0.002 C 
HETATM   15  C16 UNL     1      28.429   0.556  53.187  1.00  0.00     0.076 C 
HETATM   16  C17 UNL     1      29.051   0.754  54.503  1.00  0.00     0.022 C 
HETATM   17  C18 UNL     1      24.183   0.771  53.019  1.00  0.00     0.034 C 
HETATM   18  C19 UNL     1      23.253  -0.157  53.014  1.00  0.00     0.095 C 
HETATM   19  N6  UNL     1      22.156   0.139  52.122  1.00  0.00    -0.382 N 
HETATM   20  H18 UNL     1      24.903  -1.686  52.867  1.00  0.00     0.162 HD
HETATM   21  H26 UNL     1      21.690  -0.818  52.050  1.00  0.00     0.160 HD
ENDROOT
BRANCH   1  22
HETATM   22  C5  UNL     1      21.133   2.387  52.327  1.00  0.00     0.162 C 
BRANCH  22  23
HETATM   23  N1  UNL     1      21.003   3.653  51.671  1.00  0.00    -0.334 N 
HETATM   24  C4  UNL     1      21.683   4.874  51.855  1.00  0.00     0.360 C 
HETATM   25  O2  UNL     1      22.571   4.976  52.705  1.00  0.00    -0.239 OA
HETATM   26  H8  UNL     1      20.290   3.785  50.889  1.00  0.00     0.164 HD
BRANCH  24  27
HETATM   27  O1  UNL     1      21.492   6.045  51.188  1.00  0.00    -0.299 OA
BRANCH  27  28
HETATM   28  C2  UNL     1      22.368   6.576  50.222  1.00  0.00     0.125 C 
HETATM   29  C1  UNL     1      22.465   5.720  48.980  1.00  0.00     0.040 C 
HETATM   30  C3  UNL     1      22.042   8.014  49.884  1.00  0.00     0.040 C 
ENDBRANCH  27  28
ENDBRANCH  24  27
ENDBRANCH  22  23
ENDBRANCH   1  22
TORSDOF 4
ENDMDL
MODEL 3
REMARK VINA RESULT:      -7.5      3.391      7.894
REMARK  4 active torsions:
REMARK  status: ('A' for Active; 'I' for Inactive)
REMARK    1  A    between atoms: C2_2  and  O1_4 
REMARK    2  A    between atoms: O1_4  and  C4_5 
REMARK       I    between atoms: C4_5  and  N1_7 
REMARK    3  A    between atoms: N1_7  and  C5_8 
REMARK    4  A    between atoms: C5_8  and  C6_9 
ROOT
HETATM    1  C6  UNL     1      24.767   2.509  52.239  1.00  0.00     0.091 A 
HETATM    2  C7  UNL     1      24.656   1.040  52.062  1.00  0.00     0.068 A 
HETATM    3  C8  UNL     1      23.218   1.326  51.902  1.00  0.00     0.004 A 
HETATM    4  C9  UNL     1      23.266   2.659  52.054  1.00  0.00     0.035 A 
HETATM    5  N2  UNL     1      22.467   3.874  52.074  1.00  0.00    -0.360 N 
HETATM    6  C10 UNL     1      21.067   3.621  52.378  1.00  0.00     0.152 C 
HETATM    7  C11 UNL     1      22.890   5.265  51.831  1.00  0.00     0.245 C 
HETATM    8  N3  UNL     1      21.914   5.727  50.784  1.00  0.00    -0.244 NA
HETATM    9  C12 UNL     1      22.008   6.839  50.082  1.00  0.00     0.129 C 
HETATM   10  N4  UNL     1      23.505   7.413  49.881  1.00  0.00    -0.233 NA
HETATM   11  C13 UNL     1      23.841   6.347  50.510  1.00  0.00     0.207 C 
HETATM   12  N5  UNL     1      24.045   5.897  48.958  1.00  0.00    -0.364 N 
HETATM   13  C14 UNL     1      23.334   6.298  47.618  1.00  0.00     0.082 C 
HETATM   14  C15 UNL     1      22.313   7.301  47.732  1.00  0.00     0.002 C 
HETATM   15  C16 UNL     1      21.435   7.662  49.054  1.00  0.00     0.076 C 
HETATM   16  C17 UNL     1      21.637   9.107  49.223  1.00  0.00     0.022 C 
HETATM   17  C18 UNL     1      24.214   5.095  51.001  1.00  0.00     0.034 C 
HETATM   18  C19 UNL     1      25.283   4.464  50.570  1.00  0.00     0.095 C 
HETATM   19  N6  UNL     1      25.424   3.136  51.120  1.00  0.00    -0.382 N 
HETATM   20  H18 UNL     1      24.740   5.149  48.491  1.00  0.00     0.162 HD
HETATM   21  H26 UNL     1      26.143   2.716  50.455  1.00  0.00     0.160 HD
ENDROOT
BRANCH   1  22
HETATM   22  C5  UNL     1      25.233   2.929  53.582  1.00  0.00     0.162 C 
BRANCH  22  23
HETATM   23  N1  UNL     1      26.266   2.079  54.095  1.00  0.00    -0.334 N 
HETATM   24  C4  UNL     1      27.599   1.879  53.685  1.00  0.00     0.360 C 
HETATM   25  O2  UNL     1      28.061   2.502  52.727  1.00  0.00    -0.239 OA
HETATM   26  H8  UNL     1      26.079   1.452  54.937  1.00  0.00     0.164 HD
BRANCH  24  27
HETATM   27  O1  UNL     1      28.522   1.038  54.228  1.00  0.00    -0.299 OA
BRANCH  27  28
HETATM   28  C2  UNL     1      28.623  -0.338  53.951  1.00  0.00     0.125 C 
HETATM   29  C1  UNL     1      27.563  -0.825  52.989  1.00  0.00     0.040 C 
HETATM   30  C3  UNL     1      30.012  -0.730  53.496  1.00  0.00     0.040 C 
ENDBRANCH  27  28
ENDBRANCH  24  27
ENDBRANCH  22  23
ENDBRANCH   1  22
TORSDOF 4
ENDMDL
MODEL 4
REMARK VINA RESULT:      -7.5      4.371      7.711
REMARK  4 active torsions:
REMARK  status: ('A' for Active; 'I' for Inactive)
REMARK    1  A    between atoms: C2_2  and  O1_4 
REMARK    2  A    between atoms: O1_4  and  C4_5 
REMARK       I    between atoms: C4_5  and  N1_7 
REMARK    3  A    between atoms: N1_7  and  C5_8 
REMARK    4  A    between atoms: C5_8  and  C6_9 
ROOT
HETATM    1  C6  UNL     1      25.657   6.001  49.197  1.00  0.00     0.091 A 
HETATM    2  C7  UNL     1      26.821   6.090  48.282  1.00  0.00     0.068 A 
HETATM    3  C8  UNL     1      27.155   4.762  48.831  1.00  0.00     0.004 A 
HETATM    4  C9  UNL     1      26.117   4.634  49.674  1.00  0.00     0.035 A 
HETATM    5  N2  UNL     1      25.493   3.757  50.652  1.00  0.00    -0.360 N 
HETATM    6  C10 UNL     1      26.429   2.808  51.234  1.00  0.00     0.152 C 
HETATM    7  C11 UNL     1      24.089   3.719  51.098  1.00  0.00     0.245 C 
HETATM    8  N3  UNL     1      23.726   2.270  50.918  1.00  0.00    -0.244 NA
HETATM    9  C12 UNL     1      22.509   1.767  50.980  1.00  0.00     0.129 C 
HETATM   10  N4  UNL     1      21.312   2.791  50.620  1.00  0.00    -0.233 NA
HETATM   11  C13 UNL     1      22.275   3.602  50.377  1.00  0.00     0.207 C 
HETATM   12  N5  UNL     1      21.935   3.032  48.889  1.00  0.00    -0.364 N 
HETATM   13  C14 UNL     1      21.390   1.658  48.361  1.00  0.00     0.082 C 
HETATM   14  C15 UNL     1      21.071   0.687  49.371  1.00  0.00     0.002 C 
HETATM   15  C16 UNL     1      21.687   0.595  50.874  1.00  0.00     0.076 C 
HETATM   16  C17 UNL     1      20.499   0.581  51.737  1.00  0.00     0.022 C 
HETATM   17  C18 UNL     1      23.319   4.404  49.912  1.00  0.00     0.034 C 
HETATM   18  C19 UNL     1      23.191   5.177  48.857  1.00  0.00     0.095 C 
HETATM   19  N6  UNL     1      24.420   5.833  48.477  1.00  0.00    -0.382 N 
HETATM   20  H18 UNL     1      22.050   3.498  47.875  1.00  0.00     0.162 HD
HETATM   21  H26 UNL     1      24.181   6.154  47.487  1.00  0.00     0.160 HD
ENDROOT
BRANCH   1  22
HETATM   22  C5  UNL     1      25.647   7.020  50.273  1.00  0.00     0.162 C 
BRANCH  22  23
HETATM   23  N1  UNL     1      26.848   7.800  50.301  1.00  0.00    -0.334 N 
HETATM   24  C4  UNL     1      27.086   9.159  50.017  1.00  0.00     0.360 C 
HETATM   25  O2  UNL     1      26.161   9.901  49.679  1.00  0.00    -0.239 OA
HETATM   26  H8  UNL     1      27.775   7.350  50.578  1.00  0.00     0.164 HD
BRANCH  24  27
HETATM   27  O1  UNL     1      28.272   9.826  50.061  1.00  0.00    -0.299 OA
BRANCH  27  28
HETATM   28  C2  UNL     1      29.429   9.467  49.344  1.00  0.00     0.125 C 
HETATM   29  C1  UNL     1      29.138   9.081  47.911  1.00  0.00     0.040 C 
HETATM   30  C3  UNL     1      30.507  10.525  49.429  1.00  0.00     0.040 C 
ENDBRANCH  27  28
ENDBRANCH  24  27
ENDBRANCH  22  23
ENDBRANCH   1  22
TORSDOF 4
ENDMDL
MODEL 5
REMARK VINA RESULT:      -7.2      2.325      3.622
REMARK  4 active torsions:
REMARK  status: ('A' for Active; 'I' for Inactive)
REMARK    1  A    between atoms: C2_2  and  O1_4 
REMARK    2  A    between atoms: O1_4  and  C4_5 
REMARK       I    between atoms: C4_5  and  N1_7 
REMARK    3  A    between atoms: N1_7  and  C5_8 
REMARK    4  A    between atoms: C5_8  and  C6_9 
ROOT
HETATM    1  C6  UNL     1      22.180   1.299  51.921  1.00  0.00     0.091 A 
HETATM    2  C7  UNL     1      21.052   2.035  52.542  1.00  0.00     0.068 A 
HETATM    3  C8  UNL     1      21.472   1.331  53.768  1.00  0.00     0.004 A 
HETATM    4  C9  UNL     1      22.505   0.644  53.254  1.00  0.00     0.035 A 
HETATM    5  N2  UNL     1      23.565  -0.302  53.565  1.00  0.00    -0.360 N 
HETATM    6  C10 UNL     1      23.280  -1.096  54.750  1.00  0.00     0.152 C 
HETATM    7  C11 UNL     1      24.834  -0.537  52.854  1.00  0.00     0.245 C 
HETATM    8  N3  UNL     1      25.853  -0.429  53.956  1.00  0.00    -0.244 NA
HETATM    9  C12 UNL     1      27.158  -0.353  53.793  1.00  0.00     0.129 C 
HETATM   10  N4  UNL     1      27.651   0.267  52.384  1.00  0.00    -0.233 NA
HETATM   11  C13 UNL     1      26.395   0.433  52.185  1.00  0.00     0.207 C 
HETATM   12  N5  UNL     1      26.843   1.900  52.733  1.00  0.00    -0.364 N 
HETATM   13  C14 UNL     1      27.951   2.384  53.733  1.00  0.00     0.082 C 
HETATM   14  C15 UNL     1      28.797   1.354  54.268  1.00  0.00     0.002 C 
HETATM   15  C16 UNL     1      28.442  -0.227  54.424  1.00  0.00     0.076 C 
HETATM   16  C17 UNL     1      29.549  -0.902  53.735  1.00  0.00     0.022 C 
HETATM   17  C18 UNL     1      25.054   0.805  52.065  1.00  0.00     0.034 C 
HETATM   18  C19 UNL     1      24.689   1.929  51.492  1.00  0.00     0.095 C 
HETATM   19  N6  UNL     1      23.269   2.177  51.575  1.00  0.00    -0.382 N 
HETATM   20  H18 UNL     1      26.424   2.923  52.535  1.00  0.00     0.162 HD
HETATM   21  H26 UNL     1      23.229   3.215  51.329  1.00  0.00     0.160 HD
ENDROOT
BRANCH   1  22
HETATM   22  C5  UNL     1      21.775   0.327  50.878  1.00  0.00     0.162 C 
BRANCH  22  23
HETATM   23  N1  UNL     1      20.943   0.917  49.872  1.00  0.00    -0.334 N 
HETATM   24  C4  UNL     1      21.254   1.709  48.749  1.00  0.00     0.360 C 
HETATM   25  O2  UNL     1      22.424   2.000  48.492  1.00  0.00    -0.239 OA
HETATM   26  H8  UNL     1      19.885   0.782  49.901  1.00  0.00     0.164 HD
BRANCH  24  27
HETATM   27  O1  UNL     1      20.394   2.241  47.839  1.00  0.00    -0.299 OA
BRANCH  27  28
HETATM   28  C2  UNL     1      19.468   3.268  48.105  1.00  0.00     0.125 C 
HETATM   29  C1  UNL     1      18.131   2.747  48.580  1.00  0.00     0.040 C 
HETATM   30  C3  UNL     1      20.027   4.312  49.046  1.00  0.00     0.040 C 
ENDBRANCH  27  28
ENDBRANCH  24  27
ENDBRANCH  22  23
ENDBRANCH   1  22
TORSDOF 4
ENDMDL
MODEL 6
REMARK VINA RESULT:      -7.2      6.608      8.811
REMARK  4 active torsions:
REMARK  status: ('A' for Active; 'I' for Inactive)
REMARK    1  A    between atoms: C2_2  and  O1_4 
REMARK    2  A    between atoms: O1_4  and  C4_5 
REMARK       I    between atoms: C4_5  and  N1_7 
REMARK    3  A    between atoms: N1_7  and  C5_8 
REMARK    4  A    between atoms: C5_8  and  C6_9 
ROOT
HETATM    1  C6  UNL     1      28.050   8.189  47.939  1.00  0.00     0.091 A 
HETATM    2  C7  UNL     1      27.224   8.762  46.848  1.00  0.00     0.068 A 
HETATM    3  C8  UNL     1      28.439   9.545  46.552  1.00  0.00     0.004 A 
HETATM    4  C9  UNL     1      29.227   9.056  47.523  1.00  0.00     0.035 A 
HETATM    5  N2  UNL     1      30.556   9.123  48.110  1.00  0.00    -0.360 N 
HETATM    6  C10 UNL     1      31.235  10.376  47.821  1.00  0.00     0.152 C 
HETATM    7  C11 UNL     1      31.261   8.117  48.924  1.00  0.00     0.245 C 
HETATM    8  N3  UNL     1      32.577   7.980  48.209  1.00  0.00    -0.244 NA
HETATM    9  C12 UNL     1      33.478   7.042  48.428  1.00  0.00     0.129 C 
HETATM   10  N4  UNL     1      32.907   5.651  49.022  1.00  0.00    -0.233 NA
HETATM   11  C13 UNL     1      31.770   6.230  48.887  1.00  0.00     0.207 C 
HETATM   12  N5  UNL     1      31.861   5.350  47.519  1.00  0.00    -0.364 N 
HETATM   13  C14 UNL     1      33.057   4.881  46.618  1.00  0.00     0.082 C 
HETATM   14  C15 UNL     1      34.366   5.245  47.084  1.00  0.00     0.002 C 
HETATM   15  C16 UNL     1      34.751   6.491  48.058  1.00  0.00     0.076 C 
HETATM   16  C17 UNL     1      35.502   5.860  49.150  1.00  0.00     0.022 C 
HETATM   17  C18 UNL     1      30.533   6.777  48.542  1.00  0.00     0.034 C 
HETATM   18  C19 UNL     1      29.542   6.039  48.094  1.00  0.00     0.095 C 
HETATM   19  N6  UNL     1      28.393   6.813  47.686  1.00  0.00    -0.382 N 
HETATM   20  H18 UNL     1      31.059   4.898  46.877  1.00  0.00     0.162 HD
HETATM   21  H26 UNL     1      27.855   6.091  47.114  1.00  0.00     0.160 HD
ENDROOT
BRANCH   1  22
HETATM   22  C5  UNL     1      27.556   8.494  49.303  1.00  0.00     0.162 C 
BRANCH  22  23
HETATM   23  N1  UNL     1      26.938   7.362  49.928  1.00  0.00    -0.334 N 
HETATM   24  C4  UNL     1      25.622   6.864  49.865  1.00  0.00     0.360 C 
HETATM   25  O2  UNL     1      24.771   7.426  49.171  1.00  0.00    -0.239 OA
HETATM   26  H8  UNL     1      27.504   6.727  50.572  1.00  0.00     0.164 HD
BRANCH  24  27
HETATM   27  O1  UNL     1      25.109   5.776  50.501  1.00  0.00    -0.299 OA
BRANCH  27  28
HETATM   28  C2  UNL     1      25.180   4.453  50.025  1.00  0.00     0.125 C 
HETATM   29  C1  UNL     1      24.040   4.099  49.096  1.00  0.00     0.040 C 
HETATM   30  C3  UNL     1      26.524   4.140  49.404  1.00  0.00     0.040 C 
ENDBRANCH  27  28
ENDBRANCH  24  27
ENDBRANCH  22  23
ENDBRANCH   1  22
TORSDOF 4
ENDMDL
MODEL 7
REMARK VINA RESULT:      -7.2      2.743      7.132
REMARK  4 active torsions:
REMARK  status: ('A' for Active; 'I' for Inactive)
REMARK    1  A    between atoms: C2_2  and  O1_4 
REMARK    2  A    between atoms: O1_4  and  C4_5 
REMARK       I    between atoms: C4_5  and  N1_7 
REMARK    3  A    between atoms: N1_7  and  C5_8 
REMARK    4  A    between atoms: C5_8  and  C6_9 
ROOT
HETATM    1  C6  UNL     1      24.707   3.933  50.591  1.00  0.00     0.091 A 
HETATM    2  C7  UNL     1      25.220   5.203  50.023  1.00  0.00     0.068 A 
HETATM    3  C8  UNL     1      24.360   4.854  48.875  1.00  0.00     0.004 A 
HETATM    4  C9  UNL     1      23.866   3.699  49.347  1.00  0.00     0.035 A 
HETATM    5  N2  UNL     1      22.972   2.590  49.053  1.00  0.00    -0.360 N 
HETATM    6  C10 UNL     1      22.744   2.415  47.627  1.00  0.00     0.152 C 
HETATM    7  C11 UNL     1      22.301   1.668  49.986  1.00  0.00     0.245 C 
HETATM    8  N3  UNL     1      20.862   1.752  49.554  1.00  0.00    -0.244 NA
HETATM    9  C12 UNL     1      19.830   1.270  50.217  1.00  0.00     0.129 C 
HETATM   10  N4  UNL     1      20.026   1.141  51.816  1.00  0.00    -0.233 NA
HETATM   11  C13 UNL     1      21.159   1.690  51.574  1.00  0.00     0.207 C 
HETATM   12  N5  UNL     1      20.255   2.971  52.013  1.00  0.00    -0.364 N 
HETATM   13  C14 UNL     1      18.729   3.311  51.875  1.00  0.00     0.082 C 
HETATM   14  C15 UNL     1      17.916   2.286  51.281  1.00  0.00     0.002 C 
HETATM   15  C16 UNL     1      18.404   1.110  50.266  1.00  0.00     0.076 C 
HETATM   16  C17 UNL     1      17.933  -0.122  50.911  1.00  0.00     0.022 C 
HETATM   17  C18 UNL     1      22.289   2.474  51.336  1.00  0.00     0.034 C 
HETATM   18  C19 UNL     1      22.700   3.386  52.188  1.00  0.00     0.095 C 
HETATM   19  N6  UNL     1      23.815   4.163  51.700  1.00  0.00    -0.382 N 
HETATM   20  H18 UNL     1      20.537   3.944  52.498  1.00  0.00     0.162 HD
HETATM   21  H26 UNL     1      23.799   4.988  52.376  1.00  0.00     0.160 HD
ENDROOT
BRANCH   1  22
HETATM   22  C5  UNL     1      25.743   2.893  50.798  1.00  0.00     0.162 C 
BRANCH  22  23
HETATM   23  N1  UNL     1      25.863   2.505  52.172  1.00  0.00    -0.334 N 
HETATM   24  C4  UNL     1      26.992   2.232  52.969  1.00  0.00     0.360 C 
HETATM   25  O2  UNL     1      28.129   2.320  52.499  1.00  0.00    -0.239 OA
HETATM   26  H8  UNL     1      24.992   2.377  52.773  1.00  0.00     0.164 HD
BRANCH  24  27
HETATM   27  O1  UNL     1      27.019   1.858  54.278  1.00  0.00    -0.299 OA
BRANCH  27  28
HETATM   28  C2  UNL     1      27.080   0.529  54.737  1.00  0.00     0.125 C 
HETATM   29  C1  UNL     1      26.202  -0.411  53.942  1.00  0.00     0.040 C 
HETATM   30  C3  UNL     1      28.502   0.020  54.829  1.00  0.00     0.040 C 
ENDBRANCH  27  28
ENDBRANCH  24  27
ENDBRANCH  22  23
ENDBRANCH   1  22
TORSDOF 4
ENDMDL
MODEL 8
REMARK VINA RESULT:      -7.2      3.275      5.376
REMARK  4 active torsions:
REMARK  status: ('A' for Active; 'I' for Inactive)
REMARK    1  A    between atoms: C2_2  and  O1_4 
REMARK    2  A    between atoms: O1_4  and  C4_5 
REMARK       I    between atoms: C4_5  and  N1_7 
REMARK    3  A    between atoms: N1_7  and  C5_8 
REMARK    4  A    between atoms: C5_8  and  C6_9 
ROOT
HETATM    1  C6  UNL     1      21.880   2.155  50.052  1.00  0.00     0.091 A 
HETATM    2  C7  UNL     1      21.461   0.917  49.352  1.00  0.00     0.068 A 
HETATM    3  C8  UNL     1      21.510   1.768  48.148  1.00  0.00     0.004 A 
HETATM    4  C9  UNL     1      21.891   2.914  48.735  1.00  0.00     0.035 A 
HETATM    5  N2  UNL     1      22.225   4.308  48.495  1.00  0.00    -0.360 N 
HETATM    6  C10 UNL     1      21.649   4.819  47.261  1.00  0.00     0.152 C 
HETATM    7  C11 UNL     1      23.041   5.220  49.316  1.00  0.00     0.245 C 
HETATM    8  N3  UNL     1      24.034   5.758  48.322  1.00  0.00    -0.244 NA
HETATM    9  C12 UNL     1      25.115   6.454  48.613  1.00  0.00     0.129 C 
HETATM   10  N4  UNL     1      25.735   6.199  50.084  1.00  0.00    -0.233 NA
HETATM   11  C13 UNL     1      24.799   5.325  50.166  1.00  0.00     0.207 C 
HETATM   12  N5  UNL     1      26.071   4.412  49.716  1.00  0.00    -0.364 N 
HETATM   13  C14 UNL     1      27.345   4.694  48.845  1.00  0.00     0.082 C 
HETATM   14  C15 UNL     1      27.479   6.039  48.358  1.00  0.00     0.002 C 
HETATM   15  C16 UNL     1      26.286   7.118  48.113  1.00  0.00     0.076 C 
HETATM   16  C17 UNL     1      26.717   8.293  48.882  1.00  0.00     0.022 C 
HETATM   17  C18 UNL     1      23.924   4.238  50.169  1.00  0.00     0.034 C 
HETATM   18  C19 UNL     1      24.228   3.096  50.743  1.00  0.00     0.095 C 
HETATM   19  N6  UNL     1      23.236   2.068  50.533  1.00  0.00    -0.382 N 
HETATM   20  H18 UNL     1      26.309   3.331  49.908  1.00  0.00     0.162 HD
HETATM   21  H26 UNL     1      23.785   1.196  50.810  1.00  0.00     0.160 HD
ENDROOT
BRANCH   1  22
HETATM   22  C5  UNL     1      20.884   2.678  51.017  1.00  0.00     0.162 C 
BRANCH  22  23
HETATM   23  N1  UNL     1      21.050   2.129  52.329  1.00  0.00    -0.334 N 
HETATM   24  C4  UNL     1      20.480   0.998  52.947  1.00  0.00     0.360 C 
HETATM   25  O2  UNL     1      19.687   0.281  52.333  1.00  0.00    -0.239 OA
HETATM   26  H8  UNL     1      21.706   2.595  53.029  1.00  0.00     0.164 HD
BRANCH  24  27
HETATM   27  O1  UNL     1      20.688   0.545  54.214  1.00  0.00    -0.299 OA
BRANCH  27  28
HETATM   28  C2  UNL     1      21.672  -0.391  54.585  1.00  0.00     0.125 C 
HETATM   29  C1  UNL     1      21.186  -1.821  54.506  1.00  0.00     0.040 C 
HETATM   30  C3  UNL     1      22.964  -0.197  53.822  1.00  0.00     0.040 C 
ENDBRANCH  27  28
ENDBRANCH  24  27
ENDBRANCH  22  23
ENDBRANCH   1  22
TORSDOF 4
ENDMDL
MODEL 9
REMARK VINA RESULT:      -6.9      4.568      8.343
REMARK  4 active torsions:
REMARK  status: ('A' for Active; 'I' for Inactive)
REMARK    1  A    between atoms: C2_2  and  O1_4 
REMARK    2  A    between atoms: O1_4  and  C4_5 
REMARK       I    between atoms: C4_5  and  N1_7 
REMARK    3  A    between atoms: N1_7  and  C5_8 
REMARK    4  A    between atoms: C5_8  and  C6_9 
ROOT
HETATM    1  C6  UNL     1      25.994   6.951  49.351  1.00  0.00     0.091 A 
HETATM    2  C7  UNL     1      26.329   8.177  50.114  1.00  0.00     0.068 A 
HETATM    3  C8  UNL     1      24.867   8.366  50.151  1.00  0.00     0.004 A 
HETATM    4  C9  UNL     1      24.512   7.266  49.466  1.00  0.00     0.035 A 
HETATM    5  N2  UNL     1      23.381   6.508  48.955  1.00  0.00    -0.360 N 
HETATM    6  C10 UNL     1      22.188   7.323  48.788  1.00  0.00     0.152 C 
HETATM    7  C11 UNL     1      23.307   5.079  48.604  1.00  0.00     0.245 C 
HETATM    8  N3  UNL     1      22.102   4.614  49.376  1.00  0.00    -0.244 NA
HETATM    9  C12 UNL     1      21.743   3.359  49.561  1.00  0.00     0.129 C 
HETATM   10  N4  UNL     1      22.941   2.275  49.502  1.00  0.00    -0.233 NA
HETATM   11  C13 UNL     1      23.678   3.315  49.362  1.00  0.00     0.207 C 
HETATM   12  N5  UNL     1      23.801   3.032  50.961  1.00  0.00    -0.364 N 
HETATM   13  C14 UNL     1      22.824   2.415  52.024  1.00  0.00     0.082 C 
HETATM   14  C15 UNL     1      21.564   1.951  51.514  1.00  0.00     0.002 C 
HETATM   15  C16 UNL     1      20.805   2.455  50.165  1.00  0.00     0.076 C 
HETATM   16  C17 UNL     1      20.562   1.213  49.419  1.00  0.00     0.022 C 
HETATM   17  C18 UNL     1      24.490   4.449  49.425  1.00  0.00     0.034 C 
HETATM   18  C19 UNL     1      25.634   4.455  50.071  1.00  0.00     0.095 C 
HETATM   19  N6  UNL     1      26.260   5.756  50.112  1.00  0.00    -0.382 N 
HETATM   20  H18 UNL     1      24.626   3.252  51.690  1.00  0.00     0.162 HD
HETATM   21  H26 UNL     1      26.979   5.612  50.887  1.00  0.00     0.160 HD
ENDROOT
BRANCH   1  22
HETATM   22  C5  UNL     1      26.482   6.949  47.951  1.00  0.00     0.162 C 
BRANCH  22  23
HETATM   23  N1  UNL     1      27.904   7.101  47.866  1.00  0.00    -0.334 N 
HETATM   24  C4  UNL     1      28.954   6.182  48.063  1.00  0.00     0.360 C 
HETATM   25  O2  UNL     1      28.715   5.010  48.360  1.00  0.00    -0.239 OA
HETATM   26  H8  UNL     1      28.331   8.045  47.611  1.00  0.00     0.164 HD
BRANCH  24  27
HETATM   27  O1  UNL     1      30.293   6.412  47.969  1.00  0.00    -0.299 OA
BRANCH  27  28
HETATM   28  C2  UNL     1      31.250   6.011  48.920  1.00  0.00     0.125 C 
HETATM   29  C1  UNL     1      32.267   5.043  48.361  1.00  0.00     0.040 C 
HETATM   30  C3  UNL     1      31.914   7.191  49.595  1.00  0.00     0.040 C 
ENDBRANCH  27  28
ENDBRANCH  24  27
ENDBRANCH  22  23
ENDBRANCH   1  22
TORSDOF 4
ENDMDL
