MODEL 1
REMARK VINA RESULT:      -6.7      0.000      0.000
REMARK  5 active torsions:
REMARK  status: ('A' for Active; 'I' for Inactive)
REMARK    1  A    between atoms: O1_2  and  C2_3 
REMARK    2  A    between atoms: C5_6  and  N1_7 
REMARK    3  A    between atoms: N1_7  and  C7_9 
REMARK    4  A    between atoms: C8_10  and  C9_11 
REMARK    5  A    between atoms: C10_12  and  C11_13 
ROOT
HETATM    1  C2  UNL     1      21.856   0.034  52.464  1.00  0.00     0.077 A 
HETATM    2  C3  UNL     1      23.231   0.056  52.571  1.00  0.00     0.071 A 
HETATM    3  C4  UNL     1      23.894  -0.407  53.686  1.00  0.00     0.088 A 
HETATM    4  C5  UNL     1      25.257  -0.446  53.930  1.00  0.00     0.158 A 
HETATM    5  N2  UNL     1      25.352  -0.994  55.169  1.00  0.00    -0.223 NA
HETATM    6  C12 UNL     1      24.128  -1.271  55.650  1.00  0.00     0.216 A 
HETATM    7  N3  UNL     1      23.220  -0.910  54.736  1.00  0.00    -0.312 N 
HETATM    8  C13 UNL     1      21.878  -0.933  54.633  1.00  0.00     0.107 A 
HETATM    9  C14 UNL     1      21.154  -0.483  53.543  1.00  0.00    -0.013 A 
HETATM   10  C15 UNL     1      19.661  -0.573  53.574  1.00  0.00     0.052 C 
ENDROOT
BRANCH   4  11
HETATM   11  N1  UNL     1      26.378  -0.040  53.152  1.00  0.00    -0.344 N 
HETATM   12  C6  UNL     1      27.379  -1.023  52.780  1.00  0.00     0.157 C 
BRANCH  11  13
HETATM   13  C7  UNL     1      26.533   1.311  52.732  1.00  0.00     0.092 C 
HETATM   14  C8  UNL     1      26.347   1.670  51.473  1.00  0.00     0.017 C 
BRANCH  14  15
HETATM   15  C9  UNL     1      26.508   3.054  51.050  1.00  0.00    -0.002 C 
HETATM   16  C10 UNL     1      26.067   3.456  49.888  1.00  0.00    -0.016 C 
BRANCH  16  17
HETATM   17  C11 UNL     1      26.136   4.800  49.291  1.00  0.00     0.112 C 
HETATM   18 BR1  UNL     1      27.911   5.111  48.583  1.00  0.00    -0.092 Br
ENDBRANCH  16  17
ENDBRANCH  14  15
ENDBRANCH  11  13
ENDBRANCH   4  11
BRANCH   1  19
HETATM   19  O1  UNL     1      21.097   0.466  51.410  1.00  0.00    -0.355 OA
HETATM   20  C1  UNL     1      21.781   0.935  50.246  1.00  0.00     0.210 C 
ENDBRANCH   1  19
TORSDOF 5
ENDMDL
MODEL 2
REMARK VINA RESULT:      -6.4      3.297      5.912
REMARK  5 active torsions:
REMARK  status: ('A' for Active; 'I' for Inactive)
REMARK    1  A    between atoms: O1_2  and  C2_3 
REMARK    2  A    between atoms: C5_6  and  N1_7 
REMARK    3  A    between atoms: N1_7  and  C7_9 
REMARK    4  A    between atoms: C8_10  and  C9_11 
REMARK    5  A    between atoms: C10_12  and  C11_13 
ROOT
HETATM    1  C2  UNL     1      24.549   2.420  51.288  1.00  0.00     0.077 A 
HETATM    2  C3  UNL     1      24.193   1.448  52.199  1.00  0.00     0.071 A 
HETATM    3  C4  UNL     1      25.105   0.561  52.729  1.00  0.00     0.088 A 
HETATM    4  C5  UNL     1      24.893  -0.457  53.644  1.00  0.00     0.158 A 
HETATM    5  N2  UNL     1      26.123  -1.007  53.813  1.00  0.00    -0.223 NA
HETATM    6  C12 UNL     1      27.027  -0.368  53.049  1.00  0.00     0.216 A 
HETATM    7  N3  UNL     1      26.403   0.605  52.376  1.00  0.00    -0.312 N 
HETATM    8  C13 UNL     1      26.751   1.553  51.486  1.00  0.00     0.107 A 
HETATM    9  C14 UNL     1      25.886   2.470  50.919  1.00  0.00    -0.013 A 
HETATM   10  C15 UNL     1      26.422   3.469  49.941  1.00  0.00     0.052 C 
ENDROOT
BRANCH   4  11
HETATM   11  N1  UNL     1      23.721  -0.910  54.313  1.00  0.00    -0.344 N 
HETATM   12  C6  UNL     1      23.808  -1.323  55.701  1.00  0.00     0.157 C 
BRANCH  11  13
HETATM   13  C7  UNL     1      22.465  -0.964  53.644  1.00  0.00     0.092 C 
HETATM   14  C8  UNL     1      21.345  -0.599  54.245  1.00  0.00     0.017 C 
BRANCH  14  15
HETATM   15  C9  UNL     1      20.064  -0.658  53.555  1.00  0.00    -0.002 C 
HETATM   16  C10 UNL     1      19.838   0.077  52.499  1.00  0.00    -0.016 C 
BRANCH  16  17
HETATM   17  C11 UNL     1      18.620   0.155  51.675  1.00  0.00     0.112 C 
HETATM   18 BR1  UNL     1      17.231  -0.945  52.454  1.00  0.00    -0.092 Br
ENDBRANCH  16  17
ENDBRANCH  14  15
ENDBRANCH  11  13
ENDBRANCH   4  11
BRANCH   1  19
HETATM   19  O1  UNL     1      23.732   3.347  50.699  1.00  0.00    -0.355 OA
HETATM   20  C1  UNL     1      22.976   4.206  51.556  1.00  0.00     0.210 C 
ENDBRANCH   1  19
TORSDOF 5
ENDMDL
MODEL 3
REMARK VINA RESULT:      -6.4      2.618      4.748
REMARK  5 active torsions:
REMARK  status: ('A' for Active; 'I' for Inactive)
REMARK    1  A    between atoms: O1_2  and  C2_3 
REMARK    2  A    between atoms: C5_6  and  N1_7 
REMARK    3  A    between atoms: N1_7  and  C7_9 
REMARK    4  A    between atoms: C8_10  and  C9_11 
REMARK    5  A    between atoms: C10_12  and  C11_13 
ROOT
HETATM    1  C2  UNL     1      27.224   1.103  52.828  1.00  0.00     0.077 A 
HETATM    2  C3  UNL     1      26.075   1.806  52.531  1.00  0.00     0.071 A 
HETATM    3  C4  UNL     1      24.818   1.257  52.655  1.00  0.00     0.088 A 
HETATM    4  C5  UNL     1      23.588   1.838  52.396  1.00  0.00     0.158 A 
HETATM    5  N2  UNL     1      22.694   0.858  52.686  1.00  0.00    -0.223 NA
HETATM    6  C12 UNL     1      23.336  -0.250  53.096  1.00  0.00     0.216 A 
HETATM    7  N3  UNL     1      24.652  -0.010  53.080  1.00  0.00    -0.312 N 
HETATM    8  C13 UNL     1      25.773  -0.697  53.370  1.00  0.00     0.107 A 
HETATM    9  C14 UNL     1      27.061  -0.203  53.265  1.00  0.00    -0.013 A 
HETATM   10  C15 UNL     1      28.211  -1.090  53.625  1.00  0.00     0.052 C 
ENDROOT
BRANCH   4  11
HETATM   11  N1  UNL     1      23.224   3.135  51.934  1.00  0.00    -0.344 N 
HETATM   12  C6  UNL     1      21.899   3.649  52.230  1.00  0.00     0.157 C 
BRANCH  11  13
HETATM   13  C7  UNL     1      24.135   3.935  51.189  1.00  0.00     0.092 C 
HETATM   14  C8  UNL     1      24.367   3.706  49.907  1.00  0.00     0.017 C 
BRANCH  14  15
HETATM   15  C9  UNL     1      25.302   4.528  49.150  1.00  0.00    -0.002 C 
HETATM   16  C10 UNL     1      26.591   4.354  49.265  1.00  0.00    -0.016 C 
BRANCH  16  17
HETATM   17  C11 UNL     1      27.682   5.078  48.590  1.00  0.00     0.112 C 
HETATM   18 BR1  UNL     1      27.218   6.950  48.422  1.00  0.00    -0.092 Br
ENDBRANCH  16  17
ENDBRANCH  14  15
ENDBRANCH  11  13
ENDBRANCH   4  11
BRANCH   1  19
HETATM   19  O1  UNL     1      28.516   1.547  52.740  1.00  0.00    -0.355 OA
HETATM   20  C1  UNL     1      28.965   2.485  53.719  1.00  0.00     0.210 C 
ENDBRANCH   1  19
TORSDOF 5
ENDMDL
MODEL 4
REMARK VINA RESULT:      -6.3      1.919      3.255
REMARK  5 active torsions:
REMARK  status: ('A' for Active; 'I' for Inactive)
REMARK    1  A    between atoms: O1_2  and  C2_3 
REMARK    2  A    between atoms: C5_6  and  N1_7 
REMARK    3  A    between atoms: N1_7  and  C7_9 
REMARK    4  A    between atoms: C8_10  and  C9_11 
REMARK    5  A    between atoms: C10_12  and  C11_13 
ROOT
HETATM    1  C2  UNL     1      22.380   0.382  53.047  1.00  0.00     0.077 A 
HETATM    2  C3  UNL     1      23.204   1.154  52.256  1.00  0.00     0.071 A 
HETATM    3  C4  UNL     1      24.578   1.081  52.327  1.00  0.00     0.088 A 
HETATM    4  C5  UNL     1      25.523   1.788  51.602  1.00  0.00     0.158 A 
HETATM    5  N2  UNL     1      26.710   1.324  52.070  1.00  0.00    -0.223 NA
HETATM    6  C12 UNL     1      26.504   0.394  53.019  1.00  0.00     0.216 A 
HETATM    7  N3  UNL     1      25.186   0.237  53.183  1.00  0.00    -0.312 N 
HETATM    8  C13 UNL     1      24.382  -0.517  53.955  1.00  0.00     0.107 A 
HETATM    9  C14 UNL     1      22.999  -0.489  53.932  1.00  0.00    -0.013 A 
HETATM   10  C15 UNL     1      22.238  -1.390  54.853  1.00  0.00     0.052 C 
ENDROOT
BRANCH   4  11
HETATM   11  N1  UNL     1      25.401   2.783  50.591  1.00  0.00    -0.344 N 
HETATM   12  C6  UNL     1      24.095   3.349  50.305  1.00  0.00     0.157 C 
BRANCH  11  13
HETATM   13  C7  UNL     1      26.535   3.231  49.857  1.00  0.00     0.092 C 
HETATM   14  C8  UNL     1      26.584   4.444  49.332  1.00  0.00     0.017 C 
BRANCH  14  15
HETATM   15  C9  UNL     1      27.748   4.897  48.582  1.00  0.00    -0.002 C 
HETATM   16  C10 UNL     1      27.933   6.165  48.334  1.00  0.00    -0.016 C 
BRANCH  16  17
HETATM   17  C11 UNL     1      29.035   6.809  47.600  1.00  0.00     0.112 C 
HETATM   18 BR1  UNL     1      30.686   5.853  47.930  1.00  0.00    -0.092 Br
ENDBRANCH  16  17
ENDBRANCH  14  15
ENDBRANCH  11  13
ENDBRANCH   4  11
BRANCH   1  19
HETATM   19  O1  UNL     1      21.011   0.374  53.061  1.00  0.00    -0.355 OA
HETATM   20  C1  UNL     1      20.336   1.600  52.774  1.00  0.00     0.210 C 
ENDBRANCH   1  19
TORSDOF 5
ENDMDL
MODEL 5
REMARK VINA RESULT:      -6.3      4.262      7.032
REMARK  5 active torsions:
REMARK  status: ('A' for Active; 'I' for Inactive)
REMARK    1  A    between atoms: O1_2  and  C2_3 
REMARK    2  A    between atoms: C5_6  and  N1_7 
REMARK    3  A    between atoms: N1_7  and  C7_9 
REMARK    4  A    between atoms: C8_10  and  C9_11 
REMARK    5  A    between atoms: C10_12  and  C11_13 
ROOT
HETATM    1  C2  UNL     1      25.941  -0.349  53.532  1.00  0.00     0.077 A 
HETATM    2  C3  UNL     1      24.731  -0.008  52.966  1.00  0.00     0.071 A 
HETATM    3  C4  UNL     1      24.290   1.294  52.891  1.00  0.00     0.088 A 
HETATM    4  C5  UNL     1      23.109   1.781  52.356  1.00  0.00     0.158 A 
HETATM    5  N2  UNL     1      23.191   3.123  52.545  1.00  0.00    -0.223 NA
HETATM    6  C12 UNL     1      24.347   3.436  53.156  1.00  0.00     0.216 A 
HETATM    7  N3  UNL     1      25.033   2.308  53.373  1.00  0.00    -0.312 N 
HETATM    8  C13 UNL     1      26.215   1.976  53.926  1.00  0.00     0.107 A 
HETATM    9  C14 UNL     1      26.712   0.690  54.032  1.00  0.00    -0.013 A 
HETATM   10  C15 UNL     1      28.047   0.477  54.674  1.00  0.00     0.052 C 
ENDROOT
BRANCH   4  11
HETATM   11  N1  UNL     1      22.005   1.132  51.734  1.00  0.00    -0.344 N 
HETATM   12  C6  UNL     1      21.882   1.164  50.288  1.00  0.00     0.157 C 
BRANCH  11  13
HETATM   13  C7  UNL     1      21.020   0.452  52.506  1.00  0.00     0.092 C 
HETATM   14  C8  UNL     1      19.837   0.145  52.001  1.00  0.00     0.017 C 
BRANCH  14  15
HETATM   15  C9  UNL     1      18.834  -0.550  52.796  1.00  0.00    -0.002 C 
HETATM   16  C10 UNL     1      17.744  -1.013  52.244  1.00  0.00    -0.016 C 
BRANCH  16  17
HETATM   17  C11 UNL     1      16.627  -1.735  52.875  1.00  0.00     0.112 C 
HETATM   18 BR1  UNL     1      17.243  -3.449  53.530  1.00  0.00    -0.092 Br
ENDBRANCH  16  17
ENDBRANCH  14  15
ENDBRANCH  11  13
ENDBRANCH   4  11
BRANCH   1  19
HETATM   19  O1  UNL     1      26.475  -1.604  53.661  1.00  0.00    -0.355 OA
HETATM   20  C1  UNL     1      26.985  -2.233  52.483  1.00  0.00     0.210 C 
ENDBRANCH   1  19
TORSDOF 5
ENDMDL
MODEL 6
REMARK VINA RESULT:      -6.3      3.137      5.038
REMARK  5 active torsions:
REMARK  status: ('A' for Active; 'I' for Inactive)
REMARK    1  A    between atoms: O1_2  and  C2_3 
REMARK    2  A    between atoms: C5_6  and  N1_7 
REMARK    3  A    between atoms: N1_7  and  C7_9 
REMARK    4  A    between atoms: C8_10  and  C9_11 
REMARK    5  A    between atoms: C10_12  and  C11_13 
ROOT
HETATM    1  C2  UNL     1      25.629   1.874  53.458  1.00  0.00     0.077 A 
HETATM    2  C3  UNL     1      25.002   2.854  52.718  1.00  0.00     0.071 A 
HETATM    3  C4  UNL     1      23.907   2.595  51.924  1.00  0.00     0.088 A 
HETATM    4  C5  UNL     1      23.182   3.471  51.133  1.00  0.00     0.158 A 
HETATM    5  N2  UNL     1      22.219   2.691  50.577  1.00  0.00    -0.223 NA
HETATM    6  C12 UNL     1      22.348   1.421  51.000  1.00  0.00     0.216 A 
HETATM    7  N3  UNL     1      23.391   1.354  51.836  1.00  0.00    -0.312 N 
HETATM    8  C13 UNL     1      24.002   0.397  52.558  1.00  0.00     0.107 A 
HETATM    9  C14 UNL     1      25.103   0.593  53.371  1.00  0.00    -0.013 A 
HETATM   10  C15 UNL     1      25.675  -0.572  54.116  1.00  0.00     0.052 C 
ENDROOT
BRANCH   4  11
HETATM   11  N1  UNL     1      23.318   4.866  50.883  1.00  0.00    -0.344 N 
HETATM   12  C6  UNL     1      22.175   5.739  51.082  1.00  0.00     0.157 C 
BRANCH  11  13
HETATM   13  C7  UNL     1      24.553   5.419  50.442  1.00  0.00     0.092 C 
HETATM   14  C8  UNL     1      25.047   5.144  49.247  1.00  0.00     0.017 C 
BRANCH  14  15
HETATM   15  C9  UNL     1      26.312   5.713  48.803  1.00  0.00    -0.002 C 
HETATM   16  C10 UNL     1      27.390   4.979  48.737  1.00  0.00    -0.016 C 
BRANCH  16  17
HETATM   17  C11 UNL     1      28.747   5.370  48.318  1.00  0.00     0.112 C 
HETATM   18 BR1  UNL     1      28.703   7.136  47.528  1.00  0.00    -0.092 Br
ENDBRANCH  16  17
ENDBRANCH  14  15
ENDBRANCH  11  13
ENDBRANCH   4  11
BRANCH   1  19
HETATM   19  O1  UNL     1      26.719   2.019  54.275  1.00  0.00    -0.355 OA
HETATM   20  C1  UNL     1      27.987   2.245  53.657  1.00  0.00     0.210 C 
ENDBRANCH   1  19
TORSDOF 5
ENDMDL
MODEL 7
REMARK VINA RESULT:      -6.3      4.745      8.024
REMARK  5 active torsions:
REMARK  status: ('A' for Active; 'I' for Inactive)
REMARK    1  A    between atoms: O1_2  and  C2_3 
REMARK    2  A    between atoms: C5_6  and  N1_7 
REMARK    3  A    between atoms: N1_7  and  C7_9 
REMARK    4  A    between atoms: C8_10  and  C9_11 
REMARK    5  A    between atoms: C10_12  and  C11_13 
ROOT
HETATM    1  C2  UNL     1      27.388   6.517  48.590  1.00  0.00     0.077 A 
HETATM    2  C3  UNL     1      26.544   5.520  49.032  1.00  0.00     0.071 A 
HETATM    3  C4  UNL     1      25.523   5.757  49.926  1.00  0.00     0.088 A 
HETATM    4  C5  UNL     1      24.607   4.862  50.453  1.00  0.00     0.158 A 
HETATM    5  N2  UNL     1      23.836   5.626  51.271  1.00  0.00    -0.223 NA
HETATM    6  C12 UNL     1      24.255   6.903  51.245  1.00  0.00     0.216 A 
HETATM    7  N3  UNL     1      25.299   6.992  50.413  1.00  0.00    -0.312 N 
HETATM    8  C13 UNL     1      26.122   7.966  49.982  1.00  0.00     0.107 A 
HETATM    9  C14 UNL     1      27.163   7.792  49.088  1.00  0.00    -0.013 A 
HETATM   10  C15 UNL     1      27.995   8.974  48.701  1.00  0.00     0.052 C 
ENDROOT
BRANCH   4  11
HETATM   11  N1  UNL     1      24.420   3.464  50.262  1.00  0.00    -0.344 N 
HETATM   12  C6  UNL     1      23.603   3.000  49.155  1.00  0.00     0.157 C 
BRANCH  11  13
HETATM   13  C7  UNL     1      25.020   2.514  51.136  1.00  0.00     0.092 C 
HETATM   14  C8  UNL     1      26.325   2.299  51.132  1.00  0.00     0.017 C 
BRANCH  14  15
HETATM   15  C9  UNL     1      26.932   1.324  52.028  1.00  0.00    -0.002 C 
HETATM   16  C10 UNL     1      26.577   0.068  51.991  1.00  0.00    -0.016 C 
BRANCH  16  17
HETATM   17  C11 UNL     1      27.072  -1.053  52.809  1.00  0.00     0.112 C 
HETATM   18 BR1  UNL     1      28.780  -0.589  53.591  1.00  0.00    -0.092 Br
ENDBRANCH  16  17
ENDBRANCH  14  15
ENDBRANCH  11  13
ENDBRANCH   4  11
BRANCH   1  19
HETATM   19  O1  UNL     1      28.429   6.395  47.709  1.00  0.00    -0.355 OA
HETATM   20  C1  UNL     1      29.561   5.627  48.121  1.00  0.00     0.210 C 
ENDBRANCH   1  19
TORSDOF 5
ENDMDL
MODEL 8
REMARK VINA RESULT:      -6.2      2.035      4.596
REMARK  5 active torsions:
REMARK  status: ('A' for Active; 'I' for Inactive)
REMARK    1  A    between atoms: O1_2  and  C2_3 
REMARK    2  A    between atoms: C5_6  and  N1_7 
REMARK    3  A    between atoms: N1_7  and  C7_9 
REMARK    4  A    between atoms: C8_10  and  C9_11 
REMARK    5  A    between atoms: C10_12  and  C11_13 
ROOT
HETATM    1  C2  UNL     1      25.653   0.358  52.648  1.00  0.00     0.077 A 
HETATM    2  C3  UNL     1      24.276   0.289  52.683  1.00  0.00     0.071 A 
HETATM    3  C4  UNL     1      23.592  -0.322  53.710  1.00  0.00     0.088 A 
HETATM    4  C5  UNL     1      22.224  -0.466  53.876  1.00  0.00     0.158 A 
HETATM    5  N2  UNL     1      22.105  -1.139  55.050  1.00  0.00    -0.223 NA
HETATM    6  C12 UNL     1      23.321  -1.391  55.567  1.00  0.00     0.216 A 
HETATM    7  N3  UNL     1      24.246  -0.886  54.742  1.00  0.00    -0.312 N 
HETATM    8  C13 UNL     1      25.590  -0.820  54.709  1.00  0.00     0.107 A 
HETATM    9  C14 UNL     1      26.335  -0.222  53.709  1.00  0.00    -0.013 A 
HETATM   10  C15 UNL     1      27.828  -0.226  53.810  1.00  0.00     0.052 C 
ENDROOT
BRANCH   4  11
HETATM   11  N1  UNL     1      21.118  -0.053  53.080  1.00  0.00    -0.344 N 
HETATM   12  C6  UNL     1      19.783  -0.504  53.430  1.00  0.00     0.157 C 
BRANCH  11  13
HETATM   13  C7  UNL     1      21.298   0.792  51.950  1.00  0.00     0.092 C 
HETATM   14  C8  UNL     1      21.175   0.332  50.716  1.00  0.00     0.017 C 
BRANCH  14  15
HETATM   15  C9  UNL     1      21.361   1.203  49.563  1.00  0.00    -0.002 C 
HETATM   16  C10 UNL     1      22.414   1.970  49.466  1.00  0.00    -0.016 C 
BRANCH  16  17
HETATM   17  C11 UNL     1      22.775   2.908  48.390  1.00  0.00     0.112 C 
HETATM   18 BR1  UNL     1      23.885   4.325  49.102  1.00  0.00    -0.092 Br
ENDBRANCH  16  17
ENDBRANCH  14  15
ENDBRANCH  11  13
ENDBRANCH   4  11
BRANCH   1  19
HETATM   19  O1  UNL     1      26.433   0.937  51.683  1.00  0.00    -0.355 OA
HETATM   20  C1  UNL     1      26.360   2.356  51.531  1.00  0.00     0.210 C 
ENDBRANCH   1  19
TORSDOF 5
ENDMDL
MODEL 9
REMARK VINA RESULT:      -6.2      2.938      4.516
REMARK  5 active torsions:
REMARK  status: ('A' for Active; 'I' for Inactive)
REMARK    1  A    between atoms: O1_2  and  C2_3 
REMARK    2  A    between atoms: C5_6  and  N1_7 
REMARK    3  A    between atoms: N1_7  and  C7_9 
REMARK    4  A    between atoms: C8_10  and  C9_11 
REMARK    5  A    between atoms: C10_12  and  C11_13 
ROOT
HETATM    1  C2  UNL     1      23.147  -0.380  53.599  1.00  0.00     0.077 A 
HETATM    2  C3  UNL     1      23.874   0.471  52.793  1.00  0.00     0.071 A 
HETATM    3  C4  UNL     1      23.292   1.224  51.798  1.00  0.00     0.088 A 
HETATM    4  C5  UNL     1      23.891   2.112  50.919  1.00  0.00     0.158 A 
HETATM    5  N2  UNL     1      22.861   2.569  50.161  1.00  0.00    -0.223 NA
HETATM    6  C12 UNL     1      21.708   1.997  50.550  1.00  0.00     0.216 A 
HETATM    7  N3  UNL     1      21.968   1.163  51.564  1.00  0.00    -0.312 N 
HETATM    8  C13 UNL     1      21.257   0.333  52.350  1.00  0.00     0.107 A 
HETATM    9  C14 UNL     1      21.781  -0.449  53.364  1.00  0.00    -0.013 A 
HETATM   10  C15 UNL     1      20.863  -1.325  54.156  1.00  0.00     0.052 C 
ENDROOT
BRANCH   4  11
HETATM   11  N1  UNL     1      25.244   2.525  50.756  1.00  0.00    -0.344 N 
HETATM   12  C6  UNL     1      25.548   3.626  49.860  1.00  0.00     0.157 C 
BRANCH  11  13
HETATM   13  C7  UNL     1      26.302   1.878  51.455  1.00  0.00     0.092 C 
HETATM   14  C8  UNL     1      26.985   2.498  52.402  1.00  0.00     0.017 C 
BRANCH  14  15
HETATM   15  C9  UNL     1      28.067   1.831  53.114  1.00  0.00    -0.002 C 
HETATM   16  C10 UNL     1      27.818   0.864  53.956  1.00  0.00    -0.016 C 
BRANCH  16  17
HETATM   17  C11 UNL     1      28.767   0.077  54.761  1.00  0.00     0.112 C 
HETATM   18 BR1  UNL     1      29.842  -1.038  53.599  1.00  0.00    -0.092 Br
ENDBRANCH  16  17
ENDBRANCH  14  15
ENDBRANCH  11  13
ENDBRANCH   4  11
BRANCH   1  19
HETATM   19  O1  UNL     1      23.619  -1.172  54.612  1.00  0.00    -0.355 OA
HETATM   20  C1  UNL     1      24.920  -0.886  55.127  1.00  0.00     0.210 C 
ENDBRANCH   1  19
TORSDOF 5
ENDMDL
