MODEL 1
REMARK VINA RESULT:      -9.4      0.000      0.000
REMARK  2 active torsions:
REMARK  status: ('A' for Active; 'I' for Inactive)
REMARK    1  A    between atoms: N5_22  and  C17_23 
REMARK    2  A    between atoms: C17_23  and  C19_25 
ROOT
HETATM    1  C1  UNL     1      22.577  -1.194  54.491  1.00  0.00     0.043 C 
HETATM    2  C2  UNL     1      23.648  -0.328  53.836  1.00  0.00    -0.084 C 
HETATM    3  C3  UNL     1      23.245   0.384  52.835  1.00  0.00     0.005 C 
HETATM    4  C4  UNL     1      23.225   1.313  51.726  1.00  0.00    -0.075 C 
HETATM    5  C5  UNL     1      24.516   1.746  51.843  1.00  0.00     0.029 C 
HETATM    6  C6  UNL     1      25.881   1.806  52.451  1.00  0.00     0.035 C 
HETATM    7  C7  UNL     1      27.031   2.470  52.201  1.00  0.00     0.009 C 
HETATM    8  C8  UNL     1      27.610   1.813  53.318  1.00  0.00     0.057 C 
HETATM    9  C9  UNL     1      26.650   1.074  54.208  1.00  0.00     0.006 C 
HETATM   10  C10 UNL     1      26.196  -0.279  53.867  1.00  0.00     0.005 C 
HETATM   11  C11 UNL     1      24.903  -0.757  54.493  1.00  0.00     0.034 C 
HETATM   12  N1  UNL     1      26.643   3.199  51.108  1.00  0.00    -0.324 N 
HETATM   13  C12 UNL     1      26.251   3.935  50.004  1.00  0.00     0.293 C 
HETATM   14  O1  UNL     1      27.005   3.237  49.332  1.00  0.00    -0.264 OA
HETATM   15  C13 UNL     1      25.290   5.063  49.930  1.00  0.00     0.219 A 
HETATM   16  N2  UNL     1      26.042   6.127  49.839  1.00  0.00    -0.234 NA
HETATM   17  C14 UNL     1      25.270   7.226  49.786  1.00  0.00     0.162 A 
HETATM   18  C15 UNL     1      23.987   6.667  49.856  1.00  0.00     0.155 A 
HETATM   19  C16 UNL     1      22.895   7.641  49.811  1.00  0.00     0.121 C 
HETATM   20  N3  UNL     1      22.022   8.435  49.767  1.00  0.00    -0.190 NA
HETATM   21  N4  UNL     1      23.988   5.295  49.948  1.00  0.00    -0.223 N 
HETATM   22  N5  UNL     1      22.668   4.767  50.027  1.00  0.00    -0.311 N 
HETATM   23  C20 UNL     1      21.801   4.174  51.057  1.00  0.00     0.144 C 
HETATM   24  C21 UNL     1      21.394   2.755  50.734  1.00  0.00     0.026 C 
HETATM   25  C22 UNL     1      22.499   1.812  50.600  1.00  0.00     0.036 C 
HETATM   26  H15 UNL     1      26.186   3.835  51.833  1.00  0.00     0.169 HD
ENDROOT
BRANCH  22  27
HETATM   27  C17 UNL     1      21.918   4.883  48.783  1.00  0.00     0.132 C 
HETATM   28  C18 UNL     1      20.435   4.892  48.950  1.00  0.00     0.036 C 
BRANCH  27  29
HETATM   29  C19 UNL     1      22.338   3.931  47.738  1.00  0.00     0.417 C 
HETATM   30  O2  UNL     1      21.785   2.955  47.226  1.00  0.00    -0.428 OA
ENDBRANCH  27  29
ENDBRANCH  22  27
TORSDOF 2
ENDMDL
MODEL 2
REMARK VINA RESULT:      -8.7      2.544      4.850
REMARK  2 active torsions:
REMARK  status: ('A' for Active; 'I' for Inactive)
REMARK    1  A    between atoms: N5_22  and  C17_23 
REMARK    2  A    between atoms: C17_23  and  C19_25 
ROOT
HETATM    1  C1  UNL     1      25.888  -0.499  54.456  1.00  0.00     0.043 C 
HETATM    2  C2  UNL     1      24.464  -0.120  54.063  1.00  0.00    -0.084 C 
HETATM    3  C3  UNL     1      24.354   0.967  53.372  1.00  0.00     0.005 C 
HETATM    4  C4  UNL     1      23.795   2.066  52.614  1.00  0.00    -0.075 C 
HETATM    5  C5  UNL     1      22.499   1.633  52.616  1.00  0.00     0.029 C 
HETATM    6  C6  UNL     1      21.377   0.697  52.938  1.00  0.00     0.035 C 
HETATM    7  C7  UNL     1      20.045   0.660  52.716  1.00  0.00     0.009 C 
HETATM    8  C8  UNL     1      20.003  -0.583  53.401  1.00  0.00     0.057 C 
HETATM    9  C9  UNL     1      21.338  -1.214  53.684  1.00  0.00     0.006 C 
HETATM   10  C10 UNL     1      22.136  -0.801  54.845  1.00  0.00     0.005 C 
HETATM   11  C11 UNL     1      23.622  -1.086  54.804  1.00  0.00     0.034 C 
HETATM   12  N1  UNL     1      19.894   1.833  52.025  1.00  0.00    -0.324 N 
HETATM   13  C12 UNL     1      19.741   3.017  51.327  1.00  0.00     0.293 C 
HETATM   14  O1  UNL     1      19.139   3.457  52.301  1.00  0.00    -0.264 OA
HETATM   15  C13 UNL     1      20.212   3.361  49.962  1.00  0.00     0.219 A 
HETATM   16  N2  UNL     1      19.141   3.281  49.218  1.00  0.00    -0.234 NA
HETATM   17  C14 UNL     1      19.454   3.556  47.940  1.00  0.00     0.162 A 
HETATM   18  C15 UNL     1      20.831   3.803  48.038  1.00  0.00     0.155 A 
HETATM   19  C16 UNL     1      21.480   4.149  46.773  1.00  0.00     0.121 C 
HETATM   20  N3  UNL     1      21.992   4.433  45.748  1.00  0.00    -0.190 NA
HETATM   21  N4  UNL     1      21.322   3.682  49.318  1.00  0.00    -0.223 N 
HETATM   22  N5  UNL     1      22.722   3.931  49.374  1.00  0.00    -0.311 N 
HETATM   23  C20 UNL     1      23.954   3.144  49.536  1.00  0.00     0.144 C 
HETATM   24  C21 UNL     1      24.736   3.527  50.771  1.00  0.00     0.026 C 
HETATM   25  C22 UNL     1      24.023   3.352  52.031  1.00  0.00     0.036 C 
HETATM   26  H15 UNL     1      20.261   1.264  51.199  1.00  0.00     0.169 HD
ENDROOT
BRANCH  22  27
HETATM   27  C17 UNL     1      23.075   5.328  49.156  1.00  0.00     0.132 C 
HETATM   28  C18 UNL     1      24.451   5.545  48.621  1.00  0.00     0.036 C 
BRANCH  27  29
HETATM   29  C19 UNL     1      22.801   6.203  50.311  1.00  0.00     0.417 C 
HETATM   30  O2  UNL     1      21.967   6.154  51.218  1.00  0.00    -0.428 OA
ENDBRANCH  27  29
ENDBRANCH  22  27
TORSDOF 2
ENDMDL
MODEL 3
REMARK VINA RESULT:      -7.9      2.911      4.800
REMARK  2 active torsions:
REMARK  status: ('A' for Active; 'I' for Inactive)
REMARK    1  A    between atoms: N5_22  and  C17_23 
REMARK    2  A    between atoms: C17_23  and  C19_25 
ROOT
HETATM    1  C1  UNL     1      26.230  -0.044  54.470  1.00  0.00     0.043 C 
HETATM    2  C2  UNL     1      25.697   0.671  53.233  1.00  0.00    -0.084 C 
HETATM    3  C3  UNL     1      24.449   0.458  52.969  1.00  0.00     0.005 C 
HETATM    4  C4  UNL     1      23.149   0.504  52.336  1.00  0.00    -0.075 C 
HETATM    5  C5  UNL     1      23.458   1.428  51.377  1.00  0.00     0.029 C 
HETATM    6  C6  UNL     1      24.344   2.386  50.647  1.00  0.00     0.035 C 
HETATM    7  C7  UNL     1      24.220   3.213  49.585  1.00  0.00     0.009 C 
HETATM    8  C8  UNL     1      25.571   3.604  49.779  1.00  0.00     0.057 C 
HETATM    9  C9  UNL     1      26.199   3.157  51.069  1.00  0.00     0.006 C 
HETATM   10  C10 UNL     1      26.752   1.804  51.210  1.00  0.00     0.005 C 
HETATM   11  C11 UNL     1      26.905   1.258  52.613  1.00  0.00     0.034 C 
HETATM   12  N1  UNL     1      22.913   2.968  49.255  1.00  0.00    -0.324 N 
HETATM   13  C12 UNL     1      21.594   2.720  48.920  1.00  0.00     0.293 C 
HETATM   14  O1  UNL     1      22.006   2.169  47.904  1.00  0.00    -0.264 OA
HETATM   15  C13 UNL     1      20.361   3.081  49.664  1.00  0.00     0.219 A 
HETATM   16  N2  UNL     1      19.885   4.115  49.022  1.00  0.00    -0.234 NA
HETATM   17  C14 UNL     1      18.764   4.546  49.626  1.00  0.00     0.162 A 
HETATM   18  C15 UNL     1      18.654   3.639  50.688  1.00  0.00     0.155 A 
HETATM   19  C16 UNL     1      17.491   3.849  51.552  1.00  0.00     0.121 C 
HETATM   20  N3  UNL     1      16.545   4.025  52.237  1.00  0.00    -0.190 NA
HETATM   21  N4  UNL     1      19.663   2.705  50.722  1.00  0.00    -0.223 N 
HETATM   22  N5  UNL     1      19.521   1.810  51.820  1.00  0.00    -0.311 N 
HETATM   23  C20 UNL     1      20.169   1.584  53.121  1.00  0.00     0.144 C 
HETATM   24  C21 UNL     1      20.797   0.214  53.233  1.00  0.00     0.026 C 
HETATM   25  C22 UNL     1      21.841  -0.067  52.253  1.00  0.00     0.036 C 
HETATM   26  H15 UNL     1      22.700   3.631  50.064  1.00  0.00     0.169 HD
ENDROOT
BRANCH  22  27
HETATM   27  C17 UNL     1      18.402   0.888  51.679  1.00  0.00     0.132 C 
HETATM   28  C18 UNL     1      18.299  -0.134  52.762  1.00  0.00     0.036 C 
BRANCH  27  29
HETATM   29  C19 UNL     1      18.295   0.272  50.343  1.00  0.00     0.417 C 
HETATM   30  O2  UNL     1      17.336  -0.152  49.693  1.00  0.00    -0.428 OA
ENDBRANCH  27  29
ENDBRANCH  22  27
TORSDOF 2
ENDMDL
MODEL 4
REMARK VINA RESULT:      -7.7      2.223      3.291
REMARK  2 active torsions:
REMARK  status: ('A' for Active; 'I' for Inactive)
REMARK    1  A    between atoms: N5_22  and  C17_23 
REMARK    2  A    between atoms: C17_23  and  C19_25 
ROOT
HETATM    1  C1  UNL     1      17.784  -1.649  53.444  1.00  0.00     0.043 C 
HETATM    2  C2  UNL     1      19.166  -1.038  53.242  1.00  0.00    -0.084 C 
HETATM    3  C3  UNL     1      19.242  -0.142  52.312  1.00  0.00     0.005 C 
HETATM    4  C4  UNL     1      19.755   0.869  51.413  1.00  0.00    -0.075 C 
HETATM    5  C5  UNL     1      21.021   0.926  51.925  1.00  0.00     0.029 C 
HETATM    6  C6  UNL     1      22.129   0.554  52.858  1.00  0.00     0.035 C 
HETATM    7  C7  UNL     1      23.423   0.908  53.026  1.00  0.00     0.009 C 
HETATM    8  C8  UNL     1      23.489   0.007  54.120  1.00  0.00     0.057 C 
HETATM    9  C9  UNL     1      22.171  -0.537  54.596  1.00  0.00     0.006 C 
HETATM   10  C10 UNL     1      21.538  -1.676  53.921  1.00  0.00     0.005 C 
HETATM   11  C11 UNL     1      20.046  -1.854  54.108  1.00  0.00     0.034 C 
HETATM   12  N1  UNL     1      23.542   1.825  52.015  1.00  0.00    -0.324 N 
HETATM   13  C12 UNL     1      23.664   2.750  50.994  1.00  0.00     0.293 C 
HETATM   14  O1  UNL     1      24.399   1.951  50.423  1.00  0.00    -0.264 OA
HETATM   15  C13 UNL     1      23.049   4.096  50.879  1.00  0.00     0.219 A 
HETATM   16  N2  UNL     1      24.018   4.923  51.168  1.00  0.00    -0.234 NA
HETATM   17  C14 UNL     1      23.567   6.189  51.115  1.00  0.00     0.162 A 
HETATM   18  C15 UNL     1      22.225   5.990  50.761  1.00  0.00     0.155 A 
HETATM   19  C16 UNL     1      21.445   7.219  50.614  1.00  0.00     0.121 C 
HETATM   20  N3  UNL     1      20.827   8.218  50.491  1.00  0.00    -0.190 NA
HETATM   21  N4  UNL     1      21.886   4.665  50.609  1.00  0.00    -0.223 N 
HETATM   22  N5  UNL     1      20.515   4.505  50.260  1.00  0.00    -0.311 N 
HETATM   23  C20 UNL     1      19.277   4.061  50.918  1.00  0.00     0.144 C 
HETATM   24  C21 UNL     1      18.667   2.845  50.260  1.00  0.00     0.026 C 
HETATM   25  C22 UNL     1      19.518   1.660  50.246  1.00  0.00     0.036 C 
HETATM   26  H15 UNL     1      23.054   2.481  52.702  1.00  0.00     0.169 HD
ENDROOT
BRANCH  22  27
HETATM   27  C17 UNL     1      20.203   4.948  48.908  1.00  0.00     0.132 C 
HETATM   28  C18 UNL     1      18.809   5.450  48.724  1.00  0.00     0.036 C 
BRANCH  27  29
HETATM   29  C19 UNL     1      20.569   3.978  47.859  1.00  0.00     0.417 C 
HETATM   30  O2  UNL     1      21.537   3.226  47.717  1.00  0.00    -0.428 OA
ENDBRANCH  27  29
ENDBRANCH  22  27
TORSDOF 2
ENDMDL
MODEL 5
REMARK VINA RESULT:      -7.5      3.516      6.877
REMARK  2 active torsions:
REMARK  status: ('A' for Active; 'I' for Inactive)
REMARK    1  A    between atoms: N5_22  and  C17_23 
REMARK    2  A    between atoms: C17_23  and  C19_25 
ROOT
HETATM    1  C1  UNL     1      17.425  -3.257  53.773  1.00  0.00     0.043 C 
HETATM    2  C2  UNL     1      17.863  -1.932  53.158  1.00  0.00    -0.084 C 
HETATM    3  C3  UNL     1      18.994  -1.473  53.586  1.00  0.00     0.005 C 
HETATM    4  C4  UNL     1      20.159  -0.635  53.767  1.00  0.00    -0.075 C 
HETATM    5  C5  UNL     1      19.861   0.284  52.800  1.00  0.00     0.029 C 
HETATM    6  C6  UNL     1      19.047   0.883  51.697  1.00  0.00     0.035 C 
HETATM    7  C7  UNL     1      19.137   1.970  50.900  1.00  0.00     0.009 C 
HETATM    8  C8  UNL     1      17.926   1.568  50.278  1.00  0.00     0.057 C 
HETATM    9  C9  UNL     1      17.452   0.182  50.613  1.00  0.00     0.006 C 
HETATM   10  C10 UNL     1      16.702  -0.081  51.847  1.00  0.00     0.005 C 
HETATM   11  C11 UNL     1      16.690  -1.504  52.365  1.00  0.00     0.034 C 
HETATM   12  N1  UNL     1      20.308   2.504  51.370  1.00  0.00    -0.324 N 
HETATM   13  C12 UNL     1      21.489   3.044  51.845  1.00  0.00     0.293 C 
HETATM   14  O1  UNL     1      20.825   3.964  52.311  1.00  0.00    -0.264 OA
HETATM   15  C13 UNL     1      22.872   2.521  51.711  1.00  0.00     0.219 A 
HETATM   16  N2  UNL     1      23.409   3.258  50.775  1.00  0.00    -0.234 NA
HETATM   17  C14 UNL     1      24.673   2.857  50.550  1.00  0.00     0.162 A 
HETATM   18  C15 UNL     1      24.797   1.804  51.467  1.00  0.00     0.155 A 
HETATM   19  C16 UNL     1      26.105   1.148  51.469  1.00  0.00     0.121 C 
HETATM   20  N3  UNL     1      27.167   0.631  51.466  1.00  0.00    -0.190 NA
HETATM   21  N4  UNL     1      23.659   1.582  52.209  1.00  0.00    -0.223 N 
HETATM   22  N5  UNL     1      23.823   0.501  53.120  1.00  0.00    -0.311 N 
HETATM   23  C20 UNL     1      23.370  -0.894  53.233  1.00  0.00     0.144 C 
HETATM   24  C21 UNL     1      22.539  -1.142  54.471  1.00  0.00     0.026 C 
HETATM   25  C22 UNL     1      21.315  -0.353  54.560  1.00  0.00     0.036 C 
HETATM   26  H15 UNL     1      20.764   1.757  50.759  1.00  0.00     0.169 HD
ENDROOT
BRANCH  22  27
HETATM   27  C17 UNL     1      24.725   0.799  54.224  1.00  0.00     0.132 C 
HETATM   28  C18 UNL     1      25.291   2.181  54.207  1.00  0.00     0.036 C 
BRANCH  27  29
HETATM   29  C19 UNL     1      25.779  -0.212  54.429  1.00  0.00     0.417 C 
HETATM   30  O2  UNL     1      26.594  -0.397  55.336  1.00  0.00    -0.428 OA
ENDBRANCH  27  29
ENDBRANCH  22  27
TORSDOF 2
ENDMDL
MODEL 6
REMARK VINA RESULT:      -7.4      3.402      6.301
REMARK  2 active torsions:
REMARK  status: ('A' for Active; 'I' for Inactive)
REMARK    1  A    between atoms: N5_22  and  C17_23 
REMARK    2  A    between atoms: C17_23  and  C19_25 
ROOT
HETATM    1  C1  UNL     1      18.159  -2.546  53.764  1.00  0.00     0.043 C 
HETATM    2  C2  UNL     1      18.168  -1.321  52.857  1.00  0.00    -0.084 C 
HETATM    3  C3  UNL     1      19.165  -0.516  53.029  1.00  0.00     0.005 C 
HETATM    4  C4  UNL     1      20.072   0.603  52.885  1.00  0.00    -0.075 C 
HETATM    5  C5  UNL     1      19.455   1.186  51.814  1.00  0.00     0.029 C 
HETATM    6  C6  UNL     1      18.418   1.312  50.743  1.00  0.00     0.035 C 
HETATM    7  C7  UNL     1      18.142   2.188  49.752  1.00  0.00     0.009 C 
HETATM    8  C8  UNL     1      17.036   1.374  49.392  1.00  0.00     0.057 C 
HETATM    9  C9  UNL     1      16.985   0.021  50.044  1.00  0.00     0.006 C 
HETATM   10  C10 UNL     1      16.442  -0.144  51.397  1.00  0.00     0.005 C 
HETATM   11  C11 UNL     1      16.859  -1.378  52.169  1.00  0.00     0.034 C 
HETATM   12  N1  UNL     1      19.161   3.083  49.946  1.00  0.00    -0.324 N 
HETATM   13  C12 UNL     1      20.189   3.987  50.141  1.00  0.00     0.293 C 
HETATM   14  O1  UNL     1      19.344   4.794  50.514  1.00  0.00    -0.264 OA
HETATM   15  C13 UNL     1      21.645   3.805  49.915  1.00  0.00     0.219 A 
HETATM   16  N2  UNL     1      21.881   4.429  48.792  1.00  0.00    -0.234 NA
HETATM   17  C14 UNL     1      23.182   4.313  48.472  1.00  0.00     0.162 A 
HETATM   18  C15 UNL     1      23.664   3.549  49.544  1.00  0.00     0.155 A 
HETATM   19  C16 UNL     1      25.096   3.252  49.486  1.00  0.00     0.121 C 
HETATM   20  N3  UNL     1      26.253   3.026  49.432  1.00  0.00    -0.190 NA
HETATM   21  N4  UNL     1      22.696   3.220  50.465  1.00  0.00    -0.223 N 
HETATM   22  N5  UNL     1      23.223   2.437  51.531  1.00  0.00    -0.311 N 
HETATM   23  C20 UNL     1      23.175   1.033  51.966  1.00  0.00     0.144 C 
HETATM   24  C21 UNL     1      22.552   0.864  53.332  1.00  0.00     0.026 C 
HETATM   25  C22 UNL     1      21.172   1.326  53.441  1.00  0.00     0.036 C 
HETATM   26  H15 UNL     1      19.748   2.357  49.427  1.00  0.00     0.169 HD
ENDROOT
BRANCH  22  27
HETATM   27  C17 UNL     1      24.103   3.182  52.422  1.00  0.00     0.132 C 
HETATM   28  C18 UNL     1      24.991   2.334  53.270  1.00  0.00     0.036 C 
BRANCH  27  29
HETATM   29  C19 UNL     1      23.414   4.211  53.224  1.00  0.00     0.417 C 
HETATM   30  O2  UNL     1      23.794   5.271  53.727  1.00  0.00    -0.428 OA
ENDBRANCH  27  29
ENDBRANCH  22  27
TORSDOF 2
ENDMDL
MODEL 7
REMARK VINA RESULT:      -7.2      3.196      5.701
REMARK  2 active torsions:
REMARK  status: ('A' for Active; 'I' for Inactive)
REMARK    1  A    between atoms: N5_22  and  C17_23 
REMARK    2  A    between atoms: C17_23  and  C19_25 
ROOT
HETATM    1  C1  UNL     1      27.274   4.298  48.975  1.00  0.00     0.043 C 
HETATM    2  C2  UNL     1      26.063   3.786  49.747  1.00  0.00    -0.084 C 
HETATM    3  C3  UNL     1      24.936   4.335  49.429  1.00  0.00     0.005 C 
HETATM    4  C4  UNL     1      23.526   4.659  49.387  1.00  0.00    -0.075 C 
HETATM    5  C5  UNL     1      23.106   3.712  50.278  1.00  0.00     0.029 C 
HETATM    6  C6  UNL     1      23.273   2.570  51.229  1.00  0.00     0.035 C 
HETATM    7  C7  UNL     1      22.462   1.835  52.023  1.00  0.00     0.009 C 
HETATM    8  C8  UNL     1      23.598   1.089  52.431  1.00  0.00     0.057 C 
HETATM    9  C9  UNL     1      24.848   1.316  51.628  1.00  0.00     0.006 C 
HETATM   10  C10 UNL     1      25.721   2.464  51.899  1.00  0.00     0.005 C 
HETATM   11  C11 UNL     1      26.647   2.912  50.788  1.00  0.00     0.034 C 
HETATM   12  N1  UNL     1      21.262   2.433  51.740  1.00  0.00    -0.324 N 
HETATM   13  C12 UNL     1      20.050   3.036  51.456  1.00  0.00     0.293 C 
HETATM   14  O1  UNL     1      20.060   3.483  52.599  1.00  0.00    -0.264 OA
HETATM   15  C13 UNL     1      19.266   3.002  50.196  1.00  0.00     0.219 A 
HETATM   16  N2  UNL     1      18.301   2.153  50.436  1.00  0.00    -0.234 NA
HETATM   17  C14 UNL     1      17.528   2.024  49.344  1.00  0.00     0.162 A 
HETATM   18  C15 UNL     1      18.162   2.899  48.450  1.00  0.00     0.155 A 
HETATM   19  C16 UNL     1      17.531   2.988  47.133  1.00  0.00     0.121 C 
HETATM   20  N3  UNL     1      17.008   3.056  46.076  1.00  0.00    -0.190 NA
HETATM   21  N4  UNL     1      19.266   3.524  48.981  1.00  0.00    -0.223 N 
HETATM   22  N5  UNL     1      19.886   4.396  48.041  1.00  0.00    -0.311 N 
HETATM   23  C20 UNL     1      21.102   4.403  47.214  1.00  0.00     0.144 C 
HETATM   24  C21 UNL     1      22.030   5.549  47.546  1.00  0.00     0.026 C 
HETATM   25  C22 UNL     1      22.523   5.564  48.919  1.00  0.00     0.036 C 
HETATM   26  H15 UNL     1      21.296   1.831  50.859  1.00  0.00     0.169 HD
ENDROOT
BRANCH  22  27
HETATM   27  C17 UNL     1      19.103   5.588  47.747  1.00  0.00     0.132 C 
HETATM   28  C18 UNL     1      19.400   6.218  46.427  1.00  0.00     0.036 C 
BRANCH  27  29
HETATM   29  C19 UNL     1      19.100   6.587  48.832  1.00  0.00     0.417 C 
HETATM   30  O2  UNL     1      19.602   7.710  48.937  1.00  0.00    -0.428 OA
ENDBRANCH  27  29
ENDBRANCH  22  27
TORSDOF 2
ENDMDL
MODEL 8
REMARK VINA RESULT:      -7.0      5.089      7.930
REMARK  2 active torsions:
REMARK  status: ('A' for Active; 'I' for Inactive)
REMARK    1  A    between atoms: N5_22  and  C17_23 
REMARK    2  A    between atoms: C17_23  and  C19_25 
ROOT
HETATM    1  C1  UNL     1      17.268  -4.046  53.963  1.00  0.00     0.043 C 
HETATM    2  C2  UNL     1      16.843  -2.936  53.008  1.00  0.00    -0.084 C 
HETATM    3  C3  UNL     1      17.668  -1.944  52.915  1.00  0.00     0.005 C 
HETATM    4  C4  UNL     1      18.278  -0.694  52.516  1.00  0.00    -0.075 C 
HETATM    5  C5  UNL     1      17.353  -0.345  51.572  1.00  0.00     0.029 C 
HETATM    6  C6  UNL     1      16.119  -0.523  50.746  1.00  0.00     0.035 C 
HETATM    7  C7  UNL     1      15.476   0.184  49.790  1.00  0.00     0.009 C 
HETATM    8  C8  UNL     1      14.511  -0.855  49.724  1.00  0.00     0.057 C 
HETATM    9  C9  UNL     1      14.870  -2.123  50.446  1.00  0.00     0.006 C 
HETATM   10  C10 UNL     1      14.656  -2.254  51.893  1.00  0.00     0.005 C 
HETATM   11  C11 UNL     1      15.463  -3.306  52.623  1.00  0.00     0.034 C 
HETATM   12  N1  UNL     1      16.307   1.269  49.709  1.00  0.00    -0.324 N 
HETATM   13  C12 UNL     1      17.146   2.366  49.626  1.00  0.00     0.293 C 
HETATM   14  O1  UNL     1      16.246   3.032  50.128  1.00  0.00    -0.264 OA
HETATM   15  C13 UNL     1      18.533   2.441  49.101  1.00  0.00     0.219 A 
HETATM   16  N2  UNL     1      18.405   2.986  47.920  1.00  0.00    -0.234 NA
HETATM   17  C14 UNL     1      19.610   3.086  47.334  1.00  0.00     0.162 A 
HETATM   18  C15 UNL     1      20.444   2.535  48.317  1.00  0.00     0.155 A 
HETATM   19  C16 UNL     1      21.865   2.510  47.968  1.00  0.00     0.121 C 
HETATM   20  N3  UNL     1      23.009   2.501  47.677  1.00  0.00    -0.190 NA
HETATM   21  N4  UNL     1      19.770   2.122  49.443  1.00  0.00    -0.223 N 
HETATM   22  N5  UNL     1      20.649   1.560  50.412  1.00  0.00    -0.311 N 
HETATM   23  C20 UNL     1      20.978   0.222  50.924  1.00  0.00     0.144 C 
HETATM   24  C21 UNL     1      20.690   0.073  52.400  1.00  0.00     0.026 C 
HETATM   25  C22 UNL     1      19.296   0.275  52.779  1.00  0.00     0.036 C 
HETATM   26  H15 UNL     1      16.914   0.620  49.117  1.00  0.00     0.169 HD
ENDROOT
BRANCH  22  27
HETATM   27  C17 UNL     1      21.518   2.541  51.048  1.00  0.00     0.132 C 
HETATM   28  C18 UNL     1      22.869   2.027  51.420  1.00  0.00     0.036 C 
BRANCH  27  29
HETATM   29  C19 UNL     1      20.888   3.263  52.170  1.00  0.00     0.417 C 
HETATM   30  O2  UNL     1      19.748   3.697  52.350  1.00  0.00    -0.428 OA
ENDBRANCH  27  29
ENDBRANCH  22  27
TORSDOF 2
ENDMDL
MODEL 9
REMARK VINA RESULT:      -7.0      7.030     10.637
REMARK  2 active torsions:
REMARK  status: ('A' for Active; 'I' for Inactive)
REMARK    1  A    between atoms: N5_22  and  C17_23 
REMARK    2  A    between atoms: C17_23  and  C19_25 
ROOT
HETATM    1  C1  UNL     1      25.737   5.776  49.545  1.00  0.00     0.043 C 
HETATM    2  C2  UNL     1      26.433   6.611  48.476  1.00  0.00    -0.084 C 
HETATM    3  C3  UNL     1      27.725   6.594  48.518  1.00  0.00     0.005 C 
HETATM    4  C4  UNL     1      29.116   6.843  48.205  1.00  0.00    -0.075 C 
HETATM    5  C5  UNL     1      28.908   7.580  47.073  1.00  0.00     0.029 C 
HETATM    6  C6  UNL     1      28.086   8.241  46.012  1.00  0.00     0.035 C 
HETATM    7  C7  UNL     1      28.332   8.988  44.913  1.00  0.00     0.009 C 
HETATM    8  C8  UNL     1      26.932   9.051  44.688  1.00  0.00     0.057 C 
HETATM    9  C9  UNL     1      26.097   8.121  45.522  1.00  0.00     0.006 C 
HETATM   10  C10 UNL     1      25.716   8.477  46.895  1.00  0.00     0.005 C 
HETATM   11  C11 UNL     1      25.327   7.347  47.824  1.00  0.00     0.034 C 
HETATM   12  N1  UNL     1      29.701   9.027  44.963  1.00  0.00    -0.324 N 
HETATM   13  C12 UNL     1      31.083   9.067  45.014  1.00  0.00     0.293 C 
HETATM   14  O1  UNL     1      30.990  10.260  45.285  1.00  0.00    -0.264 OA
HETATM   15  C13 UNL     1      32.055   7.968  44.792  1.00  0.00     0.219 A 
HETATM   16  N2  UNL     1      32.519   8.181  43.589  1.00  0.00    -0.234 NA
HETATM   17  C14 UNL     1      33.405   7.223  43.268  1.00  0.00     0.162 A 
HETATM   18  C15 UNL     1      33.395   6.436  44.428  1.00  0.00     0.155 A 
HETATM   19  C16 UNL     1      34.294   5.281  44.388  1.00  0.00     0.121 C 
HETATM   20  N3  UNL     1      35.028   4.357  44.347  1.00  0.00    -0.190 NA
HETATM   21  N4  UNL     1      32.541   6.900  45.401  1.00  0.00    -0.223 N 
HETATM   22  N5  UNL     1      32.553   6.069  46.557  1.00  0.00    -0.311 N 
HETATM   23  C20 UNL     1      31.666   5.077  47.184  1.00  0.00     0.144 C 
HETATM   24  C21 UNL     1      31.222   5.483  48.571  1.00  0.00     0.026 C 
HETATM   25  C22 UNL     1      30.474   6.734  48.637  1.00  0.00     0.036 C 
HETATM   26  H15 UNL     1      29.634   8.048  44.542  1.00  0.00     0.169 HD
ENDROOT
BRANCH  22  27
HETATM   27  C17 UNL     1      33.791   6.151  47.321  1.00  0.00     0.132 C 
HETATM   28  C18 UNL     1      34.103   4.937  48.132  1.00  0.00     0.036 C 
BRANCH  27  29
HETATM   29  C19 UNL     1      33.922   7.382  48.123  1.00  0.00     0.417 C 
HETATM   30  O2  UNL     1      34.897   7.981  48.583  1.00  0.00    -0.428 OA
ENDBRANCH  27  29
ENDBRANCH  22  27
TORSDOF 2
ENDMDL
