MODEL 1
REMARK VINA RESULT:      -7.5      0.000      0.000
REMARK  9 active torsions:
REMARK  status: ('A' for Active; 'I' for Inactive)
REMARK    1  A    between atoms: C2_2  and  C3_3 
REMARK    2  A    between atoms: C3_3  and  N1_4 
REMARK    3  A    between atoms: C3_3  and  C4_5 
REMARK    4  A    between atoms: C4_5  and  C5_6 
REMARK    5  A    between atoms: N2_7  and  C6_8 
REMARK    6  A    between atoms: C6_8  and  C7_9 
REMARK    7  A    between atoms: C11_16  and  N6_17 
REMARK    8  A    between atoms: N6_17  and  C12_18 
REMARK    9  A    between atoms: C15_21  and  O1_22 
ROOT
HETATM    1  C7  UNL     1      26.467  -0.642  53.178  1.00  0.00    -0.004 A 
HETATM    2  C8  UNL     1      27.341  -1.713  52.993  1.00  0.00     0.030 A 
HETATM    3  C9  UNL     1      28.611  -1.235  53.225  1.00  0.00     0.119 A 
HETATM    4  N3  UNL     1      28.476   0.064  53.534  1.00  0.00    -0.240 N 
HETATM    5  N4  UNL     1      29.500   0.853  53.817  1.00  0.00    -0.161 NA
HETATM    6  C10 UNL     1      29.268   2.148  54.114  1.00  0.00     0.258 A 
HETATM    7  N5  UNL     1      27.989   2.540  54.096  1.00  0.00    -0.220 NA
HETATM    8  C11 UNL     1      26.935   1.770  53.814  1.00  0.00     0.159 A 
HETATM    9  C19 UNL     1      27.192   0.455  53.515  1.00  0.00     0.112 A 
ENDROOT
BRANCH   8  10
HETATM   10  N6  UNL     1      25.608   2.246  53.807  1.00  0.00    -0.339 N 
HETATM   11  H17 UNL     1      24.914   2.266  54.564  1.00  0.00     0.167 HD
BRANCH  10  12
HETATM   12  C12 UNL     1      24.947   2.814  52.687  1.00  0.00     0.035 A 
HETATM   13  C13 UNL     1      25.378   2.575  51.406  1.00  0.00     0.032 A 
HETATM   14  C14 UNL     1      24.794   3.107  50.282  1.00  0.00     0.041 A 
HETATM   15  C15 UNL     1      23.703   3.941  50.385  1.00  0.00     0.090 A 
HETATM   16  C17 UNL     1      23.218   4.223  51.642  1.00  0.00     0.069 A 
HETATM   17 CL1  UNL     1      21.843   5.268  51.851  1.00  0.00    -0.081 Cl
HETATM   18  C18 UNL     1      23.852   3.654  52.722  1.00  0.00     0.056 A 
BRANCH  15  19
HETATM   19  O1  UNL     1      23.054   4.520  49.318  1.00  0.00    -0.354 OA
HETATM   20  C16 UNL     1      22.638   3.750  48.200  1.00  0.00     0.210 C 
ENDBRANCH  15  19
ENDBRANCH  10  12
ENDBRANCH   8  10
BRANCH   1  21
HETATM   21  C6  UNL     1      25.000  -0.744  53.027  1.00  0.00     0.189 C 
BRANCH  21  22
HETATM   22  N2  UNL     1      24.370  -0.724  54.328  1.00  0.00    -0.301 NA
HETATM   23  C5  UNL     1      23.123  -0.890  54.531  1.00  0.00     0.086 C 
BRANCH  23  24
HETATM   24  C4  UNL     1      22.089  -1.131  53.510  1.00  0.00     0.081 C 
BRANCH  24  25
HETATM   25  C3  UNL     1      20.989  -0.111  53.526  1.00  0.00     0.222 C 
BRANCH  25  26
HETATM   26  C2  UNL     1      21.287   1.112  52.720  1.00  0.00     0.031 C 
HETATM   27  C1  UNL     1      21.884   0.681  51.397  1.00  0.00     0.007 C 
ENDBRANCH  25  26
BRANCH  25  28
HETATM   28  N1  UNL     1      20.592   0.202  54.886  1.00  0.00     0.083 N 
HETATM   29  H7  UNL     1      21.063   1.101  55.165  1.00  0.00     0.313 HD
HETATM   30  H8  UNL     1      19.573   0.241  55.010  1.00  0.00     0.313 HD
ENDBRANCH  25  28
ENDBRANCH  24  25
ENDBRANCH  23  24
ENDBRANCH  21  22
ENDBRANCH   1  21
TORSDOF 9
ENDMDL
MODEL 2
REMARK VINA RESULT:      -7.4      3.666      7.331
REMARK  9 active torsions:
REMARK  status: ('A' for Active; 'I' for Inactive)
REMARK    1  A    between atoms: C2_2  and  C3_3 
REMARK    2  A    between atoms: C3_3  and  N1_4 
REMARK    3  A    between atoms: C3_3  and  C4_5 
REMARK    4  A    between atoms: C4_5  and  C5_6 
REMARK    5  A    between atoms: N2_7  and  C6_8 
REMARK    6  A    between atoms: C6_8  and  C7_9 
REMARK    7  A    between atoms: C11_16  and  N6_17 
REMARK    8  A    between atoms: N6_17  and  C12_18 
REMARK    9  A    between atoms: C15_21  and  O1_22 
ROOT
HETATM    1  C7  UNL     1      23.213   2.349  49.800  1.00  0.00    -0.004 A 
HETATM    2  C8  UNL     1      22.440   2.212  48.648  1.00  0.00     0.030 A 
HETATM    3  C9  UNL     1      21.340   1.458  48.994  1.00  0.00     0.119 A 
HETATM    4  N3  UNL     1      21.473   1.172  50.299  1.00  0.00    -0.240 N 
HETATM    5  N4  UNL     1      20.594   0.453  50.977  1.00  0.00    -0.161 NA
HETATM    6  C10 UNL     1      20.813   0.213  52.285  1.00  0.00     0.258 A 
HETATM    7  N5  UNL     1      21.930   0.734  52.805  1.00  0.00    -0.220 NA
HETATM    8  C11 UNL     1      22.836   1.463  52.148  1.00  0.00     0.159 A 
HETATM    9  C19 UNL     1      22.595   1.696  50.817  1.00  0.00     0.112 A 
ENDROOT
BRANCH   8  10
HETATM   10  N6  UNL     1      23.999   1.980  52.753  1.00  0.00    -0.339 N 
HETATM   11  H17 UNL     1      24.214   2.941  53.048  1.00  0.00     0.167 HD
BRANCH  10  12
HETATM   12  C12 UNL     1      25.157   1.229  53.082  1.00  0.00     0.035 A 
HETATM   13  C13 UNL     1      26.131   1.740  53.902  1.00  0.00     0.032 A 
HETATM   14  C14 UNL     1      27.282   1.072  54.244  1.00  0.00     0.041 A 
HETATM   15  C15 UNL     1      27.528  -0.195  53.765  1.00  0.00     0.090 A 
HETATM   16  C17 UNL     1      26.590  -0.769  52.936  1.00  0.00     0.069 A 
HETATM   17 CL1  UNL     1      26.832  -2.366  52.291  1.00  0.00    -0.081 Cl
HETATM   18  C18 UNL     1      25.462  -0.042  52.636  1.00  0.00     0.056 A 
BRANCH  15  19
HETATM   19  O1  UNL     1      28.650  -0.939  54.052  1.00  0.00    -0.354 OA
HETATM   20  C16 UNL     1      29.929  -0.567  53.561  1.00  0.00     0.210 C 
ENDBRANCH  15  19
ENDBRANCH  10  12
ENDBRANCH   8  10
BRANCH   1  21
HETATM   21  C6  UNL     1      24.485   3.101  49.850  1.00  0.00     0.189 C 
BRANCH  21  22
HETATM   22  N2  UNL     1      24.298   4.335  50.581  1.00  0.00    -0.301 NA
HETATM   23  C5  UNL     1      24.536   5.496  50.114  1.00  0.00     0.086 C 
BRANCH  23  24
HETATM   24  C4  UNL     1      25.039   5.817  48.768  1.00  0.00     0.081 C 
BRANCH  24  25
HETATM   25  C3  UNL     1      26.491   6.194  48.750  1.00  0.00     0.222 C 
BRANCH  25  26
HETATM   26  C2  UNL     1      27.420   5.023  48.732  1.00  0.00     0.031 C 
HETATM   27  C1  UNL     1      28.769   5.488  48.226  1.00  0.00     0.007 C 
ENDBRANCH  25  26
BRANCH  25  28
HETATM   28  N1  UNL     1      26.797   7.129  49.816  1.00  0.00     0.083 N 
HETATM   29  H7  UNL     1      26.521   8.093  49.495  1.00  0.00     0.313 HD
HETATM   30  H8  UNL     1      26.359   6.877  50.712  1.00  0.00     0.313 HD
ENDBRANCH  25  28
ENDBRANCH  24  25
ENDBRANCH  23  24
ENDBRANCH  21  22
ENDBRANCH   1  21
TORSDOF 9
ENDMDL
MODEL 3
REMARK VINA RESULT:      -7.4      2.192      2.681
REMARK  9 active torsions:
REMARK  status: ('A' for Active; 'I' for Inactive)
REMARK    1  A    between atoms: C2_2  and  C3_3 
REMARK    2  A    between atoms: C3_3  and  N1_4 
REMARK    3  A    between atoms: C3_3  and  C4_5 
REMARK    4  A    between atoms: C4_5  and  C5_6 
REMARK    5  A    between atoms: N2_7  and  C6_8 
REMARK    6  A    between atoms: C6_8  and  C7_9 
REMARK    7  A    between atoms: C11_16  and  N6_17 
REMARK    8  A    between atoms: N6_17  and  C12_18 
REMARK    9  A    between atoms: C15_21  and  O1_22 
ROOT
HETATM    1  C7  UNL     1      25.293   0.342  53.280  1.00  0.00    -0.004 A 
HETATM    2  C8  UNL     1      25.318  -0.307  54.514  1.00  0.00     0.030 A 
HETATM    3  C9  UNL     1      26.485   0.070  55.139  1.00  0.00     0.119 A 
HETATM    4  N3  UNL     1      27.111   0.908  54.298  1.00  0.00    -0.240 N 
HETATM    5  N4  UNL     1      28.277   1.471  54.569  1.00  0.00    -0.161 NA
HETATM    6  C10 UNL     1      28.833   2.298  53.661  1.00  0.00     0.258 A 
HETATM    7  N5  UNL     1      28.143   2.485  52.529  1.00  0.00    -0.220 NA
HETATM    8  C11 UNL     1      26.967   1.932  52.226  1.00  0.00     0.159 A 
HETATM    9  C19 UNL     1      26.417   1.094  53.164  1.00  0.00     0.112 A 
ENDROOT
BRANCH   8  10
HETATM   10  N6  UNL     1      26.291   2.166  51.011  1.00  0.00    -0.339 N 
HETATM   11  H17 UNL     1      25.852   1.499  50.364  1.00  0.00     0.167 HD
BRANCH  10  12
HETATM   12  C12 UNL     1      26.084   3.440  50.420  1.00  0.00     0.035 A 
HETATM   13  C13 UNL     1      26.897   3.901  49.415  1.00  0.00     0.032 A 
HETATM   14  C14 UNL     1      26.761   5.129  48.814  1.00  0.00     0.041 A 
HETATM   15  C15 UNL     1      25.763   5.995  49.203  1.00  0.00     0.090 A 
HETATM   16  C17 UNL     1      24.911   5.595  50.207  1.00  0.00     0.069 A 
HETATM   17 CL1  UNL     1      23.627   6.635  50.751  1.00  0.00    -0.081 Cl
HETATM   18  C18 UNL     1      25.105   4.352  50.763  1.00  0.00     0.056 A 
BRANCH  15  19
HETATM   19  O1  UNL     1      25.551   7.243  48.660  1.00  0.00    -0.354 OA
HETATM   20  C16 UNL     1      26.471   7.817  47.745  1.00  0.00     0.210 C 
ENDBRANCH  15  19
ENDBRANCH  10  12
ENDBRANCH   8  10
BRANCH   1  21
HETATM   21  C6  UNL     1      24.194   0.203  52.301  1.00  0.00     0.189 C 
BRANCH  21  22
HETATM   22  N2  UNL     1      23.390   1.406  52.292  1.00  0.00    -0.301 NA
HETATM   23  C5  UNL     1      22.118   1.426  52.344  1.00  0.00     0.086 C 
BRANCH  23  24
HETATM   24  C4  UNL     1      21.221   0.260  52.421  1.00  0.00     0.081 C 
BRANCH  24  25
HETATM   25  C3  UNL     1      20.547   0.115  53.754  1.00  0.00     0.222 C 
BRANCH  25  26
HETATM   26  C2  UNL     1      21.456  -0.359  54.842  1.00  0.00     0.031 C 
HETATM   27  C1  UNL     1      21.862  -1.786  54.540  1.00  0.00     0.007 C 
ENDBRANCH  25  26
BRANCH  25  28
HETATM   28  N1  UNL     1      19.345  -0.689  53.643  1.00  0.00     0.083 N 
HETATM   29  H7  UNL     1      19.534  -1.466  52.957  1.00  0.00     0.313 HD
HETATM   30  H8  UNL     1      19.011  -1.042  54.548  1.00  0.00     0.313 HD
ENDBRANCH  25  28
ENDBRANCH  24  25
ENDBRANCH  23  24
ENDBRANCH  21  22
ENDBRANCH   1  21
TORSDOF 9
ENDMDL
MODEL 4
REMARK VINA RESULT:      -7.3      2.003      5.611
REMARK  9 active torsions:
REMARK  status: ('A' for Active; 'I' for Inactive)
REMARK    1  A    between atoms: C2_2  and  C3_3 
REMARK    2  A    between atoms: C3_3  and  N1_4 
REMARK    3  A    between atoms: C3_3  and  C4_5 
REMARK    4  A    between atoms: C4_5  and  C5_6 
REMARK    5  A    between atoms: N2_7  and  C6_8 
REMARK    6  A    between atoms: C6_8  and  C7_9 
REMARK    7  A    between atoms: C11_16  and  N6_17 
REMARK    8  A    between atoms: N6_17  and  C12_18 
REMARK    9  A    between atoms: C15_21  and  O1_22 
ROOT
HETATM    1  C7  UNL     1      23.359  -0.474  53.677  1.00  0.00    -0.004 A 
HETATM    2  C8  UNL     1      22.857  -1.265  54.709  1.00  0.00     0.030 A 
HETATM    3  C9  UNL     1      21.485  -1.257  54.586  1.00  0.00     0.119 A 
HETATM    4  N3  UNL     1      21.206  -0.489  53.521  1.00  0.00    -0.240 N 
HETATM    5  N4  UNL     1      19.973  -0.250  53.102  1.00  0.00    -0.161 NA
HETATM    6  C10 UNL     1      19.789   0.538  52.024  1.00  0.00     0.258 A 
HETATM    7  N5  UNL     1      20.894   1.027  51.450  1.00  0.00    -0.220 NA
HETATM    8  C11 UNL     1      22.149   0.805  51.848  1.00  0.00     0.159 A 
HETATM    9  C19 UNL     1      22.316   0.001  52.948  1.00  0.00     0.112 A 
ENDROOT
BRANCH   8  10
HETATM   10  N6  UNL     1      23.275   1.355  51.203  1.00  0.00    -0.339 N 
HETATM   11  H17 UNL     1      24.017   0.890  50.665  1.00  0.00     0.167 HD
BRANCH  10  12
HETATM   12  C12 UNL     1      23.614   2.733  51.177  1.00  0.00     0.035 A 
HETATM   13  C13 UNL     1      23.129   3.604  52.120  1.00  0.00     0.032 A 
HETATM   14  C14 UNL     1      23.404   4.951  52.142  1.00  0.00     0.041 A 
HETATM   15  C15 UNL     1      24.212   5.519  51.183  1.00  0.00     0.090 A 
HETATM   16  C17 UNL     1      24.734   4.700  50.206  1.00  0.00     0.069 A 
HETATM   17 CL1  UNL     1      25.762   5.345  48.961  1.00  0.00    -0.081 Cl
HETATM   18  C18 UNL     1      24.417   3.363  50.247  1.00  0.00     0.056 A 
BRANCH  15  19
HETATM   19  O1  UNL     1      24.543   6.854  51.124  1.00  0.00    -0.354 OA
HETATM   20  C16 UNL     1      23.622   7.822  50.644  1.00  0.00     0.210 C 
ENDBRANCH  15  19
ENDBRANCH  10  12
ENDBRANCH   8  10
BRANCH   1  21
HETATM   21  C6  UNL     1      24.800  -0.231  53.455  1.00  0.00     0.189 C 
BRANCH  21  22
HETATM   22  N2  UNL     1      25.132   1.126  53.829  1.00  0.00    -0.301 NA
HETATM   23  C5  UNL     1      26.272   1.667  53.652  1.00  0.00     0.086 C 
BRANCH  23  24
HETATM   24  C4  UNL     1      27.460   1.041  53.048  1.00  0.00     0.081 C 
BRANCH  24  25
HETATM   25  C3  UNL     1      28.493   0.630  54.056  1.00  0.00     0.222 C 
BRANCH  25  26
HETATM   26  C2  UNL     1      29.685  -0.046  53.460  1.00  0.00     0.031 C 
HETATM   27  C1  UNL     1      29.436  -1.541  53.456  1.00  0.00     0.007 C 
ENDBRANCH  25  26
BRANCH  25  28
HETATM   28  N1  UNL     1      27.893  -0.143  55.127  1.00  0.00     0.083 N 
HETATM   29  H7  UNL     1      28.661  -0.655  55.632  1.00  0.00     0.313 HD
HETATM   30  H8  UNL     1      27.321   0.427  55.764  1.00  0.00     0.313 HD
ENDBRANCH  25  28
ENDBRANCH  24  25
ENDBRANCH  23  24
ENDBRANCH  21  22
ENDBRANCH   1  21
TORSDOF 9
ENDMDL
MODEL 5
REMARK VINA RESULT:      -7.2      3.314      5.846
REMARK  9 active torsions:
REMARK  status: ('A' for Active; 'I' for Inactive)
REMARK    1  A    between atoms: C2_2  and  C3_3 
REMARK    2  A    between atoms: C3_3  and  N1_4 
REMARK    3  A    between atoms: C3_3  and  C4_5 
REMARK    4  A    between atoms: C4_5  and  C5_6 
REMARK    5  A    between atoms: N2_7  and  C6_8 
REMARK    6  A    between atoms: C6_8  and  C7_9 
REMARK    7  A    between atoms: C11_16  and  N6_17 
REMARK    8  A    between atoms: N6_17  and  C12_18 
REMARK    9  A    between atoms: C15_21  and  O1_22 
ROOT
HETATM    1  C7  UNL     1      22.079   1.393  49.850  1.00  0.00    -0.004 A 
HETATM    2  C8  UNL     1      21.531   1.502  48.572  1.00  0.00     0.030 A 
HETATM    3  C9  UNL     1      22.162   2.559  47.956  1.00  0.00     0.119 A 
HETATM    4  N3  UNL     1      23.044   3.043  48.846  1.00  0.00    -0.240 N 
HETATM    5  N4  UNL     1      23.833   4.076  48.596  1.00  0.00    -0.161 NA
HETATM    6  C10 UNL     1      24.686   4.494  49.553  1.00  0.00     0.258 A 
HETATM    7  N5  UNL     1      24.664   3.816  50.706  1.00  0.00    -0.220 NA
HETATM    8  C11 UNL     1      23.881   2.772  50.988  1.00  0.00     0.159 A 
HETATM    9  C19 UNL     1      23.020   2.361  50.001  1.00  0.00     0.112 A 
ENDROOT
BRANCH   8  10
HETATM   10  N6  UNL     1      23.901   2.102  52.227  1.00  0.00    -0.339 N 
HETATM   11  H17 UNL     1      23.175   2.039  52.952  1.00  0.00     0.167 HD
BRANCH  10  12
HETATM   12  C12 UNL     1      24.992   1.349  52.735  1.00  0.00     0.035 A 
HETATM   13  C13 UNL     1      25.838   1.869  53.682  1.00  0.00     0.032 A 
HETATM   14  C14 UNL     1      26.922   1.201  54.201  1.00  0.00     0.041 A 
HETATM   15  C15 UNL     1      27.226  -0.075  53.782  1.00  0.00     0.090 A 
HETATM   16  C17 UNL     1      26.417  -0.658  52.833  1.00  0.00     0.069 A 
HETATM   17 CL1  UNL     1      26.739  -2.266  52.256  1.00  0.00    -0.081 Cl
HETATM   18  C18 UNL     1      25.350   0.070  52.359  1.00  0.00     0.056 A 
BRANCH  15  19
HETATM   19  O1  UNL     1      28.288  -0.820  54.244  1.00  0.00    -0.354 OA
HETATM   20  C16 UNL     1      29.592  -0.658  53.707  1.00  0.00     0.210 C 
ENDBRANCH  15  19
ENDBRANCH  10  12
ENDBRANCH   8  10
BRANCH   1  21
HETATM   21  C6  UNL     1      21.671   0.369  50.834  1.00  0.00     0.189 C 
BRANCH  21  22
HETATM   22  N2  UNL     1      20.294   0.582  51.222  1.00  0.00    -0.301 NA
HETATM   23  C5  UNL     1      19.911   0.858  52.405  1.00  0.00     0.086 C 
BRANCH  23  24
HETATM   24  C4  UNL     1      20.765   1.013  53.595  1.00  0.00     0.081 C 
BRANCH  24  25
HETATM   25  C3  UNL     1      21.013  -0.277  54.321  1.00  0.00     0.222 C 
BRANCH  25  26
HETATM   26  C2  UNL     1      22.345  -0.889  54.030  1.00  0.00     0.031 C 
HETATM   27  C1  UNL     1      22.968  -1.325  55.340  1.00  0.00     0.007 C 
ENDBRANCH  25  26
BRANCH  25  28
HETATM   28  N1  UNL     1      19.917  -1.206  54.114  1.00  0.00     0.083 N 
HETATM   29  H7  UNL     1      19.610  -1.565  55.055  1.00  0.00     0.313 HD
HETATM   30  H8  UNL     1      19.139  -0.799  53.580  1.00  0.00     0.313 HD
ENDBRANCH  25  28
ENDBRANCH  24  25
ENDBRANCH  23  24
ENDBRANCH  21  22
ENDBRANCH   1  21
TORSDOF 9
ENDMDL
MODEL 6
REMARK VINA RESULT:      -7.1      3.442      5.934
REMARK  9 active torsions:
REMARK  status: ('A' for Active; 'I' for Inactive)
REMARK    1  A    between atoms: C2_2  and  C3_3 
REMARK    2  A    between atoms: C3_3  and  N1_4 
REMARK    3  A    between atoms: C3_3  and  C4_5 
REMARK    4  A    between atoms: C4_5  and  C5_6 
REMARK    5  A    between atoms: N2_7  and  C6_8 
REMARK    6  A    between atoms: C6_8  and  C7_9 
REMARK    7  A    between atoms: C11_16  and  N6_17 
REMARK    8  A    between atoms: N6_17  and  C12_18 
REMARK    9  A    between atoms: C15_21  and  O1_22 
ROOT
HETATM    1  C7  UNL     1      23.920   4.806  51.368  1.00  0.00    -0.004 A 
HETATM    2  C8  UNL     1      23.588   6.145  51.167  1.00  0.00     0.030 A 
HETATM    3  C9  UNL     1      24.514   6.658  50.287  1.00  0.00     0.119 A 
HETATM    4  N3  UNL     1      25.351   5.651  49.989  1.00  0.00    -0.240 N 
HETATM    5  N4  UNL     1      26.378   5.781  49.166  1.00  0.00    -0.161 NA
HETATM    6  C10 UNL     1      27.167   4.714  48.929  1.00  0.00     0.258 A 
HETATM    7  N5  UNL     1      26.840   3.582  49.563  1.00  0.00    -0.220 NA
HETATM    8  C11 UNL     1      25.811   3.419  50.398  1.00  0.00     0.159 A 
HETATM    9  C19 UNL     1      25.020   4.517  50.626  1.00  0.00     0.112 A 
ENDROOT
BRANCH   8  10
HETATM   10  N6  UNL     1      25.521   2.198  51.040  1.00  0.00    -0.339 N 
HETATM   11  H17 UNL     1      24.658   1.640  51.030  1.00  0.00     0.167 HD
BRANCH  10  12
HETATM   12  C12 UNL     1      26.417   1.475  51.870  1.00  0.00     0.035 A 
HETATM   13  C13 UNL     1      26.368   0.106  51.949  1.00  0.00     0.032 A 
HETATM   14  C14 UNL     1      27.194  -0.652  52.745  1.00  0.00     0.041 A 
HETATM   15  C15 UNL     1      28.150  -0.055  53.536  1.00  0.00     0.090 A 
HETATM   16  C17 UNL     1      28.253   1.318  53.504  1.00  0.00     0.069 A 
HETATM   17 CL1  UNL     1      29.436   2.143  54.475  1.00  0.00    -0.081 Cl
HETATM   18  C18 UNL     1      27.395   2.012  52.684  1.00  0.00     0.056 A 
BRANCH  15  19
HETATM   19  O1  UNL     1      29.019  -0.730  54.363  1.00  0.00    -0.354 OA
HETATM   20  C16 UNL     1      30.164  -1.392  53.849  1.00  0.00     0.210 C 
ENDBRANCH  15  19
ENDBRANCH  10  12
ENDBRANCH   8  10
BRANCH   1  21
HETATM   21  C6  UNL     1      23.160   3.895  52.249  1.00  0.00     0.189 C 
BRANCH  21  22
HETATM   22  N2  UNL     1      22.023   3.357  51.536  1.00  0.00    -0.301 NA
HETATM   23  C5  UNL     1      21.772   2.115  51.406  1.00  0.00     0.086 C 
BRANCH  23  24
HETATM   24  C4  UNL     1      22.566   0.995  51.940  1.00  0.00     0.081 C 
BRANCH  24  25
HETATM   25  C3  UNL     1      22.144   0.571  53.316  1.00  0.00     0.222 C 
BRANCH  25  26
HETATM   26  C2  UNL     1      22.403  -0.871  53.610  1.00  0.00     0.031 C 
HETATM   27  C1  UNL     1      21.238  -1.414  54.412  1.00  0.00     0.007 C 
ENDBRANCH  25  26
BRANCH  25  28
HETATM   28  N1  UNL     1      20.770   0.954  53.578  1.00  0.00     0.083 N 
HETATM   29  H7  UNL     1      20.356   1.319  52.681  1.00  0.00     0.313 HD
HETATM   30  H8  UNL     1      20.210   0.194  53.984  1.00  0.00     0.313 HD
ENDBRANCH  25  28
ENDBRANCH  24  25
ENDBRANCH  23  24
ENDBRANCH  21  22
ENDBRANCH   1  21
TORSDOF 9
ENDMDL
MODEL 7
REMARK VINA RESULT:      -7.1      3.225      5.534
REMARK  9 active torsions:
REMARK  status: ('A' for Active; 'I' for Inactive)
REMARK    1  A    between atoms: C2_2  and  C3_3 
REMARK    2  A    between atoms: C3_3  and  N1_4 
REMARK    3  A    between atoms: C3_3  and  C4_5 
REMARK    4  A    between atoms: C4_5  and  C5_6 
REMARK    5  A    between atoms: N2_7  and  C6_8 
REMARK    6  A    between atoms: C6_8  and  C7_9 
REMARK    7  A    between atoms: C11_16  and  N6_17 
REMARK    8  A    between atoms: N6_17  and  C12_18 
REMARK    9  A    between atoms: C15_21  and  O1_22 
ROOT
HETATM    1  C7  UNL     1      26.523   4.157  49.668  1.00  0.00    -0.004 A 
HETATM    2  C8  UNL     1      27.425   4.625  48.715  1.00  0.00     0.030 A 
HETATM    3  C9  UNL     1      27.135   5.956  48.511  1.00  0.00     0.119 A 
HETATM    4  N3  UNL     1      26.102   6.245  49.318  1.00  0.00    -0.240 N 
HETATM    5  N4  UNL     1      25.549   7.445  49.386  1.00  0.00    -0.161 NA
HETATM    6  C10 UNL     1      24.512   7.642  50.225  1.00  0.00     0.258 A 
HETATM    7  N5  UNL     1      24.116   6.581  50.938  1.00  0.00    -0.220 NA
HETATM    8  C11 UNL     1      24.653   5.360  50.892  1.00  0.00     0.159 A 
HETATM    9  C19 UNL     1      25.707   5.179  50.032  1.00  0.00     0.112 A 
ENDROOT
BRANCH   8  10
HETATM   10  N6  UNL     1      24.185   4.279  51.667  1.00  0.00    -0.339 N 
HETATM   11  H17 UNL     1      24.594   3.846  52.505  1.00  0.00     0.167 HD
BRANCH  10  12
HETATM   12  C12 UNL     1      22.998   3.543  51.417  1.00  0.00     0.035 A 
HETATM   13  C13 UNL     1      21.918   3.624  52.260  1.00  0.00     0.032 A 
HETATM   14  C14 UNL     1      20.747   2.925  52.085  1.00  0.00     0.041 A 
HETATM   15  C15 UNL     1      20.590   2.076  51.012  1.00  0.00     0.090 A 
HETATM   16  C17 UNL     1      21.636   1.948  50.126  1.00  0.00     0.069 A 
HETATM   17 CL1  UNL     1      21.511   0.894  48.749  1.00  0.00    -0.081 Cl
HETATM   18  C18 UNL     1      22.777   2.678  50.364  1.00  0.00     0.056 A 
BRANCH  15  19
HETATM   19  O1  UNL     1      19.457   1.336  50.756  1.00  0.00    -0.354 OA
HETATM   20  C16 UNL     1      19.126   0.197  51.535  1.00  0.00     0.210 C 
ENDBRANCH  15  19
ENDBRANCH  10  12
ENDBRANCH   8  10
BRANCH   1  21
HETATM   21  C6  UNL     1      26.506   2.766  50.169  1.00  0.00     0.189 C 
BRANCH  21  22
HETATM   22  N2  UNL     1      27.028   2.724  51.517  1.00  0.00    -0.301 NA
HETATM   23  C5  UNL     1      27.061   1.681  52.247  1.00  0.00     0.086 C 
BRANCH  23  24
HETATM   24  C4  UNL     1      26.588   0.334  51.883  1.00  0.00     0.081 C 
BRANCH  24  25
HETATM   25  C3  UNL     1      25.587  -0.226  52.850  1.00  0.00     0.222 C 
BRANCH  25  26
HETATM   26  C2  UNL     1      24.499   0.731  53.217  1.00  0.00     0.031 C 
HETATM   27  C1  UNL     1      23.167   0.030  53.049  1.00  0.00     0.007 C 
ENDBRANCH  25  26
BRANCH  25  28
HETATM   28  N1  UNL     1      26.248  -0.788  54.013  1.00  0.00     0.083 N 
HETATM   29  H7  UNL     1      27.249  -0.463  54.009  1.00  0.00     0.313 HD
HETATM   30  H8  UNL     1      25.771  -0.567  54.895  1.00  0.00     0.313 HD
ENDBRANCH  25  28
ENDBRANCH  24  25
ENDBRANCH  23  24
ENDBRANCH  21  22
ENDBRANCH   1  21
TORSDOF 9
ENDMDL
MODEL 8
REMARK VINA RESULT:      -7.0      2.050      3.477
REMARK  9 active torsions:
REMARK  status: ('A' for Active; 'I' for Inactive)
REMARK    1  A    between atoms: C2_2  and  C3_3 
REMARK    2  A    between atoms: C3_3  and  N1_4 
REMARK    3  A    between atoms: C3_3  and  C4_5 
REMARK    4  A    between atoms: C4_5  and  C5_6 
REMARK    5  A    between atoms: N2_7  and  C6_8 
REMARK    6  A    between atoms: C6_8  and  C7_9 
REMARK    7  A    between atoms: C11_16  and  N6_17 
REMARK    8  A    between atoms: N6_17  and  C12_18 
REMARK    9  A    between atoms: C15_21  and  O1_22 
ROOT
HETATM    1  C7  UNL     1      22.801  -0.635  53.645  1.00  0.00    -0.004 A 
HETATM    2  C8  UNL     1      22.391  -1.401  54.736  1.00  0.00     0.030 A 
HETATM    3  C9  UNL     1      23.477  -1.511  55.576  1.00  0.00     0.119 A 
HETATM    4  N3  UNL     1      24.477  -0.833  54.991  1.00  0.00    -0.240 N 
HETATM    5  N4  UNL     1      25.686  -0.726  55.518  1.00  0.00    -0.161 NA
HETATM    6  C10 UNL     1      26.630  -0.026  54.856  1.00  0.00     0.258 A 
HETATM    7  N5  UNL     1      26.259   0.515  53.690  1.00  0.00    -0.220 NA
HETATM    8  C11 UNL     1      25.049   0.425  53.132  1.00  0.00     0.159 A 
HETATM    9  C19 UNL     1      24.102  -0.291  53.822  1.00  0.00     0.112 A 
ENDROOT
BRANCH   8  10
HETATM   10  N6  UNL     1      24.721   1.015  51.895  1.00  0.00    -0.339 N 
HETATM   11  H17 UNL     1      24.652   0.590  50.962  1.00  0.00     0.167 HD
BRANCH  10  12
HETATM   12  C12 UNL     1      24.411   2.386  51.697  1.00  0.00     0.035 A 
HETATM   13  C13 UNL     1      23.729   3.107  52.645  1.00  0.00     0.032 A 
HETATM   14  C14 UNL     1      23.383   4.430  52.508  1.00  0.00     0.041 A 
HETATM   15  C15 UNL     1      23.714   5.129  51.368  1.00  0.00     0.090 A 
HETATM   16  C17 UNL     1      24.400   4.464  50.376  1.00  0.00     0.069 A 
HETATM   17 CL1  UNL     1      24.852   5.281  48.909  1.00  0.00    -0.081 Cl
HETATM   18  C18 UNL     1      24.714   3.142  50.582  1.00  0.00     0.056 A 
BRANCH  15  19
HETATM   19  O1  UNL     1      23.410   6.452  51.142  1.00  0.00    -0.354 OA
HETATM   20  C16 UNL     1      22.098   6.857  50.782  1.00  0.00     0.210 C 
ENDBRANCH  15  19
ENDBRANCH  10  12
ENDBRANCH   8  10
BRANCH   1  21
HETATM   21  C6  UNL     1      21.918  -0.282  52.513  1.00  0.00     0.189 C 
BRANCH  21  22
HETATM   22  N2  UNL     1      20.549  -0.189  52.969  1.00  0.00    -0.301 NA
HETATM   23  C5  UNL     1      19.589   0.292  52.283  1.00  0.00     0.086 C 
BRANCH  23  24
HETATM   24  C4  UNL     1      19.670   0.841  50.919  1.00  0.00     0.081 C 
BRANCH  24  25
HETATM   25  C3  UNL     1      19.917   2.321  50.888  1.00  0.00     0.222 C 
BRANCH  25  26
HETATM   26  C2  UNL     1      21.028   2.731  49.976  1.00  0.00     0.031 C 
HETATM   27  C1  UNL     1      21.595   1.488  49.323  1.00  0.00     0.007 C 
ENDBRANCH  25  26
BRANCH  25  28
HETATM   28  N1  UNL     1      20.075   2.848  52.230  1.00  0.00     0.083 N 
HETATM   29  H7  UNL     1      19.384   3.632  52.358  1.00  0.00     0.313 HD
HETATM   30  H8  UNL     1      19.988   2.129  52.959  1.00  0.00     0.313 HD
ENDBRANCH  25  28
ENDBRANCH  24  25
ENDBRANCH  23  24
ENDBRANCH  21  22
ENDBRANCH   1  21
TORSDOF 9
ENDMDL
MODEL 9
REMARK VINA RESULT:      -6.9      3.111      5.925
REMARK  9 active torsions:
REMARK  status: ('A' for Active; 'I' for Inactive)
REMARK    1  A    between atoms: C2_2  and  C3_3 
REMARK    2  A    between atoms: C3_3  and  N1_4 
REMARK    3  A    between atoms: C3_3  and  C4_5 
REMARK    4  A    between atoms: C4_5  and  C5_6 
REMARK    5  A    between atoms: N2_7  and  C6_8 
REMARK    6  A    between atoms: C6_8  and  C7_9 
REMARK    7  A    between atoms: C11_16  and  N6_17 
REMARK    8  A    between atoms: N6_17  and  C12_18 
REMARK    9  A    between atoms: C15_21  and  O1_22 
ROOT
HETATM    1  C7  UNL     1      26.324   3.960  49.948  1.00  0.00    -0.004 A 
HETATM    2  C8  UNL     1      27.065   4.480  48.887  1.00  0.00     0.030 A 
HETATM    3  C9  UNL     1      26.624   5.769  48.687  1.00  0.00     0.119 A 
HETATM    4  N3  UNL     1      25.664   5.986  49.601  1.00  0.00    -0.240 N 
HETATM    5  N4  UNL     1      25.005   7.129  49.704  1.00  0.00    -0.161 NA
HETATM    6  C10 UNL     1      24.054   7.254  50.651  1.00  0.00     0.258 A 
HETATM    7  N5  UNL     1      23.847   6.185  51.428  1.00  0.00    -0.220 NA
HETATM    8  C11 UNL     1      24.493   5.020  51.349  1.00  0.00     0.159 A 
HETATM    9  C19 UNL     1      25.458   4.912  50.379  1.00  0.00     0.112 A 
ENDROOT
BRANCH   8  10
HETATM   10  N6  UNL     1      24.223   3.926  52.197  1.00  0.00    -0.339 N 
HETATM   11  H17 UNL     1      24.676   3.651  53.078  1.00  0.00     0.167 HD
BRANCH  10  12
HETATM   12  C12 UNL     1      23.223   2.944  51.976  1.00  0.00     0.035 A 
HETATM   13  C13 UNL     1      22.093   3.227  51.250  1.00  0.00     0.032 A 
HETATM   14  C14 UNL     1      21.080   2.328  51.015  1.00  0.00     0.041 A 
HETATM   15  C15 UNL     1      21.149   1.046  51.514  1.00  0.00     0.090 A 
HETATM   16  C17 UNL     1      22.258   0.695  52.251  1.00  0.00     0.069 A 
HETATM   17 CL1  UNL     1      22.414  -0.905  52.914  1.00  0.00    -0.081 Cl
HETATM   18  C18 UNL     1      23.232   1.645  52.446  1.00  0.00     0.056 A 
BRANCH  15  19
HETATM   19  O1  UNL     1      20.186   0.080  51.331  1.00  0.00    -0.354 OA
HETATM   20  C16 UNL     1      18.828   0.424  51.099  1.00  0.00     0.210 C 
ENDBRANCH  15  19
ENDBRANCH  10  12
ENDBRANCH   8  10
BRANCH   1  21
HETATM   21  C6  UNL     1      26.501   2.592  50.479  1.00  0.00     0.189 C 
BRANCH  21  22
HETATM   22  N2  UNL     1      27.207   2.642  51.740  1.00  0.00    -0.301 NA
HETATM   23  C5  UNL     1      27.358   1.650  52.524  1.00  0.00     0.086 C 
BRANCH  23  24
HETATM   24  C4  UNL     1      26.860   0.279  52.317  1.00  0.00     0.081 C 
BRANCH  24  25
HETATM   25  C3  UNL     1      27.262  -0.670  53.408  1.00  0.00     0.222 C 
BRANCH  25  26
HETATM   26  C2  UNL     1      28.573  -0.339  54.045  1.00  0.00     0.031 C 
HETATM   27  C1  UNL     1      29.648  -1.188  53.399  1.00  0.00     0.007 C 
ENDBRANCH  25  26
BRANCH  25  28
HETATM   28  N1  UNL     1      27.198  -2.044  52.947  1.00  0.00     0.083 N 
HETATM   29  H7  UNL     1      26.374  -2.134  52.300  1.00  0.00     0.313 HD
HETATM   30  H8  UNL     1      28.072  -2.365  52.512  1.00  0.00     0.313 HD
ENDBRANCH  25  28
ENDBRANCH  24  25
ENDBRANCH  23  24
ENDBRANCH  21  22
ENDBRANCH   1  21
TORSDOF 9
ENDMDL
