MODEL 1
REMARK VINA RESULT:      -8.0      0.000      0.000
REMARK  4 active torsions:
REMARK  status: ('A' for Active; 'I' for Inactive)
REMARK    1  A    between atoms: C2_3  and  C3_4 
REMARK    2  A    between atoms: N2_11  and  C10_12 
REMARK    3  A    between atoms: C10_12  and  C11_13 
REMARK    4  A    between atoms: C15_19  and  N5_20 
ROOT
HETATM    1  C10 UNL     1      24.430   2.277  53.041  1.00  0.00     0.178 C 
ENDROOT
BRANCH   1   2
HETATM    2  N2  UNL     1      23.120   1.678  52.861  1.00  0.00    -0.295 N 
HETATM    3  N1  UNL     1      21.910   2.112  52.516  1.00  0.00    -0.292 N 
HETATM    4  C1  UNL     1      21.348   3.420  52.155  1.00  0.00     0.178 C 
HETATM    5  C2  UNL     1      21.401   0.872  52.629  1.00  0.00     0.077 A 
HETATM    6  C9  UNL     1      22.654   0.421  52.987  1.00  0.00     0.142 A 
BRANCH   5   7
HETATM    7  C3  UNL     1      20.122   0.198  52.469  1.00  0.00    -0.005 C 
HETATM    8  C4  UNL     1      19.588  -0.560  53.424  1.00  0.00     0.014 C 
HETATM    9  C5  UNL     1      18.300  -1.218  53.219  1.00  0.00     0.014 C 
HETATM   10  C6  UNL     1      17.595  -0.749  52.220  1.00  0.00    -0.014 C 
HETATM   11  C7  UNL     1      18.120  -0.167  51.212  1.00  0.00    -0.013 C 
HETATM   12  C8  UNL     1      19.346   0.309  51.259  1.00  0.00     0.027 C 
ENDBRANCH   5   7
ENDBRANCH   1   2
BRANCH   1  13
HETATM   13  C11 UNL     1      25.427   1.234  53.345  1.00  0.00     0.028 C 
HETATM   14  C12 UNL     1      26.699   1.314  53.687  1.00  0.00     0.074 A 
HETATM   15  N3  UNL     1      27.305   2.593  53.809  1.00  0.00    -0.277 N 
HETATM   16  C15 UNL     1      27.377   0.043  53.911  1.00  0.00     0.055 A 
HETATM   17  N4  UNL     1      28.667   2.530  54.179  1.00  0.00    -0.187 NA
HETATM   18  H11 UNL     1      26.833   3.493  53.651  1.00  0.00     0.189 HD
HETATM   19  C13 UNL     1      29.289   1.419  54.383  1.00  0.00     0.141 A 
HETATM   20  C14 UNL     1      28.659   0.088  54.257  1.00  0.00     0.052 A 
BRANCH  16  21
HETATM   21  N5  UNL     1      26.737  -1.212  53.780  1.00  0.00    -0.397 N 
HETATM   22  H14 UNL     1      25.852  -1.287  53.234  1.00  0.00     0.156 HD
HETATM   23  H15 UNL     1      27.042  -2.150  54.177  1.00  0.00     0.156 HD
ENDBRANCH  16  21
ENDBRANCH   1  13
TORSDOF 4
ENDMDL
MODEL 2
REMARK VINA RESULT:      -7.7      1.710      2.844
REMARK  4 active torsions:
REMARK  status: ('A' for Active; 'I' for Inactive)
REMARK    1  A    between atoms: C2_3  and  C3_4 
REMARK    2  A    between atoms: N2_11  and  C10_12 
REMARK    3  A    between atoms: C10_12  and  C11_13 
REMARK    4  A    between atoms: C15_19  and  N5_20 
ROOT
HETATM    1  C10 UNL     1      24.879  -0.677  54.547  1.00  0.00     0.178 C 
ENDROOT
BRANCH   1   2
HETATM    2  N2  UNL     1      23.769  -0.395  53.655  1.00  0.00    -0.295 N 
HETATM    3  N1  UNL     1      22.502  -0.792  53.551  1.00  0.00    -0.292 N 
HETATM    4  C1  UNL     1      21.644  -1.712  54.308  1.00  0.00     0.178 C 
HETATM    5  C2  UNL     1      22.317  -0.012  52.470  1.00  0.00     0.077 A 
HETATM    6  C9  UNL     1      23.629   0.400  52.578  1.00  0.00     0.142 A 
BRANCH   5   7
HETATM    7  C3  UNL     1      21.255   0.323  51.535  1.00  0.00    -0.005 C 
HETATM    8  C4  UNL     1      19.966   0.253  51.861  1.00  0.00     0.014 C 
HETATM    9  C5  UNL     1      18.933   0.599  50.888  1.00  0.00     0.014 C 
HETATM   10  C6  UNL     1      19.358   1.277  49.851  1.00  0.00    -0.014 C 
HETATM   11  C7  UNL     1      20.561   1.216  49.427  1.00  0.00    -0.013 C 
HETATM   12  C8  UNL     1      21.532   0.755  50.188  1.00  0.00     0.027 C 
ENDBRANCH   5   7
ENDBRANCH   1   2
BRANCH   1  13
HETATM   13  C11 UNL     1      25.973   0.284  54.315  1.00  0.00     0.028 C 
HETATM   14  C12 UNL     1      27.251   0.103  54.039  1.00  0.00     0.074 A 
HETATM   15  N3  UNL     1      27.756  -1.220  53.927  1.00  0.00    -0.277 N 
HETATM   16  C15 UNL     1      28.042   1.316  53.872  1.00  0.00     0.055 A 
HETATM   17  N4  UNL     1      29.136  -1.265  53.631  1.00  0.00    -0.187 NA
HETATM   18  H11 UNL     1      27.204  -2.080  54.044  1.00  0.00     0.189 HD
HETATM   19  C13 UNL     1      29.857  -0.207  53.479  1.00  0.00     0.141 A 
HETATM   20  C14 UNL     1      29.332   1.170  53.594  1.00  0.00     0.052 A 
BRANCH  16  21
HETATM   21  N5  UNL     1      27.501   2.618  53.991  1.00  0.00    -0.397 N 
HETATM   22  H14 UNL     1      27.257   3.157  53.133  1.00  0.00     0.156 HD
HETATM   23  H15 UNL     1      27.291   3.164  54.879  1.00  0.00     0.156 HD
ENDBRANCH  16  21
ENDBRANCH   1  13
TORSDOF 4
ENDMDL
MODEL 3
REMARK VINA RESULT:      -7.6      2.328      4.032
REMARK  4 active torsions:
REMARK  status: ('A' for Active; 'I' for Inactive)
REMARK    1  A    between atoms: C2_3  and  C3_4 
REMARK    2  A    between atoms: N2_11  and  C10_12 
REMARK    3  A    between atoms: C10_12  and  C11_13 
REMARK    4  A    between atoms: C15_19  and  N5_20 
ROOT
HETATM    1  C10 UNL     1      24.886  -0.026  54.271  1.00  0.00     0.178 C 
ENDROOT
BRANCH   1   2
HETATM    2  N2  UNL     1      24.291   0.554  53.080  1.00  0.00    -0.295 N 
HETATM    3  N1  UNL     1      23.055   0.805  52.655  1.00  0.00    -0.292 N 
HETATM    4  C1  UNL     1      21.711   0.602  53.213  1.00  0.00     0.178 C 
HETATM    5  C2  UNL     1      23.524   1.322  51.505  1.00  0.00     0.077 A 
HETATM    6  C9  UNL     1      24.806   1.062  51.945  1.00  0.00     0.142 A 
BRANCH   5   7
HETATM    7  C3  UNL     1      23.006   1.915  50.283  1.00  0.00    -0.005 C 
HETATM    8  C4  UNL     1      23.482   3.052  49.781  1.00  0.00     0.014 C 
HETATM    9  C5  UNL     1      22.930   3.611  48.550  1.00  0.00     0.014 C 
HETATM   10  C6  UNL     1      22.216   2.776  47.838  1.00  0.00    -0.014 C 
HETATM   11  C7  UNL     1      21.612   1.771  48.344  1.00  0.00    -0.013 C 
HETATM   12  C8  UNL     1      21.937   1.305  49.532  1.00  0.00     0.027 C 
ENDBRANCH   5   7
ENDBRANCH   1   2
BRANCH   1  13
HETATM   13  C11 UNL     1      26.330   0.269  54.312  1.00  0.00     0.028 C 
HETATM   14  C12 UNL     1      27.380  -0.451  53.963  1.00  0.00     0.074 A 
HETATM   15  N3  UNL     1      27.183  -1.758  53.445  1.00  0.00    -0.277 N 
HETATM   16  C15 UNL     1      28.677   0.187  54.151  1.00  0.00     0.055 A 
HETATM   17  N4  UNL     1      28.390  -2.413  53.115  1.00  0.00    -0.187 NA
HETATM   18  H11 UNL     1      26.271  -2.215  53.310  1.00  0.00     0.189 HD
HETATM   19  C13 UNL     1      29.549  -1.870  53.272  1.00  0.00     0.141 A 
HETATM   20  C14 UNL     1      29.755  -0.510  53.810  1.00  0.00     0.052 A 
BRANCH  16  21
HETATM   21  N5  UNL     1      28.832   1.495  54.670  1.00  0.00    -0.397 N 
HETATM   22  H14 UNL     1      27.991   2.042  54.951  1.00  0.00     0.156 HD
HETATM   23  H15 UNL     1      29.733   2.037  54.829  1.00  0.00     0.156 HD
ENDBRANCH  16  21
ENDBRANCH   1  13
TORSDOF 4
ENDMDL
MODEL 4
REMARK VINA RESULT:      -7.6      1.960      7.835
REMARK  4 active torsions:
REMARK  status: ('A' for Active; 'I' for Inactive)
REMARK    1  A    between atoms: C2_3  and  C3_4 
REMARK    2  A    between atoms: N2_11  and  C10_12 
REMARK    3  A    between atoms: C10_12  and  C11_13 
REMARK    4  A    between atoms: C15_19  and  N5_20 
ROOT
HETATM    1  C10 UNL     1      23.139   1.581  52.060  1.00  0.00     0.178 C 
ENDROOT
BRANCH   1   2
HETATM    2  N2  UNL     1      24.442   1.008  52.347  1.00  0.00    -0.295 N 
HETATM    3  N1  UNL     1      25.698   1.262  51.988  1.00  0.00    -0.292 N 
HETATM    4  C1  UNL     1      26.341   2.259  51.121  1.00  0.00     0.178 C 
HETATM    5  C2  UNL     1      26.150   0.240  52.737  1.00  0.00     0.077 A 
HETATM    6  C9  UNL     1      24.848  -0.025  53.109  1.00  0.00     0.142 A 
BRANCH   5   7
HETATM    7  C3  UNL     1      27.416  -0.390  53.074  1.00  0.00    -0.005 C 
HETATM    8  C4  UNL     1      27.670  -1.671  52.813  1.00  0.00     0.014 C 
HETATM    9  C5  UNL     1      28.957  -2.262  53.170  1.00  0.00     0.014 C 
HETATM   10  C6  UNL     1      29.906  -1.398  53.430  1.00  0.00    -0.014 C 
HETATM   11  C7  UNL     1      29.673  -0.214  53.846  1.00  0.00    -0.013 C 
HETATM   12  C8  UNL     1      28.484   0.336  53.714  1.00  0.00     0.027 C 
ENDBRANCH   5   7
ENDBRANCH   1   2
BRANCH   1  13
HETATM   13  C11 UNL     1      22.086   0.825  52.763  1.00  0.00     0.028 C 
HETATM   14  C12 UNL     1      20.866   0.480  52.397  1.00  0.00     0.074 A 
HETATM   15  N3  UNL     1      20.393   0.862  51.113  1.00  0.00    -0.277 N 
HETATM   16  C15 UNL     1      20.101  -0.281  53.377  1.00  0.00     0.055 A 
HETATM   17  N4  UNL     1      19.074   0.427  50.855  1.00  0.00    -0.187 NA
HETATM   18  H11 UNL     1      20.927   1.398  50.416  1.00  0.00     0.189 HD
HETATM   19  C13 UNL     1      18.377  -0.247  51.705  1.00  0.00     0.141 A 
HETATM   20  C14 UNL     1      18.869  -0.644  53.041  1.00  0.00     0.052 A 
BRANCH  16  21
HETATM   21  N5  UNL     1      20.609  -0.642  54.648  1.00  0.00    -0.397 N 
HETATM   22  H14 UNL     1      20.676  -1.648  54.910  1.00  0.00     0.156 HD
HETATM   23  H15 UNL     1      20.955  -0.002  55.423  1.00  0.00     0.156 HD
ENDBRANCH  16  21
ENDBRANCH   1  13
TORSDOF 4
ENDMDL
MODEL 5
REMARK VINA RESULT:      -7.5      3.918      7.472
REMARK  4 active torsions:
REMARK  status: ('A' for Active; 'I' for Inactive)
REMARK    1  A    between atoms: C2_3  and  C3_4 
REMARK    2  A    between atoms: N2_11  and  C10_12 
REMARK    3  A    between atoms: C10_12  and  C11_13 
REMARK    4  A    between atoms: C15_19  and  N5_20 
ROOT
HETATM    1  C10 UNL     1      24.230   3.306  50.333  1.00  0.00     0.178 C 
ENDROOT
BRANCH   1   2
HETATM    2  N2  UNL     1      25.174   2.471  51.053  1.00  0.00    -0.295 N 
HETATM    3  N1  UNL     1      25.101   1.569  52.030  1.00  0.00    -0.292 N 
HETATM    4  C1  UNL     1      24.008   1.006  52.833  1.00  0.00     0.178 C 
HETATM    5  C2  UNL     1      26.432   1.377  51.992  1.00  0.00     0.077 A 
HETATM    6  C9  UNL     1      26.509   2.311  50.979  1.00  0.00     0.142 A 
BRANCH   5   7
HETATM    7  C3  UNL     1      27.438   0.573  52.665  1.00  0.00    -0.005 C 
HETATM    8  C4  UNL     1      27.426  -0.759  52.640  1.00  0.00     0.014 C 
HETATM    9  C5  UNL     1      28.459  -1.526  53.332  1.00  0.00     0.014 C 
HETATM   10  C6  UNL     1      29.525  -0.841  53.662  1.00  0.00    -0.014 C 
HETATM   11  C7  UNL     1      29.507   0.421  53.856  1.00  0.00    -0.013 C 
HETATM   12  C8  UNL     1      28.521   1.168  53.408  1.00  0.00     0.027 C 
ENDBRANCH   5   7
ENDBRANCH   1   2
BRANCH   1  13
HETATM   13  C11 UNL     1      24.475   4.728  50.639  1.00  0.00     0.028 C 
HETATM   14  C12 UNL     1      25.265   5.620  50.073  1.00  0.00     0.074 A 
HETATM   15  N3  UNL     1      26.063   5.235  48.962  1.00  0.00    -0.277 N 
HETATM   16  C15 UNL     1      25.241   6.953  50.661  1.00  0.00     0.055 A 
HETATM   17  N4  UNL     1      26.858   6.287  48.457  1.00  0.00    -0.187 NA
HETATM   18  H11 UNL     1      26.085   4.296  48.542  1.00  0.00     0.189 HD
HETATM   19  C13 UNL     1      26.855   7.474  48.960  1.00  0.00     0.141 A 
HETATM   20  C14 UNL     1      26.025   7.876  50.115  1.00  0.00     0.052 A 
BRANCH  16  21
HETATM   21  N5  UNL     1      24.431   7.299  51.770  1.00  0.00    -0.397 N 
HETATM   22  H14 UNL     1      24.627   8.174  52.300  1.00  0.00     0.156 HD
HETATM   23  H15 UNL     1      23.600   6.768  52.167  1.00  0.00     0.156 HD
ENDBRANCH  16  21
ENDBRANCH   1  13
TORSDOF 4
ENDMDL
MODEL 6
REMARK VINA RESULT:      -7.4      3.383      4.457
REMARK  4 active torsions:
REMARK  status: ('A' for Active; 'I' for Inactive)
REMARK    1  A    between atoms: C2_3  and  C3_4 
REMARK    2  A    between atoms: N2_11  and  C10_12 
REMARK    3  A    between atoms: C10_12  and  C11_13 
REMARK    4  A    between atoms: C15_19  and  N5_20 
ROOT
HETATM    1  C10 UNL     1      24.681   2.887  53.479  1.00  0.00     0.178 C 
ENDROOT
BRANCH   1   2
HETATM    2  N2  UNL     1      24.242   3.082  52.109  1.00  0.00    -0.295 N 
HETATM    3  N1  UNL     1      24.837   3.239  50.929  1.00  0.00    -0.292 N 
HETATM    4  C1  UNL     1      26.234   3.288  50.476  1.00  0.00     0.178 C 
HETATM    5  C2  UNL     1      23.647   3.338  50.309  1.00  0.00     0.077 A 
HETATM    6  C9  UNL     1      23.030   3.175  51.532  1.00  0.00     0.142 A 
BRANCH   5   7
HETATM    7  C3  UNL     1      23.129   3.530  48.965  1.00  0.00    -0.005 C 
HETATM    8  C4  UNL     1      22.652   2.526  48.231  1.00  0.00     0.014 C 
HETATM    9  C5  UNL     1      22.141   2.766  46.884  1.00  0.00     0.014 C 
HETATM   10  C6  UNL     1      21.883   4.020  46.608  1.00  0.00    -0.014 C 
HETATM   11  C7  UNL     1      22.466   4.994  47.193  1.00  0.00    -0.013 C 
HETATM   12  C8  UNL     1      23.098   4.827  48.335  1.00  0.00     0.027 C 
ENDBRANCH   5   7
ENDBRANCH   1   2
BRANCH   1  13
HETATM   13  C11 UNL     1      25.512   1.673  53.578  1.00  0.00     0.028 C 
HETATM   14  C12 UNL     1      26.800   1.512  53.818  1.00  0.00     0.074 A 
HETATM   15  N3  UNL     1      27.613   2.657  54.033  1.00  0.00    -0.277 N 
HETATM   16  C15 UNL     1      27.274   0.134  53.841  1.00  0.00     0.055 A 
HETATM   17  N4  UNL     1      28.967   2.339  54.278  1.00  0.00    -0.187 NA
HETATM   18  H11 UNL     1      27.285   3.632  54.018  1.00  0.00     0.189 HD
HETATM   19  C13 UNL     1      29.411   1.128  54.302  1.00  0.00     0.141 A 
HETATM   20  C14 UNL     1      28.565  -0.063  54.080  1.00  0.00     0.052 A 
BRANCH  16  21
HETATM   21  N5  UNL     1      26.430  -0.981  53.623  1.00  0.00    -0.397 N 
HETATM   22  H14 UNL     1      26.292  -1.343  52.655  1.00  0.00     0.156 HD
HETATM   23  H15 UNL     1      25.883  -1.542  54.341  1.00  0.00     0.156 HD
ENDBRANCH  16  21
ENDBRANCH   1  13
TORSDOF 4
ENDMDL
MODEL 7
REMARK VINA RESULT:      -7.3      2.688      7.444
REMARK  4 active torsions:
REMARK  status: ('A' for Active; 'I' for Inactive)
REMARK    1  A    between atoms: C2_3  and  C3_4 
REMARK    2  A    between atoms: N2_11  and  C10_12 
REMARK    3  A    between atoms: C10_12  and  C11_13 
REMARK    4  A    between atoms: C15_19  and  N5_20 
ROOT
HETATM    1  C10 UNL     1      23.663   2.451  52.832  1.00  0.00     0.178 C 
ENDROOT
BRANCH   1   2
HETATM    2  N2  UNL     1      24.821   1.581  52.932  1.00  0.00    -0.295 N 
HETATM    3  N1  UNL     1      26.015   1.510  52.350  1.00  0.00    -0.292 N 
HETATM    4  C1  UNL     1      26.712   2.297  51.324  1.00  0.00     0.178 C 
HETATM    5  C2  UNL     1      26.337   0.424  53.076  1.00  0.00     0.077 A 
HETATM    6  C9  UNL     1      25.099   0.496  53.680  1.00  0.00     0.142 A 
BRANCH   5   7
HETATM    7  C3  UNL     1      27.455  -0.491  53.235  1.00  0.00    -0.005 C 
HETATM    8  C4  UNL     1      27.410  -1.756  52.819  1.00  0.00     0.014 C 
HETATM    9  C5  UNL     1      28.559  -2.640  53.000  1.00  0.00     0.014 C 
HETATM   10  C6  UNL     1      29.687  -2.030  53.267  1.00  0.00    -0.014 C 
HETATM   11  C7  UNL     1      29.740  -0.883  53.824  1.00  0.00    -0.013 C 
HETATM   12  C8  UNL     1      28.693  -0.087  53.854  1.00  0.00     0.027 C 
ENDBRANCH   5   7
ENDBRANCH   1   2
BRANCH   1  13
HETATM   13  C11 UNL     1      22.648   1.846  51.951  1.00  0.00     0.028 C 
HETATM   14  C12 UNL     1      22.479   1.904  50.643  1.00  0.00     0.074 A 
HETATM   15  N3  UNL     1      23.389   2.663  49.860  1.00  0.00    -0.277 N 
HETATM   16  C15 UNL     1      21.340   1.162  50.117  1.00  0.00     0.055 A 
HETATM   17  N4  UNL     1      23.089   2.638  48.479  1.00  0.00    -0.187 NA
HETATM   18  H11 UNL     1      24.195   3.189  50.224  1.00  0.00     0.189 HD
HETATM   19  C13 UNL     1      22.088   1.989  47.990  1.00  0.00     0.141 A 
HETATM   20  C14 UNL     1      21.141   1.200  48.804  1.00  0.00     0.052 A 
BRANCH  16  21
HETATM   21  N5  UNL     1      20.455   0.417  50.932  1.00  0.00    -0.397 N 
HETATM   22  H14 UNL     1      20.806  -0.022  51.809  1.00  0.00     0.156 HD
HETATM   23  H15 UNL     1      19.421   0.226  50.775  1.00  0.00     0.156 HD
ENDBRANCH  16  21
ENDBRANCH   1  13
TORSDOF 4
ENDMDL
MODEL 8
REMARK VINA RESULT:      -7.2      2.582      4.065
REMARK  4 active torsions:
REMARK  status: ('A' for Active; 'I' for Inactive)
REMARK    1  A    between atoms: C2_3  and  C3_4 
REMARK    2  A    between atoms: N2_11  and  C10_12 
REMARK    3  A    between atoms: C10_12  and  C11_13 
REMARK    4  A    between atoms: C15_19  and  N5_20 
ROOT
HETATM    1  C10 UNL     1      24.192   0.240  53.593  1.00  0.00     0.178 C 
ENDROOT
BRANCH   1   2
HETATM    2  N2  UNL     1      23.820   0.938  52.375  1.00  0.00    -0.295 N 
HETATM    3  N1  UNL     1      22.730   1.019  51.616  1.00  0.00    -0.292 N 
HETATM    4  C1  UNL     1      21.387   0.427  51.672  1.00  0.00     0.178 C 
HETATM    5  C2  UNL     1      23.347   1.865  50.770  1.00  0.00     0.077 A 
HETATM    6  C9  UNL     1      24.477   1.780  51.557  1.00  0.00     0.142 A 
BRANCH   5   7
HETATM    7  C3  UNL     1      23.051   2.597  49.550  1.00  0.00    -0.005 C 
HETATM    8  C4  UNL     1      22.425   2.041  48.515  1.00  0.00     0.014 C 
HETATM    9  C5  UNL     1      22.149   2.815  47.307  1.00  0.00     0.014 C 
HETATM   10  C6  UNL     1      22.247   4.113  47.452  1.00  0.00    -0.014 C 
HETATM   11  C7  UNL     1      22.984   4.660  48.340  1.00  0.00    -0.013 C 
HETATM   12  C8  UNL     1      23.418   3.981  49.381  1.00  0.00     0.027 C 
ENDBRANCH   5   7
ENDBRANCH   1   2
BRANCH   1  13
HETATM   13  C11 UNL     1      25.503  -0.413  53.423  1.00  0.00     0.028 C 
HETATM   14  C12 UNL     1      26.728   0.008  53.676  1.00  0.00     0.074 A 
HETATM   15  N3  UNL     1      26.917   1.311  54.210  1.00  0.00    -0.277 N 
HETATM   16  C15 UNL     1      27.798  -0.935  53.375  1.00  0.00     0.055 A 
HETATM   17  N4  UNL     1      28.276   1.628  54.431  1.00  0.00    -0.187 NA
HETATM   18  H11 UNL     1      26.167   1.981  54.426  1.00  0.00     0.189 HD
HETATM   19  C13 UNL     1      29.240   0.812  54.172  1.00  0.00     0.141 A 
HETATM   20  C14 UNL     1      29.043  -0.544  53.618  1.00  0.00     0.052 A 
BRANCH  16  21
HETATM   21  N5  UNL     1      27.568  -2.227  52.843  1.00  0.00    -0.397 N 
HETATM   22  H14 UNL     1      28.156  -2.574  52.056  1.00  0.00     0.156 HD
HETATM   23  H15 UNL     1      26.841  -2.942  53.145  1.00  0.00     0.156 HD
ENDBRANCH  16  21
ENDBRANCH   1  13
TORSDOF 4
ENDMDL
MODEL 9
REMARK VINA RESULT:      -7.1      3.542      7.798
REMARK  4 active torsions:
REMARK  status: ('A' for Active; 'I' for Inactive)
REMARK    1  A    between atoms: C2_3  and  C3_4 
REMARK    2  A    between atoms: N2_11  and  C10_12 
REMARK    3  A    between atoms: C10_12  and  C11_13 
REMARK    4  A    between atoms: C15_19  and  N5_20 
ROOT
HETATM    1  C10 UNL     1      23.236   2.608  51.881  1.00  0.00     0.178 C 
ENDROOT
BRANCH   1   2
HETATM    2  N2  UNL     1      24.487   1.946  52.202  1.00  0.00    -0.295 N 
HETATM    3  N1  UNL     1      25.728   1.964  51.722  1.00  0.00    -0.292 N 
HETATM    4  C1  UNL     1      26.401   2.677  50.627  1.00  0.00     0.178 C 
HETATM    5  C2  UNL     1      26.128   1.066  52.640  1.00  0.00     0.077 A 
HETATM    6  C9  UNL     1      24.842   1.046  53.139  1.00  0.00     0.142 A 
BRANCH   5   7
HETATM    7  C3  UNL     1      27.341   0.364  53.024  1.00  0.00    -0.005 C 
HETATM    8  C4  UNL     1      27.495  -0.948  52.854  1.00  0.00     0.014 C 
HETATM    9  C5  UNL     1      28.733  -1.611  53.255  1.00  0.00     0.014 C 
HETATM   10  C6  UNL     1      29.747  -0.808  53.459  1.00  0.00    -0.014 C 
HETATM   11  C7  UNL     1      29.607   0.417  53.791  1.00  0.00    -0.013 C 
HETATM   12  C8  UNL     1      28.464   1.047  53.618  1.00  0.00     0.027 C 
ENDBRANCH   5   7
ENDBRANCH   1   2
BRANCH   1  13
HETATM   13  C11 UNL     1      23.445   4.064  51.772  1.00  0.00     0.028 C 
HETATM   14  C12 UNL     1      22.722   5.010  51.203  1.00  0.00     0.074 A 
HETATM   15  N3  UNL     1      21.508   4.660  50.553  1.00  0.00    -0.277 N 
HETATM   16  C15 UNL     1      23.257   6.362  51.301  1.00  0.00     0.055 A 
HETATM   17  N4  UNL     1      20.840   5.769  49.989  1.00  0.00    -0.187 NA
HETATM   18  H11 UNL     1      21.125   3.708  50.480  1.00  0.00     0.189 HD
HETATM   19  C13 UNL     1      21.293   6.974  50.062  1.00  0.00     0.141 A 
HETATM   20  C14 UNL     1      22.555   7.339  50.739  1.00  0.00     0.052 A 
BRANCH  16  21
HETATM   21  N5  UNL     1      24.472   6.671  51.959  1.00  0.00    -0.397 N 
HETATM   22  H14 UNL     1      25.194   5.930  52.085  1.00  0.00     0.156 HD
HETATM   23  H15 UNL     1      24.780   7.603  52.369  1.00  0.00     0.156 HD
ENDBRANCH  16  21
ENDBRANCH   1  13
TORSDOF 4
ENDMDL
