MODEL 1
REMARK VINA RESULT:      -8.7      0.000      0.000
REMARK  5 active torsions:
REMARK  status: ('A' for Active; 'I' for Inactive)
REMARK    1  A    between atoms: C1_2  and  C2_3 
REMARK       I    between atoms: C1_2  and  N2_12 
REMARK    2  A    between atoms: C3_4  and  C4_5 
REMARK    3  A    between atoms: C4_5  and  N1_6 
REMARK    4  A    between atoms: C12_16  and  N3_17 
REMARK    5  A    between atoms: N3_17  and  C13_18 
ROOT
HETATM    1  O1  UNL     1      21.855  -1.408  55.199  1.00  0.00    -0.256 OA
HETATM    2  C1  UNL     1      22.337  -0.896  54.154  1.00  0.00     0.323 C 
HETATM    3  N2  UNL     1      21.434  -0.441  53.126  1.00  0.00    -0.201 N 
HETATM    4  C9  UNL     1      20.014  -0.572  53.313  1.00  0.00     0.136 A 
HETATM    5  C10 UNL     1      19.229  -0.141  52.340  1.00  0.00     0.017 A 
HETATM    6  C11 UNL     1      17.783  -0.238  52.451  1.00  0.00     0.065 A 
HETATM    7  C12 UNL     1      17.020   0.200  51.462  1.00  0.00     0.122 A 
HETATM    8  N4  UNL     1      17.574   0.779  50.265  1.00  0.00    -0.262 N 
HETATM    9  N5  UNL     1      18.985   0.867  50.173  1.00  0.00    -0.171 NA
HETATM   10  C19 UNL     1      19.748   0.449  51.118  1.00  0.00     0.107 A 
HETATM   11  C20 UNL     1      21.196   0.554  50.989  1.00  0.00     0.173 A 
HETATM   12  N6  UNL     1      21.937   0.125  51.952  1.00  0.00    -0.175 NA
HETATM   13  H17 UNL     1      17.063   1.146  49.449  1.00  0.00     0.191 HD
ENDROOT
BRANCH   2  14
HETATM   14  C2  UNL     1      23.747  -0.739  53.921  1.00  0.00    -0.002 C 
HETATM   15  C3  UNL     1      24.933  -0.605  53.745  1.00  0.00    -0.066 C 
BRANCH  15  16
HETATM   16  C4  UNL     1      26.378  -0.445  53.557  1.00  0.00     0.366 C 
BRANCH  16  17
HETATM   17  N1  UNL     1      26.819   0.499  54.570  1.00  0.00     0.103 N 
HETATM   18  C5  UNL     1      28.241   0.368  54.832  1.00  0.00     0.299 C 
HETATM   19  C6  UNL     1      29.066   0.562  53.586  1.00  0.00     0.198 C 
HETATM   20  O2  UNL     1      28.793   1.732  52.927  1.00  0.00    -0.388 OA
HETATM   21  C7  UNL     1      27.470   2.061  52.796  1.00  0.00     0.198 C 
HETATM   22  C8  UNL     1      26.632   1.840  54.026  1.00  0.00     0.299 C 
ENDBRANCH  16  17
ENDBRANCH  15  16
ENDBRANCH   2  14
BRANCH   7  23
HETATM   23  N3  UNL     1      15.598   0.182  51.405  1.00  0.00    -0.341 N 
HETATM   24  H13 UNL     1      14.857  -0.415  50.979  1.00  0.00     0.167 HD
BRANCH  23  25
HETATM   25  C13 UNL     1      14.875   1.222  52.088  1.00  0.00     0.035 A 
HETATM   26  C14 UNL     1      15.146   2.544  51.866  1.00  0.00     0.032 A 
HETATM   27  C15 UNL     1      14.414   3.470  52.563  1.00  0.00     0.046 A 
HETATM   28  C16 UNL     1      13.426   3.168  53.469  1.00  0.00     0.138 A 
HETATM   29  F1  UNL     1      12.729   4.142  54.135  1.00  0.00    -0.204 F 
HETATM   30  C17 UNL     1      13.170   1.811  53.677  1.00  0.00     0.074 A 
HETATM   31 CL1  UNL     1      11.908   1.394  54.836  1.00  0.00    -0.081 Cl
HETATM   32  C18 UNL     1      13.898   0.859  52.983  1.00  0.00     0.056 A 
ENDBRANCH  23  25
ENDBRANCH   7  23
TORSDOF 5
ENDMDL
MODEL 2
REMARK VINA RESULT:      -8.6      1.601      2.201
REMARK  5 active torsions:
REMARK  status: ('A' for Active; 'I' for Inactive)
REMARK    1  A    between atoms: C1_2  and  C2_3 
REMARK       I    between atoms: C1_2  and  N2_12 
REMARK    2  A    between atoms: C3_4  and  C4_5 
REMARK    3  A    between atoms: C4_5  and  N1_6 
REMARK    4  A    between atoms: C12_16  and  N3_17 
REMARK    5  A    between atoms: N3_17  and  C13_18 
ROOT
HETATM    1  O1  UNL     1      22.484   1.778  51.111  1.00  0.00    -0.256 OA
HETATM    2  C1  UNL     1      22.584   0.938  52.044  1.00  0.00     0.323 C 
HETATM    3  N2  UNL     1      21.393   0.258  52.493  1.00  0.00    -0.201 N 
HETATM    4  C9  UNL     1      20.130   0.542  51.869  1.00  0.00     0.136 A 
HETATM    5  C10 UNL     1      19.068  -0.107  52.318  1.00  0.00     0.017 A 
HETATM    6  C11 UNL     1      17.754   0.124  51.742  1.00  0.00     0.065 A 
HETATM    7  C12 UNL     1      16.708  -0.538  52.211  1.00  0.00     0.122 A 
HETATM    8  N4  UNL     1      16.824  -1.494  53.283  1.00  0.00    -0.262 N 
HETATM    9  N5  UNL     1      18.112  -1.708  53.833  1.00  0.00    -0.171 NA
HETATM   10  C19 UNL     1      19.142  -1.077  53.397  1.00  0.00     0.107 A 
HETATM   11  C20 UNL     1      20.453  -1.322  53.987  1.00  0.00     0.173 A 
HETATM   12  N6  UNL     1      21.469  -0.675  53.531  1.00  0.00    -0.175 NA
HETATM   13  H17 UNL     1      16.072  -2.054  53.710  1.00  0.00     0.191 HD
ENDROOT
BRANCH   2  14
HETATM   14  C2  UNL     1      23.823   0.615  52.697  1.00  0.00    -0.002 C 
HETATM   15  C3  UNL     1      24.858   0.358  53.259  1.00  0.00    -0.066 C 
BRANCH  15  16
HETATM   16  C4  UNL     1      26.111   0.061  53.961  1.00  0.00     0.366 C 
BRANCH  16  17
HETATM   17  N1  UNL     1      27.158   0.083  52.955  1.00  0.00     0.103 N 
HETATM   18  C5  UNL     1      27.544   1.443  52.622  1.00  0.00     0.299 C 
HETATM   19  C6  UNL     1      28.008   2.211  53.833  1.00  0.00     0.198 C 
HETATM   20  O2  UNL     1      28.999   1.577  54.535  1.00  0.00    -0.388 OA
HETATM   21  C7  UNL     1      28.834   0.232  54.738  1.00  0.00     0.198 C 
HETATM   22  C8  UNL     1      28.340  -0.538  53.544  1.00  0.00     0.299 C 
ENDBRANCH  16  17
ENDBRANCH  15  16
ENDBRANCH   2  14
BRANCH   7  23
HETATM   23  N3  UNL     1      15.361  -0.435  51.767  1.00  0.00    -0.341 N 
HETATM   24  H13 UNL     1      14.733  -0.938  51.104  1.00  0.00     0.167 HD
BRANCH  23  25
HETATM   25  C13 UNL     1      14.540   0.612  52.316  1.00  0.00     0.035 A 
HETATM   26  C14 UNL     1      14.562   1.880  51.804  1.00  0.00     0.032 A 
HETATM   27  C15 UNL     1      13.753   2.817  52.391  1.00  0.00     0.046 A 
HETATM   28  C16 UNL     1      12.919   2.578  53.457  1.00  0.00     0.138 A 
HETATM   29  F1  UNL     1      12.134   3.561  53.999  1.00  0.00    -0.204 F 
HETATM   30  C17 UNL     1      12.916   1.275  53.960  1.00  0.00     0.074 A 
HETATM   31 CL1  UNL     1      11.856   0.939  55.329  1.00  0.00    -0.081 Cl
HETATM   32  C18 UNL     1      13.725   0.312  53.382  1.00  0.00     0.056 A 
ENDBRANCH  23  25
ENDBRANCH   7  23
TORSDOF 5
ENDMDL
MODEL 3
REMARK VINA RESULT:      -8.3      5.188     10.857
REMARK  5 active torsions:
REMARK  status: ('A' for Active; 'I' for Inactive)
REMARK    1  A    between atoms: C1_2  and  C2_3 
REMARK       I    between atoms: C1_2  and  N2_12 
REMARK    2  A    between atoms: C3_4  and  C4_5 
REMARK    3  A    between atoms: C4_5  and  N1_6 
REMARK    4  A    between atoms: C12_16  and  N3_17 
REMARK    5  A    between atoms: N3_17  and  C13_18 
ROOT
HETATM    1  O1  UNL     1      20.377   1.287  49.540  1.00  0.00    -0.256 OA
HETATM    2  C1  UNL     1      19.601   0.836  50.424  1.00  0.00     0.323 C 
HETATM    3  N2  UNL     1      20.172   0.280  51.627  1.00  0.00    -0.201 N 
HETATM    4  C9  UNL     1      21.600   0.256  51.796  1.00  0.00     0.136 A 
HETATM    5  C10 UNL     1      22.072  -0.265  52.915  1.00  0.00     0.017 A 
HETATM    6  C11 UNL     1      23.504  -0.328  53.162  1.00  0.00     0.065 A 
HETATM    7  C12 UNL     1      23.950  -0.857  54.291  1.00  0.00     0.122 A 
HETATM    8  N4  UNL     1      23.061  -1.377  55.298  1.00  0.00    -0.262 N 
HETATM    9  N5  UNL     1      21.669  -1.308  55.042  1.00  0.00    -0.171 NA
HETATM   10  C19 UNL     1      21.210  -0.801  53.955  1.00  0.00     0.107 A 
HETATM   11  C20 UNL     1      19.772  -0.747  53.724  1.00  0.00     0.173 A 
HETATM   12  N6  UNL     1      19.339  -0.234  52.624  1.00  0.00    -0.175 NA
HETATM   13  H17 UNL     1      23.315  -1.803  56.202  1.00  0.00     0.191 HD
ENDROOT
BRANCH   2  14
HETATM   14  C2  UNL     1      18.169   0.841  50.306  1.00  0.00    -0.002 C 
HETATM   15  C3  UNL     1      16.969   0.844  50.186  1.00  0.00    -0.066 C 
BRANCH  15  16
HETATM   16  C4  UNL     1      15.513   0.845  50.016  1.00  0.00     0.366 C 
BRANCH  16  17
HETATM   17  N1  UNL     1      14.967   0.126  51.154  1.00  0.00     0.103 N 
HETATM   18  C5  UNL     1      15.029   0.926  52.365  1.00  0.00     0.299 C 
HETATM   19  C6  UNL     1      14.299   2.236  52.214  1.00  0.00     0.198 C 
HETATM   20  O2  UNL     1      13.005   2.093  51.784  1.00  0.00    -0.388 OA
HETATM   21  C7  UNL     1      12.800   1.202  50.765  1.00  0.00     0.198 C 
HETATM   22  C8  UNL     1      13.550  -0.096  50.890  1.00  0.00     0.299 C 
ENDBRANCH  16  17
ENDBRANCH  15  16
ENDBRANCH   2  14
BRANCH   7  23
HETATM   23  N3  UNL     1      25.308  -0.997  54.692  1.00  0.00    -0.341 N 
HETATM   24  H13 UNL     1      25.882  -1.687  55.222  1.00  0.00     0.167 HD
BRANCH  23  25
HETATM   25  C13 UNL     1      26.239   0.036  54.320  1.00  0.00     0.035 A 
HETATM   26  C14 UNL     1      25.843   1.337  54.175  1.00  0.00     0.032 A 
HETATM   27  C15 UNL     1      26.793   2.255  53.813  1.00  0.00     0.046 A 
HETATM   28  C16 UNL     1      28.117   1.965  53.583  1.00  0.00     0.138 A 
HETATM   29  F1  UNL     1      29.020   2.931  53.223  1.00  0.00    -0.204 F 
HETATM   30  C17 UNL     1      28.495   0.630  53.738  1.00  0.00     0.074 A 
HETATM   31 CL1  UNL     1      30.188   0.229  53.450  1.00  0.00    -0.081 Cl
HETATM   32  C18 UNL     1      27.551  -0.314  54.104  1.00  0.00     0.056 A 
ENDBRANCH  23  25
ENDBRANCH   7  23
TORSDOF 5
ENDMDL
MODEL 4
REMARK VINA RESULT:      -8.0      7.340     10.101
REMARK  5 active torsions:
REMARK  status: ('A' for Active; 'I' for Inactive)
REMARK    1  A    between atoms: C1_2  and  C2_3 
REMARK       I    between atoms: C1_2  and  N2_12 
REMARK    2  A    between atoms: C3_4  and  C4_5 
REMARK    3  A    between atoms: C4_5  and  N1_6 
REMARK    4  A    between atoms: C12_16  and  N3_17 
REMARK    5  A    between atoms: N3_17  and  C13_18 
ROOT
HETATM    1  O1  UNL     1      29.313   4.747  48.116  1.00  0.00    -0.256 OA
HETATM    2  C1  UNL     1      28.655   5.789  48.376  1.00  0.00     0.323 C 
HETATM    3  N2  UNL     1      27.327   5.649  48.924  1.00  0.00    -0.201 N 
HETATM    4  C9  UNL     1      26.788   4.339  49.166  1.00  0.00     0.136 A 
HETATM    5  C10 UNL     1      25.567   4.265  49.668  1.00  0.00     0.017 A 
HETATM    6  C11 UNL     1      24.949   2.978  49.941  1.00  0.00     0.065 A 
HETATM    7  C12 UNL     1      23.724   2.933  50.441  1.00  0.00     0.122 A 
HETATM    8  N4  UNL     1      22.971   4.126  50.732  1.00  0.00    -0.262 N 
HETATM    9  N5  UNL     1      23.587   5.373  50.461  1.00  0.00    -0.171 NA
HETATM   10  C19 UNL     1      24.774   5.444  49.974  1.00  0.00     0.107 A 
HETATM   11  C20 UNL     1      25.377   6.743  49.706  1.00  0.00     0.173 A 
HETATM   12  N6  UNL     1      26.568   6.785  49.217  1.00  0.00    -0.175 NA
HETATM   13  H17 UNL     1      22.018   4.189  51.122  1.00  0.00     0.191 HD
ENDROOT
BRANCH   2  14
HETATM   14  C2  UNL     1      29.149   7.120  48.157  1.00  0.00    -0.002 C 
HETATM   15  C3  UNL     1      29.546   8.243  47.964  1.00  0.00    -0.066 C 
BRANCH  15  16
HETATM   16  C4  UNL     1      30.006   9.613  47.722  1.00  0.00     0.366 C 
BRANCH  16  17
HETATM   17  N1  UNL     1      29.756  10.351  48.949  1.00  0.00     0.103 N 
HETATM   18  C5  UNL     1      30.494  11.601  48.974  1.00  0.00     0.299 C 
HETATM   19  C6  UNL     1      30.160  12.479  47.796  1.00  0.00     0.198 C 
HETATM   20  O2  UNL     1      28.816  12.704  47.646  1.00  0.00    -0.388 OA
HETATM   21  C7  UNL     1      27.998  11.616  47.801  1.00  0.00     0.198 C 
HETATM   22  C8  UNL     1      28.344  10.716  48.956  1.00  0.00     0.299 C 
ENDBRANCH  16  17
ENDBRANCH  15  16
ENDBRANCH   2  14
BRANCH   7  23
HETATM   23  N3  UNL     1      22.975   1.768  50.766  1.00  0.00    -0.341 N 
HETATM   24  H13 UNL     1      22.148   1.259  50.386  1.00  0.00     0.167 HD
BRANCH  23  25
HETATM   25  C13 UNL     1      23.376   0.998  51.914  1.00  0.00     0.035 A 
HETATM   26  C14 UNL     1      24.663   1.018  52.374  1.00  0.00     0.032 A 
HETATM   27  C15 UNL     1      24.960   0.250  53.469  1.00  0.00     0.046 A 
HETATM   28  C16 UNL     1      24.059  -0.541  54.141  1.00  0.00     0.138 A 
HETATM   29  F1  UNL     1      24.419  -1.286  55.233  1.00  0.00    -0.204 F 
HETATM   30  C17 UNL     1      22.751  -0.543  53.652  1.00  0.00     0.074 A 
HETATM   31 CL1  UNL     1      21.572  -1.547  54.494  1.00  0.00    -0.081 Cl
HETATM   32  C18 UNL     1      22.429   0.227  52.546  1.00  0.00     0.056 A 
ENDBRANCH  23  25
ENDBRANCH   7  23
TORSDOF 5
ENDMDL
MODEL 5
REMARK VINA RESULT:      -8.0      7.442      9.790
REMARK  5 active torsions:
REMARK  status: ('A' for Active; 'I' for Inactive)
REMARK    1  A    between atoms: C1_2  and  C2_3 
REMARK       I    between atoms: C1_2  and  N2_12 
REMARK    2  A    between atoms: C3_4  and  C4_5 
REMARK    3  A    between atoms: C4_5  and  N1_6 
REMARK    4  A    between atoms: C12_16  and  N3_17 
REMARK    5  A    between atoms: N3_17  and  C13_18 
ROOT
HETATM    1  O1  UNL     1      27.694   5.477  48.177  1.00  0.00    -0.256 OA
HETATM    2  C1  UNL     1      27.090   6.325  48.886  1.00  0.00     0.323 C 
HETATM    3  N2  UNL     1      25.932   5.902  49.635  1.00  0.00    -0.201 N 
HETATM    4  C9  UNL     1      25.495   4.534  49.563  1.00  0.00     0.136 A 
HETATM    5  C10 UNL     1      24.427   4.198  50.267  1.00  0.00     0.017 A 
HETATM    6  C11 UNL     1      23.921   2.836  50.248  1.00  0.00     0.065 A 
HETATM    7  C12 UNL     1      22.849   2.526  50.960  1.00  0.00     0.122 A 
HETATM    8  N4  UNL     1      22.157   3.499  51.766  1.00  0.00    -0.262 N 
HETATM    9  N5  UNL     1      22.663   4.823  51.774  1.00  0.00    -0.171 NA
HETATM   10  C19 UNL     1      23.701   5.149  51.091  1.00  0.00     0.107 A 
HETATM   11  C20 UNL     1      24.194   6.520  51.122  1.00  0.00     0.173 A 
HETATM   12  N6  UNL     1      25.236   6.820  50.426  1.00  0.00    -0.175 NA
HETATM   13  H17 UNL     1      21.321   3.352  52.351  1.00  0.00     0.191 HD
ENDROOT
BRANCH   2  14
HETATM   14  C2  UNL     1      27.489   7.702  48.995  1.00  0.00    -0.002 C 
HETATM   15  C3  UNL     1      27.814   8.861  49.069  1.00  0.00    -0.066 C 
BRANCH  15  16
HETATM   16  C4  UNL     1      28.196  10.275  49.137  1.00  0.00     0.366 C 
BRANCH  16  17
HETATM   17  N1  UNL     1      29.479  10.384  48.462  1.00  0.00     0.103 N 
HETATM   18  C5  UNL     1      29.311  10.545  47.029  1.00  0.00     0.299 C 
HETATM   19  C6  UNL     1      28.472  11.750  46.690  1.00  0.00     0.198 C 
HETATM   20  O2  UNL     1      28.923  12.909  47.265  1.00  0.00    -0.388 OA
HETATM   21  C7  UNL     1      29.303  12.826  48.578  1.00  0.00     0.198 C 
HETATM   22  C8  UNL     1      30.114  11.610  48.933  1.00  0.00     0.299 C 
ENDBRANCH  16  17
ENDBRANCH  15  16
ENDBRANCH   2  14
BRANCH   7  23
HETATM   23  N3  UNL     1      22.224   1.252  51.056  1.00  0.00    -0.341 N 
HETATM   24  H13 UNL     1      21.617   0.650  50.458  1.00  0.00     0.167 HD
BRANCH  23  25
HETATM   25  C13 UNL     1      22.410   0.490  52.263  1.00  0.00     0.035 A 
HETATM   26  C14 UNL     1      21.352  -0.061  52.930  1.00  0.00     0.032 A 
HETATM   27  C15 UNL     1      21.618  -0.766  54.075  1.00  0.00     0.046 A 
HETATM   28  C16 UNL     1      22.872  -0.961  54.602  1.00  0.00     0.138 A 
HETATM   29  F1  UNL     1      23.072  -1.678  55.753  1.00  0.00    -0.204 F 
HETATM   30  C17 UNL     1      23.935  -0.388  53.901  1.00  0.00     0.074 A 
HETATM   31 CL1  UNL     1      25.556  -0.622  54.555  1.00  0.00    -0.081 Cl
HETATM   32  C18 UNL     1      23.688   0.328  52.742  1.00  0.00     0.056 A 
ENDBRANCH  23  25
ENDBRANCH   7  23
TORSDOF 5
ENDMDL
MODEL 6
REMARK VINA RESULT:      -7.9      8.404     12.718
REMARK  5 active torsions:
REMARK  status: ('A' for Active; 'I' for Inactive)
REMARK    1  A    between atoms: C1_2  and  C2_3 
REMARK       I    between atoms: C1_2  and  N2_12 
REMARK    2  A    between atoms: C3_4  and  C4_5 
REMARK    3  A    between atoms: C4_5  and  N1_6 
REMARK    4  A    between atoms: C12_16  and  N3_17 
REMARK    5  A    between atoms: N3_17  and  C13_18 
ROOT
HETATM    1  O1  UNL     1      26.916   1.871  51.141  1.00  0.00    -0.256 OA
HETATM    2  C1  UNL     1      25.844   2.530  51.084  1.00  0.00     0.323 C 
HETATM    3  N2  UNL     1      25.822   3.749  50.313  1.00  0.00    -0.201 N 
HETATM    4  C9  UNL     1      27.008   4.182  49.626  1.00  0.00     0.136 A 
HETATM    5  C10 UNL     1      26.936   5.307  48.934  1.00  0.00     0.017 A 
HETATM    6  C11 UNL     1      28.091   5.814  48.213  1.00  0.00     0.065 A 
HETATM    7  C12 UNL     1      27.992   6.943  47.529  1.00  0.00     0.122 A 
HETATM    8  N4  UNL     1      26.766   7.698  47.470  1.00  0.00    -0.262 N 
HETATM    9  N5  UNL     1      25.649   7.191  48.179  1.00  0.00    -0.171 NA
HETATM   10  C19 UNL     1      25.720   6.098  48.850  1.00  0.00     0.107 A 
HETATM   11  C20 UNL     1      24.551   5.605  49.569  1.00  0.00     0.173 A 
HETATM   12  N6  UNL     1      24.650   4.507  50.235  1.00  0.00    -0.175 NA
HETATM   13  H17 UNL     1      26.596   8.581  46.967  1.00  0.00     0.191 HD
ENDROOT
BRANCH   2  14
HETATM   14  C2  UNL     1      24.631   2.138  51.748  1.00  0.00    -0.002 C 
HETATM   15  C3  UNL     1      23.623   1.794  52.313  1.00  0.00    -0.066 C 
BRANCH  15  16
HETATM   16  C4  UNL     1      22.411   1.357  53.013  1.00  0.00     0.366 C 
BRANCH  16  17
HETATM   17  N1  UNL     1      22.098   0.034  52.500  1.00  0.00     0.103 N 
HETATM   18  C5  UNL     1      22.902  -0.988  53.146  1.00  0.00     0.299 C 
HETATM   19  C6  UNL     1      22.725  -0.985  54.643  1.00  0.00     0.198 C 
HETATM   20  O2  UNL     1      21.415  -1.068  55.037  1.00  0.00    -0.388 OA
HETATM   21  C7  UNL     1      20.525  -0.285  54.353  1.00  0.00     0.198 C 
HETATM   22  C8  UNL     1      20.714  -0.256  52.861  1.00  0.00     0.299 C 
ENDBRANCH  16  17
ENDBRANCH  15  16
ENDBRANCH   2  14
BRANCH   7  23
HETATM   23  N3  UNL     1      29.016   7.578  46.772  1.00  0.00    -0.341 N 
HETATM   24  H13 UNL     1      29.110   8.019  45.832  1.00  0.00     0.167 HD
BRANCH  23  25
HETATM   25  C13 UNL     1      30.321   7.706  47.363  1.00  0.00     0.035 A 
HETATM   26  C14 UNL     1      30.554   8.562  48.403  1.00  0.00     0.032 A 
HETATM   27  C15 UNL     1      31.829   8.626  48.902  1.00  0.00     0.046 A 
HETATM   28  C16 UNL     1      32.893   7.893  48.434  1.00  0.00     0.138 A 
HETATM   29  F1  UNL     1      34.145   8.003  48.978  1.00  0.00    -0.204 F 
HETATM   30  C17 UNL     1      32.628   7.026  47.372  1.00  0.00     0.074 A 
HETATM   31 CL1  UNL     1      33.974   6.072  46.750  1.00  0.00    -0.081 Cl
HETATM   32  C18 UNL     1      31.347   6.945  46.853  1.00  0.00     0.056 A 
ENDBRANCH  23  25
ENDBRANCH   7  23
TORSDOF 5
ENDMDL
MODEL 7
REMARK VINA RESULT:      -7.9      6.699      8.896
REMARK  5 active torsions:
REMARK  status: ('A' for Active; 'I' for Inactive)
REMARK    1  A    between atoms: C1_2  and  C2_3 
REMARK       I    between atoms: C1_2  and  N2_12 
REMARK    2  A    between atoms: C3_4  and  C4_5 
REMARK    3  A    between atoms: C4_5  and  N1_6 
REMARK    4  A    between atoms: C12_16  and  N3_17 
REMARK    5  A    between atoms: N3_17  and  C13_18 
ROOT
HETATM    1  O1  UNL     1      27.557   4.072  48.884  1.00  0.00    -0.256 OA
HETATM    2  C1  UNL     1      26.733   5.024  48.890  1.00  0.00     0.323 C 
HETATM    3  N2  UNL     1      25.375   4.762  49.300  1.00  0.00    -0.201 N 
HETATM    4  C9  UNL     1      24.992   3.435  49.697  1.00  0.00     0.136 A 
HETATM    5  C10 UNL     1      23.735   3.247  50.064  1.00  0.00     0.017 A 
HETATM    6  C11 UNL     1      23.267   1.934  50.478  1.00  0.00     0.065 A 
HETATM    7  C12 UNL     1      22.004   1.774  50.838  1.00  0.00     0.122 A 
HETATM    8  N4  UNL     1      21.062   2.864  50.838  1.00  0.00    -0.262 N 
HETATM    9  N5  UNL     1      21.534   4.137  50.432  1.00  0.00    -0.171 NA
HETATM   10  C19 UNL     1      22.754   4.319  50.076  1.00  0.00     0.107 A 
HETATM   11  C20 UNL     1      23.206   5.643  49.663  1.00  0.00     0.173 A 
HETATM   12  N6  UNL     1      24.435   5.796  49.311  1.00  0.00    -0.175 NA
HETATM   13  H17 UNL     1      20.066   2.835  51.101  1.00  0.00     0.191 HD
ENDROOT
BRANCH   2  14
HETATM   14  C2  UNL     1      27.066   6.369  48.507  1.00  0.00    -0.002 C 
HETATM   15  C3  UNL     1      27.362   7.490  48.173  1.00  0.00    -0.066 C 
BRANCH  15  16
HETATM   16  C4  UNL     1      27.738   8.843  47.753  1.00  0.00     0.366 C 
BRANCH  16  17
HETATM   17  N1  UNL     1      27.997   9.592  48.970  1.00  0.00     0.103 N 
HETATM   18  C5  UNL     1      29.353   9.380  49.445  1.00  0.00     0.299 C 
HETATM   19  C6  UNL     1      30.380   9.756  48.408  1.00  0.00     0.198 C 
HETATM   20  O2  UNL     1      30.223  11.027  47.920  1.00  0.00    -0.388 OA
HETATM   21  C7  UNL     1      28.941  11.409  47.623  1.00  0.00     0.198 C 
HETATM   22  C8  UNL     1      27.904  11.009  48.637  1.00  0.00     0.299 C 
ENDBRANCH  16  17
ENDBRANCH  15  16
ENDBRANCH   2  14
BRANCH   7  23
HETATM   23  N3  UNL     1      21.383   0.568  51.268  1.00  0.00    -0.341 N 
HETATM   24  H13 UNL     1      20.650  -0.083  50.914  1.00  0.00     0.167 HD
BRANCH  23  25
HETATM   25  C13 UNL     1      21.803  -0.006  52.519  1.00  0.00     0.035 A 
HETATM   26  C14 UNL     1      20.896  -0.475  53.430  1.00  0.00     0.032 A 
HETATM   27  C15 UNL     1      21.382  -1.001  54.598  1.00  0.00     0.046 A 
HETATM   28  C16 UNL     1      22.714  -1.093  54.924  1.00  0.00     0.138 A 
HETATM   29  F1  UNL     1      23.135  -1.630  56.111  1.00  0.00    -0.204 F 
HETATM   30  C17 UNL     1      23.618  -0.607  53.977  1.00  0.00     0.074 A 
HETATM   31 CL1  UNL     1      25.334  -0.712  54.368  1.00  0.00    -0.081 Cl
HETATM   32  C18 UNL     1      23.149  -0.072  52.789  1.00  0.00     0.056 A 
ENDBRANCH  23  25
ENDBRANCH   7  23
TORSDOF 5
ENDMDL
MODEL 8
REMARK VINA RESULT:      -7.9      1.804      2.197
REMARK  5 active torsions:
REMARK  status: ('A' for Active; 'I' for Inactive)
REMARK    1  A    between atoms: C1_2  and  C2_3 
REMARK       I    between atoms: C1_2  and  N2_12 
REMARK    2  A    between atoms: C3_4  and  C4_5 
REMARK    3  A    between atoms: C4_5  and  N1_6 
REMARK    4  A    between atoms: C12_16  and  N3_17 
REMARK    5  A    between atoms: N3_17  and  C13_18 
ROOT
HETATM    1  O1  UNL     1      20.943  -1.473  53.733  1.00  0.00    -0.256 OA
HETATM    2  C1  UNL     1      21.717  -0.510  53.484  1.00  0.00     0.323 C 
HETATM    3  N2  UNL     1      21.169   0.678  52.876  1.00  0.00    -0.201 N 
HETATM    4  C9  UNL     1      19.765   0.744  52.574  1.00  0.00     0.136 A 
HETATM    5  C10 UNL     1      19.313   1.854  52.015  1.00  0.00     0.017 A 
HETATM    6  C11 UNL     1      17.907   2.000  51.678  1.00  0.00     0.065 A 
HETATM    7  C12 UNL     1      17.481   3.122  51.118  1.00  0.00     0.122 A 
HETATM    8  N4  UNL     1      18.369   4.219  50.829  1.00  0.00    -0.262 N 
HETATM    9  N5  UNL     1      19.737   4.061  51.164  1.00  0.00    -0.171 NA
HETATM   10  C19 UNL     1      20.175   2.983  51.707  1.00  0.00     0.107 A 
HETATM   11  C20 UNL     1      21.589   2.854  52.038  1.00  0.00     0.173 A 
HETATM   12  N6  UNL     1      22.001   1.761  52.581  1.00  0.00    -0.175 NA
HETATM   13  H17 UNL     1      18.130   5.125  50.399  1.00  0.00     0.191 HD
ENDROOT
BRANCH   2  14
HETATM   14  C2  UNL     1      23.125  -0.524  53.770  1.00  0.00    -0.002 C 
HETATM   15  C3  UNL     1      24.310  -0.523  53.996  1.00  0.00    -0.066 C 
BRANCH  15  16
HETATM   16  C4  UNL     1      25.753  -0.502  54.252  1.00  0.00     0.366 C 
BRANCH  16  17
HETATM   17  N1  UNL     1      26.387  -0.148  52.994  1.00  0.00     0.103 N 
HETATM   18  C5  UNL     1      26.110   1.230  52.630  1.00  0.00     0.299 C 
HETATM   19  C6  UNL     1      26.558   2.197  53.696  1.00  0.00     0.198 C 
HETATM   20  O2  UNL     1      27.870   2.038  54.060  1.00  0.00    -0.388 OA
HETATM   21  C7  UNL     1      28.299   0.750  54.237  1.00  0.00     0.198 C 
HETATM   22  C8  UNL     1      27.830  -0.229  53.196  1.00  0.00     0.299 C 
ENDBRANCH  16  17
ENDBRANCH  15  16
ENDBRANCH   2  14
BRANCH   7  23
HETATM   23  N3  UNL     1      16.149   3.431  50.726  1.00  0.00    -0.341 N 
HETATM   24  H13 UNL     1      15.631   3.592  49.836  1.00  0.00     0.167 HD
BRANCH  23  25
HETATM   25  C13 UNL     1      15.154   3.585  51.754  1.00  0.00     0.035 A 
HETATM   26  C14 UNL     1      15.373   4.377  52.848  1.00  0.00     0.032 A 
HETATM   27  C15 UNL     1      14.374   4.463  53.782  1.00  0.00     0.046 A 
HETATM   28  C16 UNL     1      13.166   3.811  53.702  1.00  0.00     0.138 A 
HETATM   29  F1  UNL     1      12.207   3.939  54.671  1.00  0.00    -0.204 F 
HETATM   30  C17 UNL     1      12.968   3.009  52.576  1.00  0.00     0.074 A 
HETATM   31 CL1  UNL     1      11.428   2.161  52.446  1.00  0.00    -0.081 Cl
HETATM   32  C18 UNL     1      13.965   2.909  51.619  1.00  0.00     0.056 A 
ENDBRANCH  23  25
ENDBRANCH   7  23
TORSDOF 5
ENDMDL
MODEL 9
REMARK VINA RESULT:      -7.8      5.545      7.571
REMARK  5 active torsions:
REMARK  status: ('A' for Active; 'I' for Inactive)
REMARK    1  A    between atoms: C1_2  and  C2_3 
REMARK       I    between atoms: C1_2  and  N2_12 
REMARK    2  A    between atoms: C3_4  and  C4_5 
REMARK    3  A    between atoms: C4_5  and  N1_6 
REMARK    4  A    between atoms: C12_16  and  N3_17 
REMARK    5  A    between atoms: N3_17  and  C13_18 
ROOT
HETATM    1  O1  UNL     1      25.769   6.614  48.714  1.00  0.00    -0.256 OA
HETATM    2  C1  UNL     1      26.520   5.641  48.991  1.00  0.00     0.323 C 
HETATM    3  N2  UNL     1      25.986   4.560  49.784  1.00  0.00    -0.201 N 
HETATM    4  C9  UNL     1      24.622   4.609  50.233  1.00  0.00     0.136 A 
HETATM    5  C10 UNL     1      24.182   3.594  50.958  1.00  0.00     0.017 A 
HETATM    6  C11 UNL     1      22.815   3.568  51.452  1.00  0.00     0.065 A 
HETATM    7  C12 UNL     1      22.401   2.540  52.177  1.00  0.00     0.122 A 
HETATM    8  N4  UNL     1      23.263   1.431  52.497  1.00  0.00    -0.262 N 
HETATM    9  N5  UNL     1      24.592   1.472  52.008  1.00  0.00    -0.171 NA
HETATM   10  C19 UNL     1      25.019   2.458  51.304  1.00  0.00     0.107 A 
HETATM   11  C20 UNL     1      26.393   2.467  50.817  1.00  0.00     0.173 A 
HETATM   12  N6  UNL     1      26.795   3.469  50.114  1.00  0.00    -0.175 NA
HETATM   13  H17 UNL     1      23.030   0.593  53.050  1.00  0.00     0.191 HD
ENDROOT
BRANCH   2  14
HETATM   14  C2  UNL     1      27.888   5.542  48.563  1.00  0.00    -0.002 C 
HETATM   15  C3  UNL     1      29.042   5.472  48.219  1.00  0.00    -0.066 C 
BRANCH  15  16
HETATM   16  C4  UNL     1      30.451   5.400  47.821  1.00  0.00     0.366 C 
BRANCH  16  17
HETATM   17  N1  UNL     1      31.048   6.669  48.200  1.00  0.00     0.103 N 
HETATM   18  C5  UNL     1      32.191   6.477  49.074  1.00  0.00     0.299 C 
HETATM   19  C6  UNL     1      33.246   5.606  48.441  1.00  0.00     0.198 C 
HETATM   20  O2  UNL     1      33.642   6.040  47.203  1.00  0.00    -0.388 OA
HETATM   21  C7  UNL     1      32.645   6.442  46.354  1.00  0.00     0.198 C 
HETATM   22  C8  UNL     1      31.570   7.285  46.984  1.00  0.00     0.299 C 
ENDBRANCH  16  17
ENDBRANCH  15  16
ENDBRANCH   2  14
BRANCH   7  23
HETATM   23  N3  UNL     1      21.106   2.354  52.735  1.00  0.00    -0.341 N 
HETATM   24  H13 UNL     1      20.607   2.612  53.613  1.00  0.00     0.167 HD
BRANCH  23  25
HETATM   25  C13 UNL     1      20.131   1.623  51.969  1.00  0.00     0.035 A 
HETATM   26  C14 UNL     1      19.847   1.955  50.673  1.00  0.00     0.032 A 
HETATM   27  C15 UNL     1      18.901   1.211  50.018  1.00  0.00     0.046 A 
HETATM   28  C16 UNL     1      18.216   0.154  50.567  1.00  0.00     0.138 A 
HETATM   29  F1  UNL     1      17.280  -0.552  49.857  1.00  0.00    -0.204 F 
HETATM   30  C17 UNL     1      18.525  -0.165  51.891  1.00  0.00     0.074 A 
HETATM   31 CL1  UNL     1      17.661  -1.516  52.622  1.00  0.00    -0.081 Cl
HETATM   32  C18 UNL     1      19.478   0.574  52.571  1.00  0.00     0.056 A 
ENDBRANCH  23  25
ENDBRANCH   7  23
TORSDOF 5
ENDMDL
