MODEL 1
REMARK VINA RESULT:      -7.5      0.000      0.000
REMARK  4 active torsions:
REMARK  status: ('A' for Active; 'I' for Inactive)
REMARK    1  A    between atoms: C4_5  and  N1_6 
REMARK    2  A    between atoms: N1_6  and  C5_7 
REMARK    3  A    between atoms: C5_7  and  O1_8 
REMARK    4  A    between atoms: O1_8  and  C6_9 
ROOT
HETATM    1  C5  UNL     1      23.465   1.333  51.977  1.00  0.00     0.171 C 
HETATM    2  C7  UNL     1      23.424   2.650  52.693  1.00  0.00     0.094 C 
HETATM    3  C8  UNL     1      24.065   3.703  51.860  1.00  0.00    -0.019 C 
HETATM    4  C9  UNL     1      23.974   3.672  50.516  1.00  0.00     0.028 C 
HETATM    5  C10 UNL     1      23.218   2.507  49.988  1.00  0.00     0.070 A 
HETATM    6  N2  UNL     1      22.886   2.853  48.695  1.00  0.00    -0.241 NA
HETATM    7  C11 UNL     1      21.895   2.107  48.102  1.00  0.00     0.233 A 
HETATM    8  N3  UNL     1      21.328   1.114  48.810  1.00  0.00    -0.253 NA
HETATM    9  C12 UNL     1      21.678   0.802  50.065  1.00  0.00     0.132 A 
HETATM   10  C13 UNL     1      22.664   1.488  50.734  1.00  0.00     0.043 A 
ENDROOT
BRANCH   1  11
HETATM   11  N1  UNL     1      24.923   1.241  51.586  1.00  0.00    -0.354 N 
HETATM   12  H3  UNL     1      25.073   1.596  50.599  1.00  0.00     0.163 HD
BRANCH  11  13
HETATM   13  C4  UNL     1      26.087   0.790  52.244  1.00  0.00     0.032 A 
HETATM   14  C3  UNL     1      26.330  -0.573  52.323  1.00  0.00     0.032 A 
HETATM   15  C2  UNL     1      27.451  -1.032  52.966  1.00  0.00     0.046 A 
HETATM   16  C1  UNL     1      28.349  -0.166  53.541  1.00  0.00     0.138 A 
HETATM   17  F1  UNL     1      29.428  -0.703  54.155  1.00  0.00    -0.204 F 
HETATM   18  C15 UNL     1      28.168   1.194  53.500  1.00  0.00     0.074 A 
HETATM   19  C14 UNL     1      27.031   1.612  52.846  1.00  0.00     0.056 A 
HETATM   20 CL2  UNL     1      29.301   2.308  54.227  1.00  0.00    -0.081 Cl
ENDBRANCH  11  13
ENDBRANCH   1  11
BRANCH   1  21
HETATM   21  O1  UNL     1      23.152   0.269  52.730  1.00  0.00    -0.342 OA
BRANCH  21  22
HETATM   22  C6  UNL     1      22.195   0.348  53.659  1.00  0.00     0.285 C 
HETATM   23 CL1  UNL     1      22.224  -0.893  54.947  1.00  0.00    -0.102 Cl
ENDBRANCH  21  22
ENDBRANCH   1  21
TORSDOF 4
ENDMDL
MODEL 2
REMARK VINA RESULT:      -7.1      2.524      4.295
REMARK  4 active torsions:
REMARK  status: ('A' for Active; 'I' for Inactive)
REMARK    1  A    between atoms: C4_5  and  N1_6 
REMARK    2  A    between atoms: N1_6  and  C5_7 
REMARK    3  A    between atoms: C5_7  and  O1_8 
REMARK    4  A    between atoms: O1_8  and  C6_9 
ROOT
HETATM    1  C5  UNL     1      22.937   3.043  50.535  1.00  0.00     0.171 C 
HETATM    2  C7  UNL     1      22.966   3.116  49.038  1.00  0.00     0.094 C 
HETATM    3  C8  UNL     1      22.237   1.957  48.457  1.00  0.00    -0.019 C 
HETATM    4  C9  UNL     1      21.159   1.437  49.078  1.00  0.00     0.028 C 
HETATM    5  C10 UNL     1      20.819   2.106  50.359  1.00  0.00     0.070 A 
HETATM    6  N2  UNL     1      19.517   1.735  50.621  1.00  0.00    -0.241 NA
HETATM    7  C11 UNL     1      18.847   2.489  51.556  1.00  0.00     0.233 A 
HETATM    8  N3  UNL     1      19.494   3.514  52.139  1.00  0.00    -0.253 NA
HETATM    9  C12 UNL     1      20.763   3.845  51.864  1.00  0.00     0.132 A 
HETATM   10  C13 UNL     1      21.512   3.144  50.948  1.00  0.00     0.043 A 
ENDROOT
BRANCH   1  11
HETATM   11  N1  UNL     1      23.398   1.625  50.784  1.00  0.00    -0.354 N 
HETATM   12  H3  UNL     1      23.434   1.075  49.879  1.00  0.00     0.163 HD
BRANCH  11  13
HETATM   13  C4  UNL     1      23.777   0.906  51.938  1.00  0.00     0.032 A 
HETATM   14  C3  UNL     1      25.121   0.820  52.265  1.00  0.00     0.032 A 
HETATM   15  C2  UNL     1      25.512   0.118  53.377  1.00  0.00     0.046 A 
HETATM   16  C1  UNL     1      24.593  -0.508  54.184  1.00  0.00     0.138 A 
HETATM   17  F1  UNL     1      25.064  -1.177  55.261  1.00  0.00    -0.204 F 
HETATM   18  C15 UNL     1      23.247  -0.462  53.918  1.00  0.00     0.074 A 
HETATM   19  C14 UNL     1      22.900   0.252  52.792  1.00  0.00     0.056 A 
HETATM   20 CL2  UNL     1      22.068  -1.253  54.935  1.00  0.00    -0.081 Cl
ENDBRANCH  11  13
ENDBRANCH   1  11
BRANCH   1  21
HETATM   21  O1  UNL     1      23.773   3.885  51.159  1.00  0.00    -0.342 OA
BRANCH  21  22
HETATM   22  C6  UNL     1      24.737   4.515  50.484  1.00  0.00     0.285 C 
HETATM   23 CL1  UNL     1      26.287   3.642  50.296  1.00  0.00    -0.102 Cl
ENDBRANCH  21  22
ENDBRANCH   1  21
TORSDOF 4
ENDMDL
MODEL 3
REMARK VINA RESULT:      -7.0      2.520      3.720
REMARK  4 active torsions:
REMARK  status: ('A' for Active; 'I' for Inactive)
REMARK    1  A    between atoms: C4_5  and  N1_6 
REMARK    2  A    between atoms: N1_6  and  C5_7 
REMARK    3  A    between atoms: C5_7  and  O1_8 
REMARK    4  A    between atoms: O1_8  and  C6_9 
ROOT
HETATM    1  C5  UNL     1      23.255   3.452  50.526  1.00  0.00     0.171 C 
HETATM    2  C7  UNL     1      23.069   3.425  49.038  1.00  0.00     0.094 C 
HETATM    3  C8  UNL     1      22.561   2.093  48.613  1.00  0.00    -0.019 C 
HETATM    4  C9  UNL     1      21.728   1.386  49.401  1.00  0.00     0.028 C 
HETATM    5  C10 UNL     1      21.412   2.048  50.693  1.00  0.00     0.070 A 
HETATM    6  N2  UNL     1      20.280   1.410  51.154  1.00  0.00    -0.241 NA
HETATM    7  C11 UNL     1      19.581   2.055  52.147  1.00  0.00     0.233 A 
HETATM    8  N3  UNL     1      20.040   3.238  52.592  1.00  0.00    -0.253 NA
HETATM    9  C12 UNL     1      21.149   3.829  52.124  1.00  0.00     0.132 A 
HETATM   10  C13 UNL     1      21.914   3.254  51.136  1.00  0.00     0.043 A 
ENDROOT
BRANCH   1  11
HETATM   11  N1  UNL     1      24.065   2.196  50.758  1.00  0.00    -0.354 N 
HETATM   12  H3  UNL     1      23.995   1.543  49.927  1.00  0.00     0.163 HD
BRANCH  11  13
HETATM   13  C4  UNL     1      24.868   1.731  51.821  1.00  0.00     0.032 A 
HETATM   14  C3  UNL     1      24.399   0.695  52.614  1.00  0.00     0.032 A 
HETATM   15  C2  UNL     1      25.159   0.234  53.658  1.00  0.00     0.046 A 
HETATM   16  C1  UNL     1      26.388   0.779  53.940  1.00  0.00     0.138 A 
HETATM   17  F1  UNL     1      27.073   0.263  54.987  1.00  0.00    -0.204 F 
HETATM   18  C15 UNL     1      26.912   1.805  53.194  1.00  0.00     0.074 A 
HETATM   19  C14 UNL     1      26.116   2.238  52.158  1.00  0.00     0.056 A 
HETATM   20 CL2  UNL     1      28.474   2.507  53.541  1.00  0.00    -0.081 Cl
ENDBRANCH  11  13
ENDBRANCH   1  11
BRANCH   1  21
HETATM   21  O1  UNL     1      23.945   4.503  50.991  1.00  0.00    -0.342 OA
BRANCH  21  22
HETATM   22  C6  UNL     1      24.498   5.382  50.151  1.00  0.00     0.285 C 
HETATM   23 CL1  UNL     1      26.128   4.982  49.532  1.00  0.00    -0.102 Cl
ENDBRANCH  21  22
ENDBRANCH   1  21
TORSDOF 4
ENDMDL
MODEL 4
REMARK VINA RESULT:      -6.8      3.111      4.687
REMARK  4 active torsions:
REMARK  status: ('A' for Active; 'I' for Inactive)
REMARK    1  A    between atoms: C4_5  and  N1_6 
REMARK    2  A    between atoms: N1_6  and  C5_7 
REMARK    3  A    between atoms: C5_7  and  O1_8 
REMARK    4  A    between atoms: O1_8  and  C6_9 
ROOT
HETATM    1  C5  UNL     1      24.812   4.006  50.483  1.00  0.00     0.171 C 
HETATM    2  C7  UNL     1      24.090   3.252  49.406  1.00  0.00     0.094 C 
HETATM    3  C8  UNL     1      22.623   3.287  49.656  1.00  0.00    -0.019 C 
HETATM    4  C9  UNL     1      22.043   4.365  50.218  1.00  0.00     0.028 C 
HETATM    5  C10 UNL     1      22.995   5.451  50.566  1.00  0.00     0.070 A 
HETATM    6  N2  UNL     1      22.213   6.574  50.730  1.00  0.00    -0.241 NA
HETATM    7  C11 UNL     1      22.870   7.781  50.712  1.00  0.00     0.233 A 
HETATM    8  N3  UNL     1      24.204   7.784  50.538  1.00  0.00    -0.253 NA
HETATM    9  C12 UNL     1      24.936   6.671  50.386  1.00  0.00     0.132 A 
HETATM   10  C13 UNL     1      24.365   5.421  50.399  1.00  0.00     0.043 A 
ENDROOT
BRANCH   1  11
HETATM   11  N1  UNL     1      24.218   3.400  51.734  1.00  0.00    -0.354 N 
HETATM   12  H3  UNL     1      23.447   4.015  52.123  1.00  0.00     0.163 HD
BRANCH  11  13
HETATM   13  C4  UNL     1      24.472   2.222  52.468  1.00  0.00     0.032 A 
HETATM   14  C3  UNL     1      23.484   1.253  52.548  1.00  0.00     0.032 A 
HETATM   15  C2  UNL     1      23.708   0.105  53.264  1.00  0.00     0.046 A 
HETATM   16  C1  UNL     1      24.900  -0.112  53.912  1.00  0.00     0.138 A 
HETATM   17  F1  UNL     1      25.037  -1.271  54.594  1.00  0.00    -0.204 F 
HETATM   18  C15 UNL     1      25.919   0.807  53.874  1.00  0.00     0.074 A 
HETATM   19  C14 UNL     1      25.653   1.944  53.145  1.00  0.00     0.056 A 
HETATM   20 CL2  UNL     1      27.441   0.545  54.692  1.00  0.00    -0.081 Cl
ENDBRANCH  11  13
ENDBRANCH   1  11
BRANCH   1  21
HETATM   21  O1  UNL     1      26.140   3.827  50.505  1.00  0.00    -0.342 OA
BRANCH  21  22
HETATM   22  C6  UNL     1      26.806   3.518  49.389  1.00  0.00     0.285 C 
HETATM   23 CL1  UNL     1      27.709   4.846  48.601  1.00  0.00    -0.102 Cl
ENDBRANCH  21  22
ENDBRANCH   1  21
TORSDOF 4
ENDMDL
MODEL 5
REMARK VINA RESULT:      -6.8      3.065      4.980
REMARK  4 active torsions:
REMARK  status: ('A' for Active; 'I' for Inactive)
REMARK    1  A    between atoms: C4_5  and  N1_6 
REMARK    2  A    between atoms: N1_6  and  C5_7 
REMARK    3  A    between atoms: C5_7  and  O1_8 
REMARK    4  A    between atoms: O1_8  and  C6_9 
ROOT
HETATM    1  C5  UNL     1      24.896   2.722  52.249  1.00  0.00     0.171 C 
HETATM    2  C7  UNL     1      26.006   2.818  51.246  1.00  0.00     0.094 C 
HETATM    3  C8  UNL     1      25.468   2.637  49.871  1.00  0.00    -0.019 C 
HETATM    4  C9  UNL     1      24.237   3.079  49.547  1.00  0.00     0.028 C 
HETATM    5  C10 UNL     1      23.507   3.714  50.674  1.00  0.00     0.070 A 
HETATM    6  N2  UNL     1      22.496   4.441  50.081  1.00  0.00    -0.241 NA
HETATM    7  C11 UNL     1      21.894   5.395  50.866  1.00  0.00     0.233 A 
HETATM    8  N3  UNL     1      22.322   5.551  52.132  1.00  0.00    -0.253 NA
HETATM    9  C12 UNL     1      23.305   4.823  52.678  1.00  0.00     0.132 A 
HETATM   10  C13 UNL     1      23.960   3.842  51.971  1.00  0.00     0.043 A 
ENDROOT
BRANCH   1  11
HETATM   11  N1  UNL     1      24.220   1.434  51.838  1.00  0.00    -0.354 N 
HETATM   12  H3  UNL     1      24.636   1.059  50.939  1.00  0.00     0.163 HD
BRANCH  11  13
HETATM   13  C4  UNL     1      23.180   0.654  52.388  1.00  0.00     0.032 A 
HETATM   14  C3  UNL     1      23.467  -0.205  53.438  1.00  0.00     0.032 A 
HETATM   15  C2  UNL     1      22.473  -0.979  53.981  1.00  0.00     0.046 A 
HETATM   16  C1  UNL     1      21.186  -0.923  53.506  1.00  0.00     0.138 A 
HETATM   17  F1  UNL     1      20.267  -1.718  54.099  1.00  0.00    -0.204 F 
HETATM   18  C15 UNL     1      20.834  -0.094  52.469  1.00  0.00     0.074 A 
HETATM   19  C14 UNL     1      21.862   0.663  51.953  1.00  0.00     0.056 A 
HETATM   20 CL2  UNL     1      19.200  -0.012  51.854  1.00  0.00    -0.081 Cl
ENDBRANCH  11  13
ENDBRANCH   1  11
BRANCH   1  21
HETATM   21  O1  UNL     1      25.294   2.613  53.525  1.00  0.00    -0.342 OA
BRANCH  21  22
HETATM   22  C6  UNL     1      26.510   2.150  53.824  1.00  0.00     0.285 C 
HETATM   23 CL1  UNL     1      26.584   0.566  54.653  1.00  0.00    -0.102 Cl
ENDBRANCH  21  22
ENDBRANCH   1  21
TORSDOF 4
ENDMDL
MODEL 6
REMARK VINA RESULT:      -6.7      3.886      6.321
REMARK  4 active torsions:
REMARK  status: ('A' for Active; 'I' for Inactive)
REMARK    1  A    between atoms: C4_5  and  N1_6 
REMARK    2  A    between atoms: N1_6  and  C5_7 
REMARK    3  A    between atoms: C5_7  and  O1_8 
REMARK    4  A    between atoms: O1_8  and  C6_9 
ROOT
HETATM    1  C5  UNL     1      24.897   1.575  52.991  1.00  0.00     0.171 C 
HETATM    2  C7  UNL     1      24.917   1.240  51.530  1.00  0.00     0.094 C 
HETATM    3  C8  UNL     1      25.825   2.170  50.806  1.00  0.00    -0.019 C 
HETATM    4  C9  UNL     1      26.939   2.646  51.396  1.00  0.00     0.028 C 
HETATM    5  C10 UNL     1      27.131   2.178  52.792  1.00  0.00     0.070 A 
HETATM    6  N2  UNL     1      28.461   2.415  53.069  1.00  0.00    -0.241 NA
HETATM    7  C11 UNL     1      28.981   1.759  54.160  1.00  0.00     0.233 A 
HETATM    8  N3  UNL     1      28.173   0.948  54.868  1.00  0.00    -0.253 NA
HETATM    9  C12 UNL     1      26.882   0.744  54.573  1.00  0.00     0.132 A 
HETATM   10  C13 UNL     1      26.276   1.363  53.505  1.00  0.00     0.043 A 
ENDROOT
BRANCH   1  11
HETATM   11  N1  UNL     1      24.631   3.063  52.963  1.00  0.00    -0.354 N 
HETATM   12  H3  UNL     1      25.379   3.591  53.496  1.00  0.00     0.163 HD
BRANCH  11  13
HETATM   13  C4  UNL     1      23.621   3.867  52.392  1.00  0.00     0.032 A 
HETATM   14  C3  UNL     1      23.963   5.103  51.867  1.00  0.00     0.032 A 
HETATM   15  C2  UNL     1      22.996   5.904  51.316  1.00  0.00     0.046 A 
HETATM   16  C1  UNL     1      21.682   5.507  51.270  1.00  0.00     0.138 A 
HETATM   17  F1  UNL     1      20.792   6.357  50.708  1.00  0.00    -0.204 F 
HETATM   18  C15 UNL     1      21.275   4.295  51.771  1.00  0.00     0.074 A 
HETATM   19  C14 UNL     1      22.278   3.524  52.316  1.00  0.00     0.056 A 
HETATM   20 CL2  UNL     1      19.608   3.776  51.720  1.00  0.00    -0.081 Cl
ENDBRANCH  11  13
ENDBRANCH   1  11
BRANCH   1  21
HETATM   21  O1  UNL     1      23.927   0.976  53.696  1.00  0.00    -0.342 OA
BRANCH  21  22
HETATM   22  C6  UNL     1      23.286  -0.089  53.207  1.00  0.00     0.285 C 
HETATM   23 CL1  UNL     1      22.081  -0.862  54.280  1.00  0.00    -0.102 Cl
ENDBRANCH  21  22
ENDBRANCH   1  21
TORSDOF 4
ENDMDL
MODEL 7
REMARK VINA RESULT:      -6.7      2.620      3.380
REMARK  4 active torsions:
REMARK  status: ('A' for Active; 'I' for Inactive)
REMARK    1  A    between atoms: C4_5  and  N1_6 
REMARK    2  A    between atoms: N1_6  and  C5_7 
REMARK    3  A    between atoms: C5_7  and  O1_8 
REMARK    4  A    between atoms: O1_8  and  C6_9 
ROOT
HETATM    1  C5  UNL     1      20.257   1.404  51.216  1.00  0.00     0.171 C 
HETATM    2  C7  UNL     1      19.221   2.446  51.516  1.00  0.00     0.094 C 
HETATM    3  C8  UNL     1      19.875   3.762  51.748  1.00  0.00    -0.019 C 
HETATM    4  C9  UNL     1      20.992   4.106  51.077  1.00  0.00     0.028 C 
HETATM    5  C10 UNL     1      21.485   3.060  50.146  1.00  0.00     0.070 A 
HETATM    6  N2  UNL     1      22.341   3.718  49.289  1.00  0.00    -0.241 NA
HETATM    7  C11 UNL     1      22.659   3.060  48.124  1.00  0.00     0.233 A 
HETATM    8  N3  UNL     1      22.125   1.845  47.905  1.00  0.00    -0.253 NA
HETATM    9  C12 UNL     1      21.299   1.231  48.764  1.00  0.00     0.132 A 
HETATM   10  C13 UNL     1      20.931   1.810  49.955  1.00  0.00     0.043 A 
ENDROOT
BRANCH   1  11
HETATM   11  N1  UNL     1      21.232   1.602  52.354  1.00  0.00    -0.354 N 
HETATM   12  H3  UNL     1      20.980   2.460  52.923  1.00  0.00     0.163 HD
BRANCH  11  13
HETATM   13  C4  UNL     1      22.374   0.903  52.799  1.00  0.00     0.032 A 
HETATM   14  C3  UNL     1      22.235  -0.045  53.801  1.00  0.00     0.032 A 
HETATM   15  C2  UNL     1      23.333  -0.729  54.254  1.00  0.00     0.046 A 
HETATM   16  C1  UNL     1      24.583  -0.497  53.733  1.00  0.00     0.138 A 
HETATM   17  F1  UNL     1      25.612  -1.217  54.237  1.00  0.00    -0.204 F 
HETATM   18  C15 UNL     1      24.792   0.427  52.740  1.00  0.00     0.074 A 
HETATM   19  C14 UNL     1      23.663   1.092  52.316  1.00  0.00     0.056 A 
HETATM   20 CL2  UNL     1      26.375   0.733  52.068  1.00  0.00    -0.081 Cl
ENDBRANCH  11  13
ENDBRANCH   1  11
BRANCH   1  21
HETATM   21  O1  UNL     1      19.812   0.139  51.244  1.00  0.00    -0.342 OA
BRANCH  21  22
HETATM   22  C6  UNL     1      18.639  -0.159  51.807  1.00  0.00     0.285 C 
HETATM   23 CL1  UNL     1      18.696  -1.093  53.332  1.00  0.00    -0.102 Cl
ENDBRANCH  21  22
ENDBRANCH   1  21
TORSDOF 4
ENDMDL
MODEL 8
REMARK VINA RESULT:      -6.6      3.243      4.849
REMARK  4 active torsions:
REMARK  status: ('A' for Active; 'I' for Inactive)
REMARK    1  A    between atoms: C4_5  and  N1_6 
REMARK    2  A    between atoms: N1_6  and  C5_7 
REMARK    3  A    between atoms: C5_7  and  O1_8 
REMARK    4  A    between atoms: O1_8  and  C6_9 
ROOT
HETATM    1  C5  UNL     1      23.077   3.730  50.028  1.00  0.00     0.171 C 
HETATM    2  C7  UNL     1      21.684   4.271  49.901  1.00  0.00     0.094 C 
HETATM    3  C8  UNL     1      21.420   5.259  50.981  1.00  0.00    -0.019 C 
HETATM    4  C9  UNL     1      22.404   6.054  51.446  1.00  0.00     0.028 C 
HETATM    5  C10 UNL     1      23.723   5.822  50.803  1.00  0.00     0.070 A 
HETATM    6  N2  UNL     1      24.463   6.950  51.090  1.00  0.00    -0.241 NA
HETATM    7  C11 UNL     1      25.589   7.147  50.327  1.00  0.00     0.233 A 
HETATM    8  N3  UNL     1      25.886   6.245  49.373  1.00  0.00    -0.253 NA
HETATM    9  C12 UNL     1      25.146   5.156  49.125  1.00  0.00     0.132 A 
HETATM   10  C13 UNL     1      24.007   4.875  49.842  1.00  0.00     0.043 A 
ENDROOT
BRANCH   1  11
HETATM   11  N1  UNL     1      23.118   3.325  51.484  1.00  0.00    -0.354 N 
HETATM   12  H3  UNL     1      23.261   4.170  52.108  1.00  0.00     0.163 HD
BRANCH  11  13
HETATM   13  C4  UNL     1      23.010   2.092  52.161  1.00  0.00     0.032 A 
HETATM   14  C3  UNL     1      21.749   1.595  52.456  1.00  0.00     0.032 A 
HETATM   15  C2  UNL     1      21.622   0.403  53.122  1.00  0.00     0.046 A 
HETATM   16  C1  UNL     1      22.724  -0.320  53.508  1.00  0.00     0.138 A 
HETATM   17  F1  UNL     1      22.509  -1.486  54.159  1.00  0.00    -0.204 F 
HETATM   18  C15 UNL     1      24.000   0.115  53.248  1.00  0.00     0.074 A 
HETATM   19  C14 UNL     1      24.082   1.315  52.580  1.00  0.00     0.056 A 
HETATM   20 CL2  UNL     1      25.412  -0.794  53.733  1.00  0.00    -0.081 Cl
ENDBRANCH  11  13
ENDBRANCH   1  11
BRANCH   1  21
HETATM   21  O1  UNL     1      23.337   2.654  49.273  1.00  0.00    -0.342 OA
BRANCH  21  22
HETATM   22  C6  UNL     1      22.424   2.179  48.422  1.00  0.00     0.285 C 
HETATM   23 CL1  UNL     1      21.443   0.795  48.989  1.00  0.00    -0.102 Cl
ENDBRANCH  21  22
ENDBRANCH   1  21
TORSDOF 4
ENDMDL
MODEL 9
REMARK VINA RESULT:      -6.5      2.809      4.166
REMARK  4 active torsions:
REMARK  status: ('A' for Active; 'I' for Inactive)
REMARK    1  A    between atoms: C4_5  and  N1_6 
REMARK    2  A    between atoms: N1_6  and  C5_7 
REMARK    3  A    between atoms: C5_7  and  O1_8 
REMARK    4  A    between atoms: O1_8  and  C6_9 
ROOT
HETATM    1  C5  UNL     1      23.599   3.676  50.245  1.00  0.00     0.171 C 
HETATM    2  C7  UNL     1      22.384   3.846  51.108  1.00  0.00     0.094 C 
HETATM    3  C8  UNL     1      22.707   4.708  52.277  1.00  0.00    -0.019 C 
HETATM    4  C9  UNL     1      23.592   5.717  52.168  1.00  0.00     0.028 C 
HETATM    5  C10 UNL     1      24.200   5.845  50.819  1.00  0.00     0.070 A 
HETATM    6  N2  UNL     1      24.730   7.117  50.785  1.00  0.00    -0.241 NA
HETATM    7  C11 UNL     1      25.039   7.614  49.540  1.00  0.00     0.233 A 
HETATM    8  N3  UNL     1      24.807   6.841  48.464  1.00  0.00    -0.253 NA
HETATM    9  C12 UNL     1      24.294   5.605  48.534  1.00  0.00     0.132 A 
HETATM   10  C13 UNL     1      23.962   5.025  49.735  1.00  0.00     0.043 A 
ENDROOT
BRANCH   1  11
HETATM   11  N1  UNL     1      24.641   3.261  51.258  1.00  0.00    -0.354 N 
HETATM   12  H3  UNL     1      25.189   4.101  51.602  1.00  0.00     0.163 HD
BRANCH  11  13
HETATM   13  C4  UNL     1      25.024   2.024  51.820  1.00  0.00     0.032 A 
HETATM   14  C3  UNL     1      26.271   1.503  51.511  1.00  0.00     0.032 A 
HETATM   15  C2  UNL     1      26.658   0.298  52.039  1.00  0.00     0.046 A 
HETATM   16  C1  UNL     1      25.833  -0.414  52.875  1.00  0.00     0.138 A 
HETATM   17  F1  UNL     1      26.294  -1.592  53.352  1.00  0.00    -0.204 F 
HETATM   18  C15 UNL     1      24.586   0.045  53.221  1.00  0.00     0.074 A 
HETATM   19  C14 UNL     1      24.237   1.257  52.668  1.00  0.00     0.056 A 
HETATM   20 CL2  UNL     1      23.525  -0.848  54.283  1.00  0.00    -0.081 Cl
ENDBRANCH  11  13
ENDBRANCH   1  11
BRANCH   1  21
HETATM   21  O1  UNL     1      23.500   2.720  49.310  1.00  0.00    -0.342 OA
BRANCH  21  22
HETATM   22  C6  UNL     1      22.340   2.489  48.689  1.00  0.00     0.285 C 
HETATM   23 CL1  UNL     1      21.537   0.931  49.044  1.00  0.00    -0.102 Cl
ENDBRANCH  21  22
ENDBRANCH   1  21
TORSDOF 4
ENDMDL
