MODEL 1
REMARK VINA RESULT:      -7.8      0.000      0.000
REMARK  5 active torsions:
REMARK  status: ('A' for Active; 'I' for Inactive)
REMARK    1  A    between atoms: C5_8  and  C6_9 
REMARK    2  A    between atoms: C6_9  and  N3_10 
REMARK       I    between atoms: N3_10  and  C7_11 
REMARK    3  A    between atoms: C7_11  and  C8_13 
REMARK    4  A    between atoms: C9_14  and  C10_15 
REMARK    5  A    between atoms: C10_15  and  N4_16 
ROOT
HETATM    1  N3  UNL     1      24.536   4.274  51.830  1.00  0.00    -0.355 N 
HETATM    2  C7  UNL     1      24.568   2.855  51.920  1.00  0.00     0.240 C 
HETATM    3  O2  UNL     1      24.301   2.279  50.837  1.00  0.00    -0.269 OA
HETATM    4  H9  UNL     1      24.747   4.841  52.684  1.00  0.00     0.162 HD
ENDROOT
BRANCH   1   5
HETATM    5  C6  UNL     1      24.211   4.864  50.541  1.00  0.00     0.165 C 
BRANCH   5   6
HETATM    6  C5  UNL     1      25.287   5.736  50.090  1.00  0.00     0.126 C 
HETATM    7  O1  UNL     1      24.866   6.986  50.650  1.00  0.00    -0.328 OA
HETATM    8  C4  UNL     1      25.429   8.129  50.017  1.00  0.00     0.248 C 
HETATM    9  N2  UNL     1      26.714   8.057  50.037  1.00  0.00    -0.257 NA
HETATM   10  C3  UNL     1      27.592   9.048  49.478  1.00  0.00     0.299 C 
HETATM   11  N1  UNL     1      28.625   8.503  48.715  1.00  0.00    -0.273 NA
HETATM   12  C2  UNL     1      28.862   7.348  48.290  1.00  0.00     0.026 C 
HETATM   13  C1  UNL     1      30.124   7.671  47.597  1.00  0.00     0.070 C 
HETATM   14  C17 UNL     1      28.497   5.919  48.167  1.00  0.00     0.023 C 
HETATM   15  C16 UNL     1      27.451   5.204  48.635  1.00  0.00    -0.016 C 
HETATM   16  C15 UNL     1      26.176   4.984  49.365  1.00  0.00     0.059 C 
ENDBRANCH   5   6
ENDBRANCH   1   5
BRANCH   2  17
HETATM   17  C8  UNL     1      24.876   2.116  53.136  1.00  0.00     0.072 C 
HETATM   18  C9  UNL     1      26.058   1.562  53.340  1.00  0.00     0.008 C 
BRANCH  18  19
HETATM   19  C10 UNL     1      26.324   0.822  54.590  1.00  0.00     0.300 C 
BRANCH  19  20
HETATM   20  N4  UNL     1      27.420  -0.073  54.380  1.00  0.00     0.096 N 
HETATM   21  C11 UNL     1      27.417  -0.686  53.068  1.00  0.00     0.299 C 
HETATM   22  C12 UNL     1      28.502  -1.747  53.105  1.00  0.00     0.198 C 
HETATM   23  O3  UNL     1      29.733  -1.149  53.181  1.00  0.00    -0.388 OA
HETATM   24  C13 UNL     1      29.765   0.122  53.690  1.00  0.00     0.198 C 
HETATM   25  C14 UNL     1      28.710   0.427  54.722  1.00  0.00     0.299 C 
ENDBRANCH  19  20
ENDBRANCH  18  19
ENDBRANCH   2  17
TORSDOF 5
ENDMDL
MODEL 2
REMARK VINA RESULT:      -7.3      1.227      1.658
REMARK  5 active torsions:
REMARK  status: ('A' for Active; 'I' for Inactive)
REMARK    1  A    between atoms: C5_8  and  C6_9 
REMARK    2  A    between atoms: C6_9  and  N3_10 
REMARK       I    between atoms: N3_10  and  C7_11 
REMARK    3  A    between atoms: C7_11  and  C8_13 
REMARK    4  A    between atoms: C9_14  and  C10_15 
REMARK    5  A    between atoms: C10_15  and  N4_16 
ROOT
HETATM    1  N3  UNL     1      24.551   5.121  51.422  1.00  0.00    -0.355 N 
HETATM    2  C7  UNL     1      23.628   4.041  51.478  1.00  0.00     0.240 C 
HETATM    3  O2  UNL     1      22.652   4.176  50.700  1.00  0.00    -0.269 OA
HETATM    4  H9  UNL     1      25.399   5.096  52.036  1.00  0.00     0.162 HD
ENDROOT
BRANCH   1   5
HETATM    5  C6  UNL     1      24.264   6.210  50.503  1.00  0.00     0.165 C 
BRANCH   5   6
HETATM    6  C5  UNL     1      25.499   6.798  50.002  1.00  0.00     0.126 C 
HETATM    7  O1  UNL     1      25.385   8.131  50.518  1.00  0.00    -0.328 OA
HETATM    8  C4  UNL     1      26.178   9.092  49.832  1.00  0.00     0.248 C 
HETATM    9  N2  UNL     1      27.413   8.731  49.836  1.00  0.00    -0.257 NA
HETATM   10  C3  UNL     1      28.479   9.476  49.226  1.00  0.00     0.299 C 
HETATM   11  N1  UNL     1      29.344   8.684  48.471  1.00  0.00    -0.273 NA
HETATM   12  C2  UNL     1      29.304   7.491  48.088  1.00  0.00     0.026 C 
HETATM   13  C1  UNL     1      30.590   7.494  47.365  1.00  0.00     0.070 C 
HETATM   14  C17 UNL     1      28.622   6.178  48.027  1.00  0.00     0.023 C 
HETATM   15  C16 UNL     1      27.451   5.737  48.539  1.00  0.00    -0.016 C 
HETATM   16  C15 UNL     1      26.177   5.839  49.294  1.00  0.00     0.059 C 
ENDBRANCH   5   6
ENDBRANCH   1   5
BRANCH   2  17
HETATM   17  C8  UNL     1      23.774   2.879  52.344  1.00  0.00     0.072 C 
HETATM   18  C9  UNL     1      24.595   1.885  52.053  1.00  0.00     0.008 C 
BRANCH  18  19
HETATM   19  C10 UNL     1      24.709   0.728  52.963  1.00  0.00     0.300 C 
BRANCH  19  20
HETATM   20  N4  UNL     1      26.091   0.496  53.254  1.00  0.00     0.096 N 
HETATM   21  C11 UNL     1      26.332   0.123  54.632  1.00  0.00     0.299 C 
HETATM   22  C12 UNL     1      27.840   0.134  54.805  1.00  0.00     0.198 C 
HETATM   23  O3  UNL     1      28.396  -0.894  54.089  1.00  0.00    -0.388 OA
HETATM   24  C13 UNL     1      27.661  -1.374  53.038  1.00  0.00     0.198 C 
HETATM   25  C14 UNL     1      26.785  -0.359  52.350  1.00  0.00     0.299 C 
ENDBRANCH  19  20
ENDBRANCH  18  19
ENDBRANCH   2  17
TORSDOF 5
ENDMDL
MODEL 3
REMARK VINA RESULT:      -7.3      1.976      2.870
REMARK  5 active torsions:
REMARK  status: ('A' for Active; 'I' for Inactive)
REMARK    1  A    between atoms: C5_8  and  C6_9 
REMARK    2  A    between atoms: C6_9  and  N3_10 
REMARK       I    between atoms: N3_10  and  C7_11 
REMARK    3  A    between atoms: C7_11  and  C8_13 
REMARK    4  A    between atoms: C9_14  and  C10_15 
REMARK    5  A    between atoms: C10_15  and  N4_16 
ROOT
HETATM    1  N3  UNL     1      26.289   4.961  48.972  1.00  0.00    -0.355 N 
HETATM    2  C7  UNL     1      25.529   4.464  50.066  1.00  0.00     0.240 C 
HETATM    3  O2  UNL     1      24.832   5.344  50.631  1.00  0.00    -0.269 OA
HETATM    4  H9  UNL     1      26.901   4.299  48.438  1.00  0.00     0.162 HD
ENDROOT
BRANCH   1   5
HETATM    5  C6  UNL     1      26.172   6.374  48.651  1.00  0.00     0.165 C 
BRANCH   5   6
HETATM    6  C5  UNL     1      27.480   7.015  48.669  1.00  0.00     0.126 C 
HETATM    7  O1  UNL     1      27.137   8.296  49.214  1.00  0.00    -0.328 OA
HETATM    8  C4  UNL     1      28.082   9.321  48.933  1.00  0.00     0.248 C 
HETATM    9  N2  UNL     1      29.250   8.973  49.348  1.00  0.00    -0.257 NA
HETATM   10  C3  UNL     1      30.432   9.779  49.217  1.00  0.00     0.299 C 
HETATM   11  N1  UNL     1      31.539   9.065  48.758  1.00  0.00    -0.273 NA
HETATM   12  C2  UNL     1      31.684   7.910  48.293  1.00  0.00     0.026 C 
HETATM   13  C1  UNL     1      33.141   7.989  48.077  1.00  0.00     0.070 C 
HETATM   14  C17 UNL     1      31.121   6.601  47.890  1.00  0.00     0.023 C 
HETATM   15  C16 UNL     1      29.864   6.106  47.916  1.00  0.00    -0.016 C 
HETATM   16  C15 UNL     1      28.401   6.128  48.175  1.00  0.00     0.059 C 
ENDBRANCH   5   6
ENDBRANCH   1   5
BRANCH   2  17
HETATM   17  C8  UNL     1      25.537   3.078  50.510  1.00  0.00     0.072 C 
HETATM   18  C9  UNL     1      26.529   2.576  51.225  1.00  0.00     0.008 C 
BRANCH  18  19
HETATM   19  C10 UNL     1      26.492   1.163  51.653  1.00  0.00     0.300 C 
BRANCH  19  20
HETATM   20  N4  UNL     1      27.529   0.939  52.614  1.00  0.00     0.096 N 
HETATM   21  C11 UNL     1      27.903   2.132  53.344  1.00  0.00     0.299 C 
HETATM   22  C12 UNL     1      29.138   1.758  54.142  1.00  0.00     0.198 C 
HETATM   23  O3  UNL     1      28.800   0.868  55.128  1.00  0.00    -0.388 OA
HETATM   24  C13 UNL     1      27.661   0.136  54.927  1.00  0.00     0.198 C 
HETATM   25  C14 UNL     1      27.341  -0.172  53.487  1.00  0.00     0.299 C 
ENDBRANCH  19  20
ENDBRANCH  18  19
ENDBRANCH   2  17
TORSDOF 5
ENDMDL
MODEL 4
REMARK VINA RESULT:      -7.3      1.893      7.771
REMARK  5 active torsions:
REMARK  status: ('A' for Active; 'I' for Inactive)
REMARK    1  A    between atoms: C5_8  and  C6_9 
REMARK    2  A    between atoms: C6_9  and  N3_10 
REMARK       I    between atoms: N3_10  and  C7_11 
REMARK    3  A    between atoms: C7_11  and  C8_13 
REMARK    4  A    between atoms: C9_14  and  C10_15 
REMARK    5  A    between atoms: C10_15  and  N4_16 
ROOT
HETATM    1  N3  UNL     1      24.435   4.053  52.478  1.00  0.00    -0.355 N 
HETATM    2  C7  UNL     1      24.197   4.451  51.134  1.00  0.00     0.240 C 
HETATM    3  O2  UNL     1      23.524   3.618  50.478  1.00  0.00    -0.269 OA
HETATM    4  H9  UNL     1      24.988   4.684  53.104  1.00  0.00     0.162 HD
ENDROOT
BRANCH   1   5
HETATM    5  C6  UNL     1      23.888   2.778  52.915  1.00  0.00     0.165 C 
BRANCH   5   6
HETATM    6  C5  UNL     1      24.935   1.769  52.994  1.00  0.00     0.126 C 
HETATM    7  O1  UNL     1      24.191   0.590  52.662  1.00  0.00    -0.328 OA
HETATM    8  C4  UNL     1      24.793  -0.622  53.099  1.00  0.00     0.248 C 
HETATM    9  N2  UNL     1      25.988  -0.718  52.630  1.00  0.00    -0.257 NA
HETATM   10  C3  UNL     1      26.874  -1.820  52.883  1.00  0.00     0.299 C 
HETATM   11  N1  UNL     1      28.168  -1.422  53.218  1.00  0.00    -0.273 NA
HETATM   12  C2  UNL     1      28.683  -0.312  53.492  1.00  0.00     0.026 C 
HETATM   13  C1  UNL     1      30.056  -0.803  53.712  1.00  0.00     0.070 C 
HETATM   14  C17 UNL     1      28.566   1.152  53.683  1.00  0.00     0.023 C 
HETATM   15  C16 UNL     1      27.520   2.001  53.583  1.00  0.00    -0.016 C 
HETATM   16  C15 UNL     1      26.108   2.392  53.336  1.00  0.00     0.059 C 
ENDBRANCH   5   6
ENDBRANCH   1   5
BRANCH   2  17
HETATM   17  C8  UNL     1      24.676   5.695  50.549  1.00  0.00     0.072 C 
HETATM   18  C9  UNL     1      25.553   5.713  49.561  1.00  0.00     0.008 C 
BRANCH  18  19
HETATM   19  C10 UNL     1      26.009   7.001  48.999  1.00  0.00     0.300 C 
BRANCH  19  20
HETATM   20  N4  UNL     1      27.421   6.938  48.772  1.00  0.00     0.096 N 
HETATM   21  C11 UNL     1      27.879   5.626  48.365  1.00  0.00     0.299 C 
HETATM   22  C12 UNL     1      29.395   5.693  48.385  1.00  0.00     0.198 C 
HETATM   23  O3  UNL     1      29.835   6.516  47.381  1.00  0.00    -0.388 OA
HETATM   24  C13 UNL     1      28.946   7.450  46.922  1.00  0.00     0.198 C 
HETATM   25  C14 UNL     1      27.967   7.963  47.947  1.00  0.00     0.299 C 
ENDBRANCH  19  20
ENDBRANCH  18  19
ENDBRANCH   2  17
TORSDOF 5
ENDMDL
MODEL 5
REMARK VINA RESULT:      -7.2      3.347      7.396
REMARK  5 active torsions:
REMARK  status: ('A' for Active; 'I' for Inactive)
REMARK    1  A    between atoms: C5_8  and  C6_9 
REMARK    2  A    between atoms: C6_9  and  N3_10 
REMARK       I    between atoms: N3_10  and  C7_11 
REMARK    3  A    between atoms: C7_11  and  C8_13 
REMARK    4  A    between atoms: C9_14  and  C10_15 
REMARK    5  A    between atoms: C10_15  and  N4_16 
ROOT
HETATM    1  N3  UNL     1      26.990   5.030  49.102  1.00  0.00    -0.355 N 
HETATM    2  C7  UNL     1      27.468   6.157  48.379  1.00  0.00     0.240 C 
HETATM    3  O2  UNL     1      26.553   6.922  47.984  1.00  0.00    -0.269 OA
HETATM    4  H9  UNL     1      27.680   4.335  49.474  1.00  0.00     0.162 HD
ENDROOT
BRANCH   1   5
HETATM    5  C6  UNL     1      25.553   4.905  49.291  1.00  0.00     0.165 C 
BRANCH   5   6
HETATM    6  C5  UNL     1      25.251   3.855  50.254  1.00  0.00     0.126 C 
HETATM    7  O1  UNL     1      23.890   4.172  50.572  1.00  0.00    -0.328 OA
HETATM    8  C4  UNL     1      23.441   3.641  51.813  1.00  0.00     0.248 C 
HETATM    9  N2  UNL     1      23.604   2.365  51.833  1.00  0.00    -0.257 NA
HETATM   10  C3  UNL     1      23.256   1.519  52.942  1.00  0.00     0.299 C 
HETATM   11  N1  UNL     1      24.249   0.592  53.260  1.00  0.00    -0.273 NA
HETATM   12  C2  UNL     1      25.435   0.440  52.886  1.00  0.00     0.026 C 
HETATM   13  C1  UNL     1      25.727  -0.751  53.706  1.00  0.00     0.070 C 
HETATM   14  C17 UNL     1      26.594   0.863  52.067  1.00  0.00     0.023 C 
HETATM   15  C16 UNL     1      26.765   1.877  51.190  1.00  0.00    -0.016 C 
HETATM   16  C15 UNL     1      26.369   3.074  50.405  1.00  0.00     0.059 C 
ENDBRANCH   5   6
ENDBRANCH   1   5
BRANCH   2  17
HETATM   17  C8  UNL     1      28.873   6.423  48.108  1.00  0.00     0.072 C 
HETATM   18  C9  UNL     1      29.780   5.462  48.095  1.00  0.00     0.008 C 
BRANCH  18  19
HETATM   19  C10 UNL     1      31.194   5.781  47.814  1.00  0.00     0.300 C 
BRANCH  19  20
HETATM   20  N4  UNL     1      31.955   4.569  47.808  1.00  0.00     0.096 N 
HETATM   21  C11 UNL     1      31.784   3.791  46.599  1.00  0.00     0.299 C 
HETATM   22  C12 UNL     1      32.477   2.466  46.859  1.00  0.00     0.198 C 
HETATM   23  O3  UNL     1      33.832   2.659  46.932  1.00  0.00    -0.388 OA
HETATM   24  C13 UNL     1      34.254   3.920  47.256  1.00  0.00     0.198 C 
HETATM   25  C14 UNL     1      33.330   4.694  48.161  1.00  0.00     0.299 C 
ENDBRANCH  19  20
ENDBRANCH  18  19
ENDBRANCH   2  17
TORSDOF 5
ENDMDL
MODEL 6
REMARK VINA RESULT:      -7.2      2.587      8.831
REMARK  5 active torsions:
REMARK  status: ('A' for Active; 'I' for Inactive)
REMARK    1  A    between atoms: C5_8  and  C6_9 
REMARK    2  A    between atoms: C6_9  and  N3_10 
REMARK       I    between atoms: N3_10  and  C7_11 
REMARK    3  A    between atoms: C7_11  and  C8_13 
REMARK    4  A    between atoms: C9_14  and  C10_15 
REMARK    5  A    between atoms: C10_15  and  N4_16 
ROOT
HETATM    1  N3  UNL     1      26.008   4.197  50.561  1.00  0.00    -0.355 N 
HETATM    2  C7  UNL     1      26.242   4.793  49.292  1.00  0.00     0.240 C 
HETATM    3  O2  UNL     1      25.197   5.221  48.740  1.00  0.00    -0.269 OA
HETATM    4  H9  UNL     1      26.820   3.812  51.097  1.00  0.00     0.162 HD
ENDROOT
BRANCH   1   5
HETATM    5  C6  UNL     1      24.638   4.157  51.049  1.00  0.00     0.165 C 
BRANCH   5   6
HETATM    6  C5  UNL     1      24.401   2.939  51.813  1.00  0.00     0.126 C 
HETATM    7  O1  UNL     1      25.748   2.509  52.048  1.00  0.00    -0.328 OA
HETATM    8  C4  UNL     1      25.873   1.125  52.355  1.00  0.00     0.248 C 
HETATM    9  N2  UNL     1      25.140   0.829  53.370  1.00  0.00    -0.257 NA
HETATM   10  C3  UNL     1      25.033  -0.487  53.939  1.00  0.00     0.299 C 
HETATM   11  N1  UNL     1      23.718  -0.865  54.209  1.00  0.00    -0.273 NA
HETATM   12  C2  UNL     1      22.604  -0.367  53.924  1.00  0.00     0.026 C 
HETATM   13  C1  UNL     1      21.777  -1.393  54.588  1.00  0.00     0.070 C 
HETATM   14  C17 UNL     1      21.790   0.690  53.282  1.00  0.00     0.023 C 
HETATM   15  C16 UNL     1      22.125   1.797  52.583  1.00  0.00    -0.016 C 
HETATM   16  C15 UNL     1      23.046   2.775  51.950  1.00  0.00     0.059 C 
ENDBRANCH   5   6
ENDBRANCH   1   5
BRANCH   2  17
HETATM   17  C8  UNL     1      27.552   4.910  48.668  1.00  0.00     0.072 C 
HETATM   18  C9  UNL     1      28.118   6.082  48.439  1.00  0.00     0.008 C 
BRANCH  18  19
HETATM   19  C10 UNL     1      29.449   6.150  47.804  1.00  0.00     0.300 C 
BRANCH  19  20
HETATM   20  N4  UNL     1      29.863   7.518  47.730  1.00  0.00     0.096 N 
HETATM   21  C11 UNL     1      28.810   8.414  47.302  1.00  0.00     0.299 C 
HETATM   22  C12 UNL     1      29.477   9.758  47.074  1.00  0.00     0.198 C 
HETATM   23  O3  UNL     1      29.882  10.283  48.274  1.00  0.00    -0.388 OA
HETATM   24  C13 UNL     1      30.083   9.393  49.294  1.00  0.00     0.198 C 
HETATM   25  C14 UNL     1      30.552   8.025  48.870  1.00  0.00     0.299 C 
ENDBRANCH  19  20
ENDBRANCH  18  19
ENDBRANCH   2  17
TORSDOF 5
ENDMDL
MODEL 7
REMARK VINA RESULT:      -7.2      3.190      7.690
REMARK  5 active torsions:
REMARK  status: ('A' for Active; 'I' for Inactive)
REMARK    1  A    between atoms: C5_8  and  C6_9 
REMARK    2  A    between atoms: C6_9  and  N3_10 
REMARK       I    between atoms: N3_10  and  C7_11 
REMARK    3  A    between atoms: C7_11  and  C8_13 
REMARK    4  A    between atoms: C9_14  and  C10_15 
REMARK    5  A    between atoms: C10_15  and  N4_16 
ROOT
HETATM    1  N3  UNL     1      26.640   4.826  49.383  1.00  0.00    -0.355 N 
HETATM    2  C7  UNL     1      26.891   5.969  48.577  1.00  0.00     0.240 C 
HETATM    3  O2  UNL     1      25.846   6.561  48.208  1.00  0.00    -0.269 OA
HETATM    4  H9  UNL     1      27.452   4.268  49.740  1.00  0.00     0.162 HD
ENDROOT
BRANCH   1   5
HETATM    5  C6  UNL     1      25.255   4.492  49.674  1.00  0.00     0.165 C 
BRANCH   5   6
HETATM    6  C5  UNL     1      25.180   3.406  50.642  1.00  0.00     0.126 C 
HETATM    7  O1  UNL     1      26.565   3.259  50.981  1.00  0.00    -0.328 OA
HETATM    8  C4  UNL     1      26.899   1.993  51.537  1.00  0.00     0.248 C 
HETATM    9  N2  UNL     1      26.172   1.759  52.573  1.00  0.00    -0.257 NA
HETATM   10  C3  UNL     1      26.253   0.565  53.369  1.00  0.00     0.299 C 
HETATM   11  N1  UNL     1      25.006   0.021  53.675  1.00  0.00    -0.273 NA
HETATM   12  C2  UNL     1      23.841   0.264  53.280  1.00  0.00     0.026 C 
HETATM   13  C1  UNL     1      23.160  -0.754  54.101  1.00  0.00     0.070 C 
HETATM   14  C17 UNL     1      22.900   1.037  52.439  1.00  0.00     0.023 C 
HETATM   15  C16 UNL     1      23.085   2.045  51.557  1.00  0.00    -0.016 C 
HETATM   16  C15 UNL     1      23.866   3.039  50.777  1.00  0.00     0.059 C 
ENDBRANCH   5   6
ENDBRANCH   1   5
BRANCH   2  17
HETATM   17  C8  UNL     1      28.218   6.433  48.199  1.00  0.00     0.072 C 
HETATM   18  C9  UNL     1      29.278   5.645  48.250  1.00  0.00     0.008 C 
BRANCH  18  19
HETATM   19  C10 UNL     1      30.604   6.161  47.856  1.00  0.00     0.300 C 
BRANCH  19  20
HETATM   20  N4  UNL     1      31.598   5.177  48.162  1.00  0.00     0.096 N 
HETATM   21  C11 UNL     1      31.887   4.289  47.055  1.00  0.00     0.299 C 
HETATM   22  C12 UNL     1      32.780   3.201  47.621  1.00  0.00     0.198 C 
HETATM   23  O3  UNL     1      34.005   3.727  47.942  1.00  0.00    -0.388 OA
HETATM   24  C13 UNL     1      34.048   5.075  48.178  1.00  0.00     0.198 C 
HETATM   25  C14 UNL     1      32.792   5.664  48.769  1.00  0.00     0.299 C 
ENDBRANCH  19  20
ENDBRANCH  18  19
ENDBRANCH   2  17
TORSDOF 5
ENDMDL
MODEL 8
REMARK VINA RESULT:      -7.1      2.979      8.748
REMARK  5 active torsions:
REMARK  status: ('A' for Active; 'I' for Inactive)
REMARK    1  A    between atoms: C5_8  and  C6_9 
REMARK    2  A    between atoms: C6_9  and  N3_10 
REMARK       I    between atoms: N3_10  and  C7_11 
REMARK    3  A    between atoms: C7_11  and  C8_13 
REMARK    4  A    between atoms: C9_14  and  C10_15 
REMARK    5  A    between atoms: C10_15  and  N4_16 
ROOT
HETATM    1  N3  UNL     1      26.028   4.239  50.461  1.00  0.00    -0.355 N 
HETATM    2  C7  UNL     1      26.770   4.742  49.357  1.00  0.00     0.240 C 
HETATM    3  O2  UNL     1      27.540   3.893  48.843  1.00  0.00    -0.269 OA
HETATM    4  H9  UNL     1      25.359   4.876  50.954  1.00  0.00     0.162 HD
ENDROOT
BRANCH   1   5
HETATM    5  C6  UNL     1      26.241   2.853  50.845  1.00  0.00     0.165 C 
BRANCH   5   6
HETATM    6  C5  UNL     1      25.051   2.310  51.486  1.00  0.00     0.126 C 
HETATM    7  O1  UNL     1      24.061   3.247  51.042  1.00  0.00    -0.328 OA
HETATM    8  C4  UNL     1      22.891   3.286  51.851  1.00  0.00     0.248 C 
HETATM    9  N2  UNL     1      22.370   2.113  51.932  1.00  0.00    -0.257 NA
HETATM   10  C3  UNL     1      21.180   1.802  52.677  1.00  0.00     0.299 C 
HETATM   11  N1  UNL     1      21.302   0.652  53.456  1.00  0.00    -0.273 NA
HETATM   12  C2  UNL     1      22.272  -0.081  53.762  1.00  0.00     0.026 C 
HETATM   13  C1  UNL     1      21.515  -1.037  54.593  1.00  0.00     0.070 C 
HETATM   14  C17 UNL     1      23.713  -0.412  53.685  1.00  0.00     0.023 C 
HETATM   15  C16 UNL     1      24.749   0.177  53.048  1.00  0.00    -0.016 C 
HETATM   16  C15 UNL     1      25.415   1.191  52.191  1.00  0.00     0.059 C 
ENDBRANCH   5   6
ENDBRANCH   1   5
BRANCH   2  17
HETATM   17  C8  UNL     1      26.669   6.104  48.851  1.00  0.00     0.072 C 
HETATM   18  C9  UNL     1      27.624   6.654  48.121  1.00  0.00     0.008 C 
BRANCH  18  19
HETATM   19  C10 UNL     1      27.476   8.038  47.630  1.00  0.00     0.300 C 
BRANCH  19  20
HETATM   20  N4  UNL     1      28.676   8.766  47.913  1.00  0.00     0.096 N 
HETATM   21  C11 UNL     1      28.553   9.655  49.049  1.00  0.00     0.299 C 
HETATM   22  C12 UNL     1      29.823  10.486  49.062  1.00  0.00     0.198 C 
HETATM   23  O3  UNL     1      30.893   9.692  49.385  1.00  0.00    -0.388 OA
HETATM   24  C13 UNL     1      30.754   8.351  49.146  1.00  0.00     0.198 C 
HETATM   25  C14 UNL     1      29.873   7.995  47.976  1.00  0.00     0.299 C 
ENDBRANCH  19  20
ENDBRANCH  18  19
ENDBRANCH   2  17
TORSDOF 5
ENDMDL
MODEL 9
REMARK VINA RESULT:      -7.0      1.854      2.659
REMARK  5 active torsions:
REMARK  status: ('A' for Active; 'I' for Inactive)
REMARK    1  A    between atoms: C5_8  and  C6_9 
REMARK    2  A    between atoms: C6_9  and  N3_10 
REMARK       I    between atoms: N3_10  and  C7_11 
REMARK    3  A    between atoms: C7_11  and  C8_13 
REMARK    4  A    between atoms: C9_14  and  C10_15 
REMARK    5  A    between atoms: C10_15  and  N4_16 
ROOT
HETATM    1  N3  UNL     1      26.033   4.500  50.377  1.00  0.00    -0.355 N 
HETATM    2  C7  UNL     1      26.430   3.176  50.711  1.00  0.00     0.240 C 
HETATM    3  O2  UNL     1      26.840   2.513  49.726  1.00  0.00    -0.269 OA
HETATM    4  H9  UNL     1      25.678   5.130  51.134  1.00  0.00     0.162 HD
ENDROOT
BRANCH   1   5
HETATM    5  C6  UNL     1      26.148   4.912  48.987  1.00  0.00     0.165 C 
BRANCH   5   6
HETATM    6  C5  UNL     1      27.181   5.927  48.835  1.00  0.00     0.126 C 
HETATM    7  O1  UNL     1      28.220   5.157  48.217  1.00  0.00    -0.328 OA
HETATM    8  C4  UNL     1      29.521   5.713  48.358  1.00  0.00     0.248 C 
HETATM    9  N2  UNL     1      29.541   6.914  47.897  1.00  0.00    -0.257 NA
HETATM   10  C3  UNL     1      30.702   7.762  47.889  1.00  0.00     0.299 C 
HETATM   11  N1  UNL     1      30.439   9.060  48.329  1.00  0.00    -0.273 NA
HETATM   12  C2  UNL     1      29.446   9.600  48.871  1.00  0.00     0.026 C 
HETATM   13  C1  UNL     1      30.022  10.953  48.985  1.00  0.00     0.070 C 
HETATM   14  C17 UNL     1      28.069   9.522  49.407  1.00  0.00     0.023 C 
HETATM   15  C16 UNL     1      27.185   8.503  49.500  1.00  0.00    -0.016 C 
HETATM   16  C15 UNL     1      26.699   7.110  49.335  1.00  0.00     0.059 C 
ENDBRANCH   5   6
ENDBRANCH   1   5
BRANCH   2  17
HETATM   17  C8  UNL     1      26.375   2.617  52.054  1.00  0.00     0.072 C 
HETATM   18  C9  UNL     1      25.781   1.465  52.311  1.00  0.00     0.008 C 
BRANCH  18  19
HETATM   19  C10 UNL     1      25.752   0.938  53.690  1.00  0.00     0.300 C 
BRANCH  19  20
HETATM   20  N4  UNL     1      26.558  -0.243  53.757  1.00  0.00     0.096 N 
HETATM   21  C11 UNL     1      26.690  -0.920  52.484  1.00  0.00     0.299 C 
HETATM   22  C12 UNL     1      27.378  -2.239  52.787  1.00  0.00     0.198 C 
HETATM   23  O3  UNL     1      28.675  -2.007  53.167  1.00  0.00    -0.388 OA
HETATM   24  C13 UNL     1      28.952  -0.765  53.671  1.00  0.00     0.198 C 
HETATM   25  C14 UNL     1      27.817  -0.103  54.409  1.00  0.00     0.299 C 
ENDBRANCH  19  20
ENDBRANCH  18  19
ENDBRANCH   2  17
TORSDOF 5
ENDMDL
