MODEL 1
REMARK VINA RESULT:      -7.9      0.000      0.000
REMARK  9 active torsions:
REMARK  status: ('A' for Active; 'I' for Inactive)
REMARK    1  A    between atoms: C2_2  and  C3_3 
REMARK    2  A    between atoms: C3_3  and  C4_4 
REMARK    3  A    between atoms: C4_4  and  C5_5 
REMARK    4  A    between atoms: C5_5  and  O1_6 
REMARK    5  A    between atoms: O1_6  and  C6_7 
REMARK    6  A    between atoms: C9_10  and  N1_11 
REMARK    7  A    between atoms: N1_11  and  C10_12 
REMARK    8  A    between atoms: C10_12  and  C11_13 
REMARK    9  A    between atoms: C19_25  and  O2_26 
ROOT
HETATM    1  C6  UNL     1      23.672  -0.677  54.057  1.00  0.00     0.102 A 
HETATM    2  C7  UNL     1      23.214  -0.011  52.944  1.00  0.00     0.057 A 
HETATM    3  C8  UNL     1      21.884   0.096  52.598  1.00  0.00     0.041 A 
HETATM    4  C9  UNL     1      21.536   0.787  51.460  1.00  0.00     0.137 A 
HETATM    5  N2  UNL     1      20.213   0.815  51.242  1.00  0.00    -0.224 NA
HETATM    6  C16 UNL     1      19.319   0.230  52.050  1.00  0.00     0.235 A 
HETATM    7  N3  UNL     1      19.690  -0.446  53.169  1.00  0.00    -0.241 NA
HETATM    8  C17 UNL     1      21.019  -0.522  53.463  1.00  0.00     0.075 A 
HETATM    9  C18 UNL     1      21.430  -1.199  54.590  1.00  0.00     0.072 A 
HETATM   10  C19 UNL     1      22.762  -1.291  54.910  1.00  0.00     0.101 A 
ENDROOT
BRANCH   4  11
HETATM   11  N1  UNL     1      22.466   1.402  50.572  1.00  0.00    -0.370 N 
HETATM   12  H9  UNL     1      22.941   0.895  49.818  1.00  0.00     0.161 HD
BRANCH  11  13
HETATM   13  C10 UNL     1      22.795   2.797  50.693  1.00  0.00     0.157 C 
BRANCH  13  14
HETATM   14  C11 UNL     1      24.269   2.976  50.503  1.00  0.00    -0.034 A 
HETATM   15  C12 UNL     1      24.682   3.848  49.562  1.00  0.00     0.076 A 
HETATM   16 CL1  UNL     1      23.705   4.844  48.478  1.00  0.00    -0.081 Cl
HETATM   17  C13 UNL     1      26.132   3.945  49.467  1.00  0.00     0.135 A 
HETATM   18  F1  UNL     1      26.926   4.689  48.668  1.00  0.00    -0.205 F 
HETATM   19  C14 UNL     1      26.575   3.103  50.382  1.00  0.00     0.022 A 
HETATM   20  C15 UNL     1      25.476   2.405  51.127  1.00  0.00     0.068 A 
ENDBRANCH  13  14
ENDBRANCH  11  13
ENDBRANCH   4  11
BRANCH   1  21
HETATM   21  O1  UNL     1      25.001  -0.791  54.412  1.00  0.00    -0.348 OA
BRANCH  21  22
HETATM   22  C5  UNL     1      25.948   0.145  53.933  1.00  0.00     0.177 C 
BRANCH  22  23
HETATM   23  C4  UNL     1      26.899  -0.527  52.976  1.00  0.00     0.044 C 
BRANCH  23  24
HETATM   24  C3  UNL     1      28.272  -0.087  53.278  1.00  0.00     0.069 C 
BRANCH  24  25
HETATM   25  C2  UNL     1      28.506   1.177  53.548  1.00  0.00    -0.176 C 
HETATM   26  C1  UNL     1      28.683   2.480  53.582  1.00  0.00     0.091 C 
ENDBRANCH  24  25
ENDBRANCH  23  24
ENDBRANCH  22  23
ENDBRANCH  21  22
ENDBRANCH   1  21
BRANCH  10  27
HETATM   27  O2  UNL     1      23.053  -1.998  56.068  1.00  0.00    -0.358 OA
HETATM   28  H17 UNL     1      24.032  -1.910  56.381  1.00  0.00     0.217 HD
ENDBRANCH  10  27
TORSDOF 9
ENDMDL
MODEL 2
REMARK VINA RESULT:      -7.9      1.936      2.164
REMARK  9 active torsions:
REMARK  status: ('A' for Active; 'I' for Inactive)
REMARK    1  A    between atoms: C2_2  and  C3_3 
REMARK    2  A    between atoms: C3_3  and  C4_4 
REMARK    3  A    between atoms: C4_4  and  C5_5 
REMARK    4  A    between atoms: C5_5  and  O1_6 
REMARK    5  A    between atoms: O1_6  and  C6_7 
REMARK    6  A    between atoms: C9_10  and  N1_11 
REMARK    7  A    between atoms: N1_11  and  C10_12 
REMARK    8  A    between atoms: C10_12  and  C11_13 
REMARK    9  A    between atoms: C19_25  and  O2_26 
ROOT
HETATM    1  C6  UNL     1      23.381  -0.658  53.688  1.00  0.00     0.102 A 
HETATM    2  C7  UNL     1      22.722  -0.208  52.567  1.00  0.00     0.057 A 
HETATM    3  C8  UNL     1      21.350  -0.181  52.434  1.00  0.00     0.041 A 
HETATM    4  C9  UNL     1      20.794   0.290  51.267  1.00  0.00     0.137 A 
HETATM    5  N2  UNL     1      19.453   0.262  51.270  1.00  0.00    -0.224 NA
HETATM    6  C16 UNL     1      18.727  -0.180  52.305  1.00  0.00     0.235 A 
HETATM    7  N3  UNL     1      19.301  -0.641  53.446  1.00  0.00    -0.241 NA
HETATM    8  C17 UNL     1      20.663  -0.646  53.525  1.00  0.00     0.075 A 
HETATM    9  C18 UNL     1      21.278  -1.106  54.668  1.00  0.00     0.072 A 
HETATM   10  C19 UNL     1      22.647  -1.122  54.774  1.00  0.00     0.101 A 
ENDROOT
BRANCH   4  11
HETATM   11  N1  UNL     1      21.542   0.749  50.143  1.00  0.00    -0.370 N 
HETATM   12  H9  UNL     1      22.045   0.119  49.509  1.00  0.00     0.161 HD
BRANCH  11  13
HETATM   13  C10 UNL     1      21.633   2.151  49.836  1.00  0.00     0.157 C 
BRANCH  13  14
HETATM   14  C11 UNL     1      22.764   2.754  50.609  1.00  0.00    -0.034 A 
HETATM   15  C12 UNL     1      22.464   3.456  51.720  1.00  0.00     0.076 A 
HETATM   16 CL1  UNL     1      20.876   3.783  52.421  1.00  0.00    -0.081 Cl
HETATM   17  C13 UNL     1      23.638   3.993  52.394  1.00  0.00     0.135 A 
HETATM   18  F1  UNL     1      23.762   4.735  53.515  1.00  0.00    -0.205 F 
HETATM   19  C14 UNL     1      24.652   3.591  51.651  1.00  0.00     0.022 A 
HETATM   20  C15 UNL     1      24.230   2.781  50.461  1.00  0.00     0.068 A 
ENDBRANCH  13  14
ENDBRANCH  11  13
ENDBRANCH   4  11
BRANCH   1  21
HETATM   21  O1  UNL     1      24.753  -0.691  53.831  1.00  0.00    -0.348 OA
BRANCH  21  22
HETATM   22  C5  UNL     1      25.528   0.452  53.517  1.00  0.00     0.177 C 
BRANCH  22  23
HETATM   23  C4  UNL     1      26.524   0.117  52.435  1.00  0.00     0.044 C 
BRANCH  23  24
HETATM   24  C3  UNL     1      27.306  -1.059  52.854  1.00  0.00     0.069 C 
BRANCH  24  25
HETATM   25  C2  UNL     1      28.530  -0.901  53.303  1.00  0.00    -0.176 C 
HETATM   26  C1  UNL     1      29.806  -0.944  53.618  1.00  0.00     0.091 C 
ENDBRANCH  24  25
ENDBRANCH  23  24
ENDBRANCH  22  23
ENDBRANCH  21  22
ENDBRANCH   1  21
BRANCH  10  27
HETATM   27  O2  UNL     1      23.149  -1.607  55.972  1.00  0.00    -0.358 OA
HETATM   28  H17 UNL     1      22.429  -1.972  56.615  1.00  0.00     0.217 HD
ENDBRANCH  10  27
TORSDOF 9
ENDMDL
MODEL 3
REMARK VINA RESULT:      -7.8      2.548      4.983
REMARK  9 active torsions:
REMARK  status: ('A' for Active; 'I' for Inactive)
REMARK    1  A    between atoms: C2_2  and  C3_3 
REMARK    2  A    between atoms: C3_3  and  C4_4 
REMARK    3  A    between atoms: C4_4  and  C5_5 
REMARK    4  A    between atoms: C5_5  and  O1_6 
REMARK    5  A    between atoms: O1_6  and  C6_7 
REMARK    6  A    between atoms: C9_10  and  N1_11 
REMARK    7  A    between atoms: N1_11  and  C10_12 
REMARK    8  A    between atoms: C10_12  and  C11_13 
REMARK    9  A    between atoms: C19_25  and  O2_26 
ROOT
HETATM    1  C6  UNL     1      23.560  -0.518  53.696  1.00  0.00     0.102 A 
HETATM    2  C7  UNL     1      24.580   0.072  52.985  1.00  0.00     0.057 A 
HETATM    3  C8  UNL     1      25.881   0.167  53.431  1.00  0.00     0.041 A 
HETATM    4  C9  UNL     1      26.824   0.778  52.638  1.00  0.00     0.137 A 
HETATM    5  N2  UNL     1      28.046   0.802  53.190  1.00  0.00    -0.224 NA
HETATM    6  C16 UNL     1      28.322   0.283  54.393  1.00  0.00     0.235 A 
HETATM    7  N3  UNL     1      27.371  -0.316  55.157  1.00  0.00    -0.241 NA
HETATM    8  C17 UNL     1      26.100  -0.382  54.668  1.00  0.00     0.075 A 
HETATM    9  C18 UNL     1      25.112  -0.982  55.416  1.00  0.00     0.072 A 
HETATM   10  C19 UNL     1      23.824  -1.063  54.948  1.00  0.00     0.101 A 
ENDROOT
BRANCH   4  11
HETATM   11  N1  UNL     1      26.555   1.356  51.362  1.00  0.00    -0.370 N 
HETATM   12  H9  UNL     1      26.223   0.811  50.559  1.00  0.00     0.161 HD
BRANCH  11  13
HETATM   13  C10 UNL     1      26.740   2.763  51.132  1.00  0.00     0.157 C 
BRANCH  13  14
HETATM   14  C11 UNL     1      25.486   3.338  50.549  1.00  0.00    -0.034 A 
HETATM   15  C12 UNL     1      25.609   4.242  49.557  1.00  0.00     0.076 A 
HETATM   16 CL1  UNL     1      27.084   4.872  48.817  1.00  0.00    -0.081 Cl
HETATM   17  C13 UNL     1      24.329   4.731  49.064  1.00  0.00     0.135 A 
HETATM   18  F1  UNL     1      24.027   5.622  48.097  1.00  0.00    -0.205 F 
HETATM   19  C14 UNL     1      23.434   4.091  49.794  1.00  0.00     0.022 A 
HETATM   20  C15 UNL     1      24.045   3.159  50.798  1.00  0.00     0.068 A 
ENDBRANCH  13  14
ENDBRANCH  11  13
ENDBRANCH   4  11
BRANCH   1  21
HETATM   21  O1  UNL     1      22.254  -0.618  53.259  1.00  0.00    -0.348 OA
BRANCH  21  22
HETATM   22  C5  UNL     1      21.348   0.447  53.479  1.00  0.00     0.177 C 
BRANCH  22  23
HETATM   23  C4  UNL     1      21.129   1.210  52.197  1.00  0.00     0.044 C 
BRANCH  23  24
HETATM   24  C3  UNL     1      21.239   0.278  51.062  1.00  0.00     0.069 C 
BRANCH  24  25
HETATM   25  C2  UNL     1      21.271   0.746  49.836  1.00  0.00    -0.176 C 
HETATM   26  C1  UNL     1      21.549   1.205  48.634  1.00  0.00     0.091 C 
ENDBRANCH  24  25
ENDBRANCH  23  24
ENDBRANCH  22  23
ENDBRANCH  21  22
ENDBRANCH   1  21
BRANCH  10  27
HETATM   27  O2  UNL     1      22.918  -1.689  55.790  1.00  0.00    -0.358 OA
HETATM   28  H17 UNL     1      21.967  -1.774  55.399  1.00  0.00     0.217 HD
ENDBRANCH  10  27
TORSDOF 9
ENDMDL
MODEL 4
REMARK VINA RESULT:      -7.8      2.782      5.288
REMARK  9 active torsions:
REMARK  status: ('A' for Active; 'I' for Inactive)
REMARK    1  A    between atoms: C2_2  and  C3_3 
REMARK    2  A    between atoms: C3_3  and  C4_4 
REMARK    3  A    between atoms: C4_4  and  C5_5 
REMARK    4  A    between atoms: C5_5  and  O1_6 
REMARK    5  A    between atoms: O1_6  and  C6_7 
REMARK    6  A    between atoms: C9_10  and  N1_11 
REMARK    7  A    between atoms: N1_11  and  C10_12 
REMARK    8  A    between atoms: C10_12  and  C11_13 
REMARK    9  A    between atoms: C19_25  and  O2_26 
ROOT
HETATM    1  C6  UNL     1      24.418  -0.371  53.716  1.00  0.00     0.102 A 
HETATM    2  C7  UNL     1      24.996   0.513  52.835  1.00  0.00     0.057 A 
HETATM    3  C8  UNL     1      26.227   1.102  53.025  1.00  0.00     0.041 A 
HETATM    4  C9  UNL     1      26.711   1.975  52.077  1.00  0.00     0.137 A 
HETATM    5  N2  UNL     1      27.917   2.475  52.385  1.00  0.00    -0.224 NA
HETATM    6  C16 UNL     1      28.584   2.158  53.502  1.00  0.00     0.235 A 
HETATM    7  N3  UNL     1      28.083   1.293  54.422  1.00  0.00    -0.241 NA
HETATM    8  C17 UNL     1      26.859   0.739  54.185  1.00  0.00     0.075 A 
HETATM    9  C18 UNL     1      26.322  -0.142  55.096  1.00  0.00     0.072 A 
HETATM   10  C19 UNL     1      25.093  -0.715  54.883  1.00  0.00     0.101 A 
ENDROOT
BRANCH   4  11
HETATM   11  N1  UNL     1      26.015   2.345  50.889  1.00  0.00    -0.370 N 
HETATM   12  H9  UNL     1      25.578   1.663  50.260  1.00  0.00     0.161 HD
BRANCH  11  13
HETATM   13  C10 UNL     1      25.890   3.724  50.503  1.00  0.00     0.157 C 
BRANCH  13  14
HETATM   14  C11 UNL     1      24.460   4.017  50.169  1.00  0.00    -0.034 A 
HETATM   15  C12 UNL     1      23.590   4.157  51.189  1.00  0.00     0.076 A 
HETATM   16 CL1  UNL     1      23.899   4.040  52.924  1.00  0.00    -0.081 Cl
HETATM   17  C13 UNL     1      22.232   4.442  50.749  1.00  0.00     0.135 A 
HETATM   18  F1  UNL     1      21.093   4.647  51.445  1.00  0.00    -0.205 F 
HETATM   19  C14 UNL     1      22.314   4.468  49.431  1.00  0.00     0.022 A 
HETATM   20  C15 UNL     1      23.700   4.205  48.920  1.00  0.00     0.068 A 
ENDBRANCH  13  14
ENDBRANCH  11  13
ENDBRANCH   4  11
BRANCH   1  21
HETATM   21  O1  UNL     1      23.186  -0.967  53.536  1.00  0.00    -0.348 OA
BRANCH  21  22
HETATM   22  C5  UNL     1      22.001  -0.252  53.832  1.00  0.00     0.177 C 
BRANCH  22  23
HETATM   23  C4  UNL     1      21.127  -0.172  52.606  1.00  0.00     0.044 C 
BRANCH  23  24
HETATM   24  C3  UNL     1      21.495   1.027  51.835  1.00  0.00     0.069 C 
BRANCH  24  25
HETATM   25  C2  UNL     1      21.598   0.955  50.528  1.00  0.00    -0.176 C 
HETATM   26  C1  UNL     1      21.458   0.843  49.224  1.00  0.00     0.091 C 
ENDBRANCH  24  25
ENDBRANCH  23  24
ENDBRANCH  22  23
ENDBRANCH  21  22
ENDBRANCH   1  21
BRANCH  10  27
HETATM   27  O2  UNL     1      24.657  -1.585  55.871  1.00  0.00    -0.358 OA
HETATM   28  H17 UNL     1      23.642  -1.539  56.055  1.00  0.00     0.217 HD
ENDBRANCH  10  27
TORSDOF 9
ENDMDL
MODEL 5
REMARK VINA RESULT:      -7.6      3.452      6.113
REMARK  9 active torsions:
REMARK  status: ('A' for Active; 'I' for Inactive)
REMARK    1  A    between atoms: C2_2  and  C3_3 
REMARK    2  A    between atoms: C3_3  and  C4_4 
REMARK    3  A    between atoms: C4_4  and  C5_5 
REMARK    4  A    between atoms: C5_5  and  O1_6 
REMARK    5  A    between atoms: O1_6  and  C6_7 
REMARK    6  A    between atoms: C9_10  and  N1_11 
REMARK    7  A    between atoms: N1_11  and  C10_12 
REMARK    8  A    between atoms: C10_12  and  C11_13 
REMARK    9  A    between atoms: C19_25  and  O2_26 
ROOT
HETATM    1  C6  UNL     1      26.833   1.860  52.294  1.00  0.00     0.102 A 
HETATM    2  C7  UNL     1      25.583   1.293  52.377  1.00  0.00     0.057 A 
HETATM    3  C8  UNL     1      25.182   0.444  53.386  1.00  0.00     0.041 A 
HETATM    4  C9  UNL     1      23.904  -0.067  53.371  1.00  0.00     0.137 A 
HETATM    5  N2  UNL     1      23.646  -0.877  54.409  1.00  0.00    -0.224 NA
HETATM    6  C16 UNL     1      24.540  -1.160  55.364  1.00  0.00     0.235 A 
HETATM    7  N3  UNL     1      25.795  -0.641  55.355  1.00  0.00    -0.241 NA
HETATM    8  C17 UNL     1      26.140   0.193  54.333  1.00  0.00     0.075 A 
HETATM    9  C18 UNL     1      27.405   0.737  54.293  1.00  0.00     0.072 A 
HETATM   10  C19 UNL     1      27.778   1.579  53.276  1.00  0.00     0.101 A 
ENDROOT
BRANCH   4  11
HETATM   11  N1  UNL     1      22.938   0.202  52.357  1.00  0.00    -0.370 N 
HETATM   12  H9  UNL     1      22.956  -0.244  51.433  1.00  0.00     0.161 HD
BRANCH  11  13
HETATM   13  C10 UNL     1      21.867   1.134  52.583  1.00  0.00     0.157 C 
BRANCH  13  14
HETATM   14  C11 UNL     1      20.567   0.394  52.622  1.00  0.00    -0.034 A 
HETATM   15  C12 UNL     1      19.795   0.416  51.517  1.00  0.00     0.076 A 
HETATM   16 CL1  UNL     1      20.102   1.220  49.975  1.00  0.00    -0.081 Cl
HETATM   17  C13 UNL     1      18.559  -0.339  51.666  1.00  0.00     0.135 A 
HETATM   18  F1  UNL     1      17.539  -0.559  50.809  1.00  0.00    -0.205 F 
HETATM   19  C14 UNL     1      18.613  -0.814  52.896  1.00  0.00     0.022 A 
HETATM   20  C15 UNL     1      19.858  -0.414  53.631  1.00  0.00     0.068 A 
ENDBRANCH  13  14
ENDBRANCH  11  13
ENDBRANCH   4  11
BRANCH   1  21
HETATM   21  O1  UNL     1      27.245   2.710  51.288  1.00  0.00    -0.348 OA
BRANCH  21  22
HETATM   22  C5  UNL     1      26.294   3.461  50.558  1.00  0.00     0.177 C 
BRANCH  22  23
HETATM   23  C4  UNL     1      26.762   3.644  49.136  1.00  0.00     0.044 C 
BRANCH  23  24
HETATM   24  C3  UNL     1      26.953   5.081  48.878  1.00  0.00     0.069 C 
BRANCH  24  25
HETATM   25  C2  UNL     1      28.106   5.513  48.421  1.00  0.00    -0.176 C 
HETATM   26  C1  UNL     1      29.356   5.757  48.092  1.00  0.00     0.091 C 
ENDBRANCH  24  25
ENDBRANCH  23  24
ENDBRANCH  22  23
ENDBRANCH  21  22
ENDBRANCH   1  21
BRANCH  10  27
HETATM   27  O2  UNL     1      29.076   2.063  53.344  1.00  0.00    -0.358 OA
HETATM   28  H17 UNL     1      29.408   2.245  54.304  1.00  0.00     0.217 HD
ENDBRANCH  10  27
TORSDOF 9
ENDMDL
MODEL 6
REMARK VINA RESULT:      -7.6      2.803      5.132
REMARK  9 active torsions:
REMARK  status: ('A' for Active; 'I' for Inactive)
REMARK    1  A    between atoms: C2_2  and  C3_3 
REMARK    2  A    between atoms: C3_3  and  C4_4 
REMARK    3  A    between atoms: C4_4  and  C5_5 
REMARK    4  A    between atoms: C5_5  and  O1_6 
REMARK    5  A    between atoms: O1_6  and  C6_7 
REMARK    6  A    between atoms: C9_10  and  N1_11 
REMARK    7  A    between atoms: N1_11  and  C10_12 
REMARK    8  A    between atoms: C10_12  and  C11_13 
REMARK    9  A    between atoms: C19_25  and  O2_26 
ROOT
HETATM    1  C6  UNL     1      26.918   1.888  52.301  1.00  0.00     0.102 A 
HETATM    2  C7  UNL     1      25.695   1.273  52.432  1.00  0.00     0.057 A 
HETATM    3  C8  UNL     1      25.352   0.444  53.478  1.00  0.00     0.041 A 
HETATM    4  C9  UNL     1      24.097  -0.119  53.511  1.00  0.00     0.137 A 
HETATM    5  N2  UNL     1      23.896  -0.902  54.581  1.00  0.00    -0.224 NA
HETATM    6  C16 UNL     1      24.822  -1.116  55.524  1.00  0.00     0.235 A 
HETATM    7  N3  UNL     1      26.055  -0.546  55.468  1.00  0.00    -0.241 NA
HETATM    8  C17 UNL     1      26.341   0.265  54.410  1.00  0.00     0.075 A 
HETATM    9  C18 UNL     1      27.581   0.859  54.322  1.00  0.00     0.072 A 
HETATM   10  C19 UNL     1      27.896   1.681  53.269  1.00  0.00     0.101 A 
ENDROOT
BRANCH   4  11
HETATM   11  N1  UNL     1      23.099   0.075  52.511  1.00  0.00    -0.370 N 
HETATM   12  H9  UNL     1      22.955  -0.573  51.729  1.00  0.00     0.161 HD
BRANCH  11  13
HETATM   13  C10 UNL     1      22.223   1.214  52.551  1.00  0.00     0.157 C 
BRANCH  13  14
HETATM   14  C11 UNL     1      22.272   1.922  51.232  1.00  0.00    -0.034 A 
HETATM   15  C12 UNL     1      22.747   3.184  51.211  1.00  0.00     0.076 A 
HETATM   16 CL1  UNL     1      23.338   4.160  52.559  1.00  0.00    -0.081 Cl
HETATM   17  C13 UNL     1      22.754   3.772  49.880  1.00  0.00     0.135 A 
HETATM   18  F1  UNL     1      23.145   4.988  49.443  1.00  0.00    -0.205 F 
HETATM   19  C14 UNL     1      22.267   2.822  49.102  1.00  0.00     0.022 A 
HETATM   20  C15 UNL     1      21.910   1.571  49.847  1.00  0.00     0.068 A 
ENDBRANCH  13  14
ENDBRANCH  11  13
ENDBRANCH   4  11
BRANCH   1  21
HETATM   21  O1  UNL     1      27.272   2.719  51.257  1.00  0.00    -0.348 OA
BRANCH  21  22
HETATM   22  C5  UNL     1      26.272   3.316  50.454  1.00  0.00     0.177 C 
BRANCH  22  23
HETATM   23  C4  UNL     1      26.890   3.893  49.205  1.00  0.00     0.044 C 
BRANCH  23  24
HETATM   24  C3  UNL     1      26.480   5.302  49.076  1.00  0.00     0.069 C 
BRANCH  24  25
HETATM   25  C2  UNL     1      27.256   6.150  48.442  1.00  0.00    -0.176 C 
HETATM   26  C1  UNL     1      28.216   6.851  47.878  1.00  0.00     0.091 C 
ENDBRANCH  24  25
ENDBRANCH  23  24
ENDBRANCH  22  23
ENDBRANCH  21  22
ENDBRANCH   1  21
BRANCH  10  27
HETATM   27  O2  UNL     1      29.173   2.219  53.290  1.00  0.00    -0.358 OA
HETATM   28  H17 UNL     1      29.519   2.448  54.235  1.00  0.00     0.217 HD
ENDBRANCH  10  27
TORSDOF 9
ENDMDL
MODEL 7
REMARK VINA RESULT:      -7.5      2.056      3.435
REMARK  9 active torsions:
REMARK  status: ('A' for Active; 'I' for Inactive)
REMARK    1  A    between atoms: C2_2  and  C3_3 
REMARK    2  A    between atoms: C3_3  and  C4_4 
REMARK    3  A    between atoms: C4_4  and  C5_5 
REMARK    4  A    between atoms: C5_5  and  O1_6 
REMARK    5  A    between atoms: O1_6  and  C6_7 
REMARK    6  A    between atoms: C9_10  and  N1_11 
REMARK    7  A    between atoms: N1_11  and  C10_12 
REMARK    8  A    between atoms: C10_12  and  C11_13 
REMARK    9  A    between atoms: C19_25  and  O2_26 
ROOT
HETATM    1  C6  UNL     1      25.608   0.453  53.371  1.00  0.00     0.102 A 
HETATM    2  C7  UNL     1      24.332   0.431  52.858  1.00  0.00     0.057 A 
HETATM    3  C8  UNL     1      23.275  -0.238  53.438  1.00  0.00     0.041 A 
HETATM    4  C9  UNL     1      22.037  -0.194  52.839  1.00  0.00     0.137 A 
HETATM    5  N2  UNL     1      21.101  -0.885  53.506  1.00  0.00    -0.224 NA
HETATM    6  C16 UNL     1      21.345  -1.552  54.641  1.00  0.00     0.235 A 
HETATM    7  N3  UNL     1      22.578  -1.579  55.212  1.00  0.00    -0.241 NA
HETATM    8  C17 UNL     1      23.588  -0.901  54.596  1.00  0.00     0.075 A 
HETATM    9  C18 UNL     1      24.849  -0.907  55.148  1.00  0.00     0.072 A 
HETATM   10  C19 UNL     1      25.884  -0.232  54.549  1.00  0.00     0.101 A 
ENDROOT
BRANCH   4  11
HETATM   11  N1  UNL     1      21.753   0.491  51.620  1.00  0.00    -0.370 N 
HETATM   12  H9  UNL     1      21.843   0.054  50.697  1.00  0.00     0.161 HD
BRANCH  11  13
HETATM   13  C10 UNL     1      21.317   1.861  51.626  1.00  0.00     0.157 C 
BRANCH  13  14
HETATM   14  C11 UNL     1      22.043   2.615  50.555  1.00  0.00    -0.034 A 
HETATM   15  C12 UNL     1      22.574   3.812  50.876  1.00  0.00     0.076 A 
HETATM   16 CL1  UNL     1      22.537   4.652  52.429  1.00  0.00    -0.081 Cl
HETATM   17  C13 UNL     1      23.258   4.453  49.761  1.00  0.00     0.135 A 
HETATM   18  F1  UNL     1      23.909   5.632  49.673  1.00  0.00    -0.205 F 
HETATM   19  C14 UNL     1      23.119   3.602  48.761  1.00  0.00     0.022 A 
HETATM   20  C15 UNL     1      22.350   2.370  49.134  1.00  0.00     0.068 A 
ENDBRANCH  13  14
ENDBRANCH  11  13
ENDBRANCH   4  11
BRANCH   1  21
HETATM   21  O1  UNL     1      26.673   1.119  52.798  1.00  0.00    -0.348 OA
BRANCH  21  22
HETATM   22  C5  UNL     1      26.697   1.354  51.402  1.00  0.00     0.177 C 
BRANCH  22  23
HETATM   23  C4  UNL     1      26.451   2.814  51.121  1.00  0.00     0.044 C 
BRANCH  23  24
HETATM   24  C3  UNL     1      26.566   3.048  49.672  1.00  0.00     0.069 C 
BRANCH  24  25
HETATM   25  C2  UNL     1      26.958   4.221  49.230  1.00  0.00    -0.176 C 
HETATM   26  C1  UNL     1      27.155   5.379  48.638  1.00  0.00     0.091 C 
ENDBRANCH  24  25
ENDBRANCH  23  24
ENDBRANCH  22  23
ENDBRANCH  21  22
ENDBRANCH   1  21
BRANCH  10  27
HETATM   27  O2  UNL     1      27.107  -0.312  55.198  1.00  0.00    -0.358 OA
HETATM   28  H17 UNL     1      27.900   0.057  54.650  1.00  0.00     0.217 HD
ENDBRANCH  10  27
TORSDOF 9
ENDMDL
MODEL 8
REMARK VINA RESULT:      -7.4      3.493      6.035
REMARK  9 active torsions:
REMARK  status: ('A' for Active; 'I' for Inactive)
REMARK    1  A    between atoms: C2_2  and  C3_3 
REMARK    2  A    between atoms: C3_3  and  C4_4 
REMARK    3  A    between atoms: C4_4  and  C5_5 
REMARK    4  A    between atoms: C5_5  and  O1_6 
REMARK    5  A    between atoms: O1_6  and  C6_7 
REMARK    6  A    between atoms: C9_10  and  N1_11 
REMARK    7  A    between atoms: N1_11  and  C10_12 
REMARK    8  A    between atoms: C10_12  and  C11_13 
REMARK    9  A    between atoms: C19_25  and  O2_26 
ROOT
HETATM    1  C6  UNL     1      21.971   0.976  51.150  1.00  0.00     0.102 A 
HETATM    2  C7  UNL     1      23.156   1.498  51.615  1.00  0.00     0.057 A 
HETATM    3  C8  UNL     1      23.909   2.432  50.937  1.00  0.00     0.041 A 
HETATM    4  C9  UNL     1      25.081   2.888  51.494  1.00  0.00     0.137 A 
HETATM    5  N2  UNL     1      25.714   3.792  50.732  1.00  0.00    -0.224 NA
HETATM    6  C16 UNL     1      25.252   4.210  49.546  1.00  0.00     0.235 A 
HETATM    7  N3  UNL     1      24.091   3.743  49.018  1.00  0.00    -0.241 NA
HETATM    8  C17 UNL     1      23.385   2.819  49.731  1.00  0.00     0.075 A 
HETATM    9  C18 UNL     1      22.204   2.325  49.225  1.00  0.00     0.072 A 
HETATM   10  C19 UNL     1      21.473   1.395  49.921  1.00  0.00     0.101 A 
ENDROOT
BRANCH   4  11
HETATM   11  N1  UNL     1      25.606   2.448  52.745  1.00  0.00    -0.370 N 
HETATM   12  H9  UNL     1      25.052   2.421  53.608  1.00  0.00     0.161 HD
BRANCH  11  13
HETATM   13  C10 UNL     1      26.971   2.010  52.863  1.00  0.00     0.157 C 
BRANCH  13  14
HETATM   14  C11 UNL     1      27.019   0.515  52.789  1.00  0.00    -0.034 A 
HETATM   15  C12 UNL     1      28.163  -0.097  53.151  1.00  0.00     0.076 A 
HETATM   16 CL1  UNL     1      29.670   0.629  53.719  1.00  0.00    -0.081 Cl
HETATM   17  C13 UNL     1      28.096  -1.548  53.043  1.00  0.00     0.135 A 
HETATM   18  F1  UNL     1      29.010  -2.505  53.307  1.00  0.00    -0.205 F 
HETATM   19  C14 UNL     1      26.874  -1.786  52.604  1.00  0.00     0.022 A 
HETATM   20  C15 UNL     1      26.068  -0.539  52.393  1.00  0.00     0.068 A 
ENDBRANCH  13  14
ENDBRANCH  11  13
ENDBRANCH   4  11
BRANCH   1  21
HETATM   21  O1  UNL     1      21.209   0.040  51.821  1.00  0.00    -0.348 OA
BRANCH  21  22
HETATM   22  C5  UNL     1      20.190   0.458  52.711  1.00  0.00     0.177 C 
BRANCH  22  23
HETATM   23  C4  UNL     1      20.681   0.369  54.134  1.00  0.00     0.044 C 
BRANCH  23  24
HETATM   24  C3  UNL     1      21.272  -0.962  54.353  1.00  0.00     0.069 C 
BRANCH  24  25
HETATM   25  C2  UNL     1      22.424  -1.069  54.974  1.00  0.00    -0.176 C 
HETATM   26  C1  UNL     1      23.557  -1.417  55.546  1.00  0.00     0.091 C 
ENDBRANCH  24  25
ENDBRANCH  23  24
ENDBRANCH  22  23
ENDBRANCH  21  22
ENDBRANCH   1  21
BRANCH  10  27
HETATM   27  O2  UNL     1      20.302   0.972  49.310  1.00  0.00    -0.358 OA
HETATM   28  H17 UNL     1      20.442   0.261  48.576  1.00  0.00     0.217 HD
ENDBRANCH  10  27
TORSDOF 9
ENDMDL
MODEL 9
REMARK VINA RESULT:      -7.4      3.466      5.924
REMARK  9 active torsions:
REMARK  status: ('A' for Active; 'I' for Inactive)
REMARK    1  A    between atoms: C2_2  and  C3_3 
REMARK    2  A    between atoms: C3_3  and  C4_4 
REMARK    3  A    between atoms: C4_4  and  C5_5 
REMARK    4  A    between atoms: C5_5  and  O1_6 
REMARK    5  A    between atoms: O1_6  and  C6_7 
REMARK    6  A    between atoms: C9_10  and  N1_11 
REMARK    7  A    between atoms: N1_11  and  C10_12 
REMARK    8  A    between atoms: C10_12  and  C11_13 
REMARK    9  A    between atoms: C19_25  and  O2_26 
ROOT
HETATM    1  C6  UNL     1      26.850   2.095  52.154  1.00  0.00     0.102 A 
HETATM    2  C7  UNL     1      25.631   1.470  52.275  1.00  0.00     0.057 A 
HETATM    3  C8  UNL     1      25.306   0.594  53.288  1.00  0.00     0.041 A 
HETATM    4  C9  UNL     1      24.054   0.024  53.313  1.00  0.00     0.137 A 
HETATM    5  N2  UNL     1      23.871  -0.807  54.350  1.00  0.00    -0.224 NA
HETATM    6  C16 UNL     1      24.811  -1.058  55.269  1.00  0.00     0.235 A 
HETATM    7  N3  UNL     1      26.040  -0.482  55.221  1.00  0.00    -0.241 NA
HETATM    8  C17 UNL     1      26.309   0.377  54.197  1.00  0.00     0.075 A 
HETATM    9  C18 UNL     1      27.545   0.980  54.118  1.00  0.00     0.072 A 
HETATM   10  C19 UNL     1      27.842   1.849  53.098  1.00  0.00     0.101 A 
ENDROOT
BRANCH   4  11
HETATM   11  N1  UNL     1      23.040   0.258  52.337  1.00  0.00    -0.370 N 
HETATM   12  H9  UNL     1      23.245   0.468  51.355  1.00  0.00     0.161 HD
BRANCH  11  13
HETATM   13  C10 UNL     1      21.647   0.211  52.690  1.00  0.00     0.157 C 
BRANCH  13  14
HETATM   14  C11 UNL     1      21.007   1.522  52.353  1.00  0.00    -0.034 A 
HETATM   15  C12 UNL     1      19.702   1.517  52.013  1.00  0.00     0.076 A 
HETATM   16 CL1  UNL     1      18.598   0.143  51.902  1.00  0.00    -0.081 Cl
HETATM   17  C13 UNL     1      19.184   2.843  51.710  1.00  0.00     0.135 A 
HETATM   18  F1  UNL     1      17.955   3.257  51.338  1.00  0.00    -0.205 F 
HETATM   19  C14 UNL     1      20.220   3.644  51.878  1.00  0.00     0.022 A 
HETATM   20  C15 UNL     1      21.467   2.920  52.292  1.00  0.00     0.068 A 
ENDBRANCH  13  14
ENDBRANCH  11  13
ENDBRANCH   4  11
BRANCH   1  21
HETATM   21  O1  UNL     1      27.186   2.973  51.144  1.00  0.00    -0.348 OA
BRANCH  21  22
HETATM   22  C5  UNL     1      26.477   2.952  49.919  1.00  0.00     0.177 C 
BRANCH  22  23
HETATM   23  C4  UNL     1      25.769   4.267  49.710  1.00  0.00     0.044 C 
BRANCH  23  24
HETATM   24  C3  UNL     1      24.336   4.089  49.999  1.00  0.00     0.069 C 
BRANCH  24  25
HETATM   25  C2  UNL     1      23.623   3.260  49.272  1.00  0.00    -0.176 C 
HETATM   26  C1  UNL     1      22.729   2.478  48.706  1.00  0.00     0.091 C 
ENDBRANCH  24  25
ENDBRANCH  23  24
ENDBRANCH  22  23
ENDBRANCH  21  22
ENDBRANCH   1  21
BRANCH  10  27
HETATM   27  O2  UNL     1      29.118   2.391  53.125  1.00  0.00    -0.358 OA
HETATM   28  H17 UNL     1      29.587   2.411  52.206  1.00  0.00     0.217 HD
ENDBRANCH  10  27
TORSDOF 9
ENDMDL
