MODEL 1
REMARK VINA RESULT:      -8.4      0.000      0.000
REMARK  4 active torsions:
REMARK  status: ('A' for Active; 'I' for Inactive)
REMARK    1  A    between atoms: C2_2  and  S1_3 
REMARK    2  A    between atoms: S1_3  and  C3_5 
REMARK    3  A    between atoms: C6_8  and  C7_9 
REMARK    4  A    between atoms: C12_15  and  C13_16 
ROOT
HETATM    1  C7  UNL     1      22.689   0.439  53.024  1.00  0.00     0.009 A 
HETATM    2  C8  UNL     1      21.742  -0.037  53.928  1.00  0.00     0.155 A 
HETATM    3  O2  UNL     1      20.611  -0.043  53.278  1.00  0.00    -0.321 OA
HETATM    4  C9  UNL     1      20.753   0.377  52.062  1.00  0.00     0.086 A 
HETATM    5  C10 UNL     1      19.855   0.547  51.004  1.00  0.00     0.039 A 
HETATM    6  C11 UNL     1      20.293   1.026  49.789  1.00  0.00     0.011 A 
HETATM    7  C12 UNL     1      21.622   1.339  49.612  1.00  0.00    -0.049 A 
HETATM    8  C17 UNL     1      22.553   1.195  50.610  1.00  0.00     0.023 A 
HETATM    9  C18 UNL     1      22.077   0.715  51.810  1.00  0.00     0.011 A 
ENDROOT
BRANCH   1  10
HETATM   10  C6  UNL     1      24.097   0.596  53.374  1.00  0.00    -0.023 A 
HETATM   11  C5  UNL     1      24.809  -0.537  53.719  1.00  0.00     0.014 A 
HETATM   12  C4  UNL     1      26.140  -0.456  54.059  1.00  0.00     0.022 A 
HETATM   13  C3  UNL     1      26.726   0.791  54.042  1.00  0.00     0.031 A 
HETATM   14  C20 UNL     1      26.034   1.911  53.705  1.00  0.00     0.022 A 
HETATM   15  C19 UNL     1      24.700   1.852  53.361  1.00  0.00     0.014 A 
BRANCH  13  16
HETATM   16  S1  UNL     1      28.433   0.929  54.475  1.00  0.00     0.049 S 
HETATM   17  O1  UNL     1      28.852   2.389  54.551  1.00  0.00    -0.253 OA
BRANCH  16  18
HETATM   18  C2  UNL     1      29.487   0.153  53.243  1.00  0.00     0.109 C 
HETATM   19  C1  UNL     1      29.632  -1.329  53.489  1.00  0.00     0.019 C 
ENDBRANCH  16  18
ENDBRANCH  13  16
ENDBRANCH   1  10
BRANCH   7  20
HETATM   20  C13 UNL     1      22.061   1.854  48.285  1.00  0.00     0.044 A 
HETATM   21  C14 UNL     1      23.075   2.881  48.293  1.00  0.00    -0.021 A 
HETATM   22  C15 UNL     1      22.286   3.791  47.812  1.00  0.00    -0.029 A 
HETATM   23  C16 UNL     1      21.149   2.900  47.730  1.00  0.00     0.040 A 
ENDBRANCH   7  20
TORSDOF 4
ENDMDL
MODEL 2
REMARK VINA RESULT:      -8.3      3.800      6.919
REMARK  4 active torsions:
REMARK  status: ('A' for Active; 'I' for Inactive)
REMARK    1  A    between atoms: C2_2  and  S1_3 
REMARK    2  A    between atoms: S1_3  and  C3_5 
REMARK    3  A    between atoms: C6_8  and  C7_9 
REMARK    4  A    between atoms: C12_15  and  C13_16 
ROOT
HETATM    1  C7  UNL     1      24.677   2.182  51.278  1.00  0.00     0.009 A 
HETATM    2  C8  UNL     1      23.354   1.794  51.073  1.00  0.00     0.155 A 
HETATM    3  O2  UNL     1      23.152   0.800  51.893  1.00  0.00    -0.321 OA
HETATM    4  C9  UNL     1      24.208   0.527  52.589  1.00  0.00     0.086 A 
HETATM    5  C10 UNL     1      24.478  -0.428  53.573  1.00  0.00     0.039 A 
HETATM    6  C11 UNL     1      25.723  -0.494  54.158  1.00  0.00     0.011 A 
HETATM    7  C12 UNL     1      26.710   0.386  53.774  1.00  0.00    -0.049 A 
HETATM    8  C17 UNL     1      26.510   1.346  52.814  1.00  0.00     0.023 A 
HETATM    9  C18 UNL     1      25.253   1.379  52.252  1.00  0.00     0.011 A 
ENDROOT
BRANCH   1  10
HETATM   10  C6  UNL     1      25.295   3.279  50.540  1.00  0.00    -0.023 A 
HETATM   11  C5  UNL     1      24.689   4.520  50.596  1.00  0.00     0.014 A 
HETATM   12  C4  UNL     1      25.222   5.596  49.923  1.00  0.00     0.022 A 
HETATM   13  C3  UNL     1      26.374   5.383  49.197  1.00  0.00     0.031 A 
HETATM   14  C20 UNL     1      26.977   4.167  49.135  1.00  0.00     0.022 A 
HETATM   15  C19 UNL     1      26.460   3.076  49.802  1.00  0.00     0.014 A 
BRANCH  13  16
HETATM   16  S1  UNL     1      27.083   6.743  48.320  1.00  0.00     0.049 S 
HETATM   17  O1  UNL     1      28.588   6.794  48.533  1.00  0.00    -0.253 OA
BRANCH  16  18
HETATM   18  C2  UNL     1      26.424   8.312  48.900  1.00  0.00     0.109 C 
HETATM   19  C1  UNL     1      27.243   8.873  50.037  1.00  0.00     0.019 C 
ENDBRANCH  16  18
ENDBRANCH  13  16
ENDBRANCH   1  10
BRANCH   7  20
HETATM   20  C13 UNL     1      28.045   0.287  54.428  1.00  0.00     0.044 A 
HETATM   21  C14 UNL     1      29.068   1.184  53.947  1.00  0.00    -0.021 A 
HETATM   22  C15 UNL     1      29.804   0.232  53.464  1.00  0.00    -0.029 A 
HETATM   23  C16 UNL     1      28.891  -0.813  53.873  1.00  0.00     0.040 A 
ENDBRANCH   7  20
TORSDOF 4
ENDMDL
MODEL 3
REMARK VINA RESULT:      -8.0      4.907      7.252
REMARK  4 active torsions:
REMARK  status: ('A' for Active; 'I' for Inactive)
REMARK    1  A    between atoms: C2_2  and  S1_3 
REMARK    2  A    between atoms: S1_3  and  C3_5 
REMARK    3  A    between atoms: C6_8  and  C7_9 
REMARK    4  A    between atoms: C12_15  and  C13_16 
ROOT
HETATM    1  C7  UNL     1      25.113   3.824  50.153  1.00  0.00     0.009 A 
HETATM    2  C8  UNL     1      23.735   3.959  49.990  1.00  0.00     0.155 A 
HETATM    3  O2  UNL     1      23.207   2.975  50.664  1.00  0.00    -0.321 OA
HETATM    4  C9  UNL     1      24.109   2.241  51.232  1.00  0.00     0.086 A 
HETATM    5  C10 UNL     1      24.038   1.103  52.040  1.00  0.00     0.039 A 
HETATM    6  C11 UNL     1      25.188   0.514  52.517  1.00  0.00     0.011 A 
HETATM    7  C12 UNL     1      26.417   1.047  52.197  1.00  0.00    -0.049 A 
HETATM    8  C17 UNL     1      26.555   2.162  51.409  1.00  0.00     0.023 A 
HETATM    9  C18 UNL     1      25.382   2.722  50.952  1.00  0.00     0.011 A 
ENDROOT
BRANCH   1  10
HETATM   10  C6  UNL     1      26.068   4.744  49.545  1.00  0.00    -0.023 A 
HETATM   11  C5  UNL     1      25.763   6.093  49.552  1.00  0.00     0.014 A 
HETATM   12  C4  UNL     1      26.622   7.013  48.994  1.00  0.00     0.022 A 
HETATM   13  C3  UNL     1      27.786   6.535  48.433  1.00  0.00     0.031 A 
HETATM   14  C20 UNL     1      28.094   5.212  48.419  1.00  0.00     0.022 A 
HETATM   15  C19 UNL     1      27.248   4.274  48.973  1.00  0.00     0.014 A 
BRANCH  13  16
HETATM   16  S1  UNL     1      28.909   7.691  47.707  1.00  0.00     0.049 S 
HETATM   17  O1  UNL     1      30.066   6.966  47.038  1.00  0.00    -0.253 OA
BRANCH  16  18
HETATM   18  C2  UNL     1      29.625   8.777  48.947  1.00  0.00     0.109 C 
HETATM   19  C1  UNL     1      31.059   8.412  49.245  1.00  0.00     0.019 C 
ENDBRANCH  16  18
ENDBRANCH  13  16
ENDBRANCH   1  10
BRANCH   7  20
HETATM   20  C13 UNL     1      27.640   0.385  52.729  1.00  0.00     0.044 A 
HETATM   21  C14 UNL     1      27.512  -0.284  54.002  1.00  0.00    -0.021 A 
HETATM   22  C15 UNL     1      28.310   0.534  54.615  1.00  0.00    -0.029 A 
HETATM   23  C16 UNL     1      28.560   1.329  53.432  1.00  0.00     0.040 A 
ENDBRANCH   7  20
TORSDOF 4
ENDMDL
MODEL 4
REMARK VINA RESULT:      -7.8      3.218      5.519
REMARK  4 active torsions:
REMARK  status: ('A' for Active; 'I' for Inactive)
REMARK    1  A    between atoms: C2_2  and  S1_3 
REMARK    2  A    between atoms: S1_3  and  C3_5 
REMARK    3  A    between atoms: C6_8  and  C7_9 
REMARK    4  A    between atoms: C12_15  and  C13_16 
ROOT
HETATM    1  C7  UNL     1      25.103   0.757  53.098  1.00  0.00     0.009 A 
HETATM    2  C8  UNL     1      26.149   0.037  53.672  1.00  0.00     0.155 A 
HETATM    3  O2  UNL     1      25.583  -0.823  54.473  1.00  0.00    -0.321 OA
HETATM    4  C9  UNL     1      24.293  -0.717  54.458  1.00  0.00     0.086 A 
HETATM    5  C10 UNL     1      23.276  -1.401  55.129  1.00  0.00     0.039 A 
HETATM    6  C11 UNL     1      21.956  -1.069  54.917  1.00  0.00     0.011 A 
HETATM    7  C12 UNL     1      21.633  -0.058  54.040  1.00  0.00    -0.049 A 
HETATM    8  C17 UNL     1      22.585   0.651  53.350  1.00  0.00     0.023 A 
HETATM    9  C18 UNL     1      23.892   0.290  53.589  1.00  0.00     0.011 A 
ENDROOT
BRANCH   1  10
HETATM   10  C6  UNL     1      25.326   1.828  52.133  1.00  0.00    -0.023 A 
HETATM   11  C5  UNL     1      26.413   1.720  51.285  1.00  0.00     0.014 A 
HETATM   12  C4  UNL     1      26.678   2.697  50.352  1.00  0.00     0.022 A 
HETATM   13  C3  UNL     1      25.822   3.775  50.301  1.00  0.00     0.031 A 
HETATM   14  C20 UNL     1      24.752   3.891  51.129  1.00  0.00     0.022 A 
HETATM   15  C19 UNL     1      24.468   2.924  52.071  1.00  0.00     0.014 A 
BRANCH  13  16
HETATM   16  S1  UNL     1      26.137   5.046  49.114  1.00  0.00     0.049 S 
HETATM   17  O1  UNL     1      27.601   5.048  48.704  1.00  0.00    -0.253 OA
BRANCH  16  18
HETATM   18  C2  UNL     1      25.786   6.675  49.789  1.00  0.00     0.109 C 
HETATM   19  C1  UNL     1      25.412   7.657  48.707  1.00  0.00     0.019 C 
ENDBRANCH  16  18
ENDBRANCH  13  16
ENDBRANCH   1  10
BRANCH   7  20
HETATM   20  C13 UNL     1      20.196   0.275  53.834  1.00  0.00     0.044 A 
HETATM   21  C14 UNL     1      19.355  -0.780  53.321  1.00  0.00    -0.021 A 
HETATM   22  C15 UNL     1      19.127  -0.175  52.197  1.00  0.00    -0.029 A 
HETATM   23  C16 UNL     1      19.935   0.975  52.541  1.00  0.00     0.040 A 
ENDBRANCH   7  20
TORSDOF 4
ENDMDL
MODEL 5
REMARK VINA RESULT:      -7.8      3.272      6.531
REMARK  4 active torsions:
REMARK  status: ('A' for Active; 'I' for Inactive)
REMARK    1  A    between atoms: C2_2  and  S1_3 
REMARK    2  A    between atoms: S1_3  and  C3_5 
REMARK    3  A    between atoms: C6_8  and  C7_9 
REMARK    4  A    between atoms: C12_15  and  C13_16 
ROOT
HETATM    1  C7  UNL     1      24.073   0.047  53.336  1.00  0.00     0.009 A 
HETATM    2  C8  UNL     1      24.910  -0.589  54.251  1.00  0.00     0.155 A 
HETATM    3  O2  UNL     1      26.107  -0.133  54.004  1.00  0.00    -0.321 OA
HETATM    4  C9  UNL     1      26.105   0.722  53.033  1.00  0.00     0.086 A 
HETATM    5  C10 UNL     1      27.117   1.465  52.419  1.00  0.00     0.039 A 
HETATM    6  C11 UNL     1      26.821   2.320  51.379  1.00  0.00     0.011 A 
HETATM    7  C12 UNL     1      25.522   2.445  50.940  1.00  0.00    -0.049 A 
HETATM    8  C17 UNL     1      24.483   1.744  51.501  1.00  0.00     0.023 A 
HETATM    9  C18 UNL     1      24.819   0.900  52.536  1.00  0.00     0.011 A 
ENDROOT
BRANCH   1  10
HETATM   10  C6  UNL     1      22.635  -0.198  53.288  1.00  0.00    -0.023 A 
HETATM   11  C5  UNL     1      22.095  -1.069  54.215  1.00  0.00     0.014 A 
HETATM   12  C4  UNL     1      20.746  -1.343  54.223  1.00  0.00     0.022 A 
HETATM   13  C3  UNL     1      19.966  -0.718  53.274  1.00  0.00     0.031 A 
HETATM   14  C20 UNL     1      20.487   0.138  52.357  1.00  0.00     0.022 A 
HETATM   15  C19 UNL     1      21.836   0.427  52.333  1.00  0.00     0.014 A 
BRANCH  13  16
HETATM   16  S1  UNL     1      18.230  -1.050  53.256  1.00  0.00     0.049 S 
HETATM   17  O1  UNL     1      17.963  -2.524  53.515  1.00  0.00    -0.253 OA
BRANCH  16  18
HETATM   18  C2  UNL     1      17.505  -0.666  51.657  1.00  0.00     0.109 C 
HETATM   19  C1  UNL     1      16.842   0.690  51.659  1.00  0.00     0.019 C 
ENDBRANCH  16  18
ENDBRANCH  13  16
ENDBRANCH   1  10
BRANCH   7  20
HETATM   20  C13 UNL     1      25.238   3.378  49.815  1.00  0.00     0.044 A 
HETATM   21  C14 UNL     1      26.318   4.242  49.403  1.00  0.00    -0.021 A 
HETATM   22  C15 UNL     1      25.714   5.327  49.779  1.00  0.00    -0.029 A 
HETATM   23  C16 UNL     1      24.539   4.625  50.249  1.00  0.00     0.040 A 
ENDBRANCH   7  20
TORSDOF 4
ENDMDL
MODEL 6
REMARK VINA RESULT:      -7.7      3.706      5.113
REMARK  4 active torsions:
REMARK  status: ('A' for Active; 'I' for Inactive)
REMARK    1  A    between atoms: C2_2  and  S1_3 
REMARK    2  A    between atoms: S1_3  and  C3_5 
REMARK    3  A    between atoms: C6_8  and  C7_9 
REMARK    4  A    between atoms: C12_15  and  C13_16 
ROOT
HETATM    1  C7  UNL     1      24.331   3.585  50.384  1.00  0.00     0.009 A 
HETATM    2  C8  UNL     1      23.017   3.260  50.052  1.00  0.00     0.155 A 
HETATM    3  O2  UNL     1      22.657   4.136  49.155  1.00  0.00    -0.321 OA
HETATM    4  C9  UNL     1      23.608   4.973  48.891  1.00  0.00     0.086 A 
HETATM    5  C10 UNL     1      23.700   6.063  48.021  1.00  0.00     0.039 A 
HETATM    6  C11 UNL     1      24.864   6.796  47.943  1.00  0.00     0.011 A 
HETATM    7  C12 UNL     1      25.945   6.455  48.725  1.00  0.00    -0.049 A 
HETATM    8  C17 UNL     1      25.918   5.396  49.599  1.00  0.00     0.023 A 
HETATM    9  C18 UNL     1      24.737   4.689  49.648  1.00  0.00     0.011 A 
ENDROOT
BRANCH   1  10
HETATM   10  C6  UNL     1      25.100   2.832  51.369  1.00  0.00    -0.023 A 
HETATM   11  C5  UNL     1      26.240   2.178  50.938  1.00  0.00     0.014 A 
HETATM   12  C4  UNL     1      27.009   1.450  51.816  1.00  0.00     0.022 A 
HETATM   13  C3  UNL     1      26.598   1.401  53.131  1.00  0.00     0.031 A 
HETATM   14  C20 UNL     1      25.479   2.038  53.564  1.00  0.00     0.022 A 
HETATM   15  C19 UNL     1      24.694   2.773  52.700  1.00  0.00     0.014 A 
BRANCH  13  16
HETATM   16  S1  UNL     1      27.564   0.473  54.283  1.00  0.00     0.049 S 
HETATM   17  O1  UNL     1      28.620   1.355  54.931  1.00  0.00    -0.253 OA
BRANCH  16  18
HETATM   18  C2  UNL     1      28.439  -0.872  53.473  1.00  0.00     0.109 C 
HETATM   19  C1  UNL     1      29.935  -0.695  53.561  1.00  0.00     0.019 C 
ENDBRANCH  16  18
ENDBRANCH  13  16
ENDBRANCH   1  10
BRANCH   7  20
HETATM   20  C13 UNL     1      27.187   7.268  48.615  1.00  0.00     0.044 A 
HETATM   21  C14 UNL     1      27.398   7.962  47.368  1.00  0.00    -0.021 A 
HETATM   22  C15 UNL     1      28.441   7.261  47.049  1.00  0.00    -0.029 A 
HETATM   23  C16 UNL     1      28.389   6.458  48.251  1.00  0.00     0.040 A 
ENDBRANCH   7  20
TORSDOF 4
ENDMDL
MODEL 7
REMARK VINA RESULT:      -7.7      2.656      3.803
REMARK  4 active torsions:
REMARK  status: ('A' for Active; 'I' for Inactive)
REMARK    1  A    between atoms: C2_2  and  S1_3 
REMARK    2  A    between atoms: S1_3  and  C3_5 
REMARK    3  A    between atoms: C6_8  and  C7_9 
REMARK    4  A    between atoms: C12_15  and  C13_16 
ROOT
HETATM    1  C7  UNL     1      23.321   2.679  52.327  1.00  0.00     0.009 A 
HETATM    2  C8  UNL     1      23.524   4.046  52.505  1.00  0.00     0.155 A 
HETATM    3  O2  UNL     1      22.355   4.598  52.328  1.00  0.00    -0.321 OA
HETATM    4  C9  UNL     1      21.444   3.720  52.060  1.00  0.00     0.086 A 
HETATM    5  C10 UNL     1      20.074   3.821  51.798  1.00  0.00     0.039 A 
HETATM    6  C11 UNL     1      19.330   2.691  51.536  1.00  0.00     0.011 A 
HETATM    7  C12 UNL     1      19.936   1.454  51.531  1.00  0.00    -0.049 A 
HETATM    8  C17 UNL     1      21.275   1.288  51.780  1.00  0.00     0.023 A 
HETATM    9  C18 UNL     1      21.985   2.440  52.037  1.00  0.00     0.011 A 
ENDROOT
BRANCH   1  10
HETATM   10  C6  UNL     1      24.401   1.705  52.442  1.00  0.00    -0.023 A 
HETATM   11  C5  UNL     1      25.550   1.921  51.705  1.00  0.00     0.014 A 
HETATM   12  C4  UNL     1      26.605   1.040  51.770  1.00  0.00     0.022 A 
HETATM   13  C3  UNL     1      26.467  -0.057  52.592  1.00  0.00     0.031 A 
HETATM   14  C20 UNL     1      25.342  -0.279  53.320  1.00  0.00     0.022 A 
HETATM   15  C19 UNL     1      24.273   0.591  53.270  1.00  0.00     0.014 A 
BRANCH  13  16
HETATM   16  S1  UNL     1      27.804  -1.208  52.696  1.00  0.00     0.049 S 
HETATM   17  O1  UNL     1      27.320  -2.545  53.236  1.00  0.00    -0.253 OA
BRANCH  16  18
HETATM   18  C2  UNL     1      29.082  -0.629  53.819  1.00  0.00     0.109 C 
HETATM   19  C1  UNL     1      28.500   0.163  54.964  1.00  0.00     0.019 C 
ENDBRANCH  16  18
ENDBRANCH  13  16
ENDBRANCH   1  10
BRANCH   7  20
HETATM   20  C13 UNL     1      19.101   0.255  51.245  1.00  0.00     0.044 A 
HETATM   21  C14 UNL     1      17.672   0.454  51.210  1.00  0.00    -0.021 A 
HETATM   22  C15 UNL     1      17.453  -0.278  52.257  1.00  0.00    -0.029 A 
HETATM   23  C16 UNL     1      18.853  -0.590  52.452  1.00  0.00     0.040 A 
ENDBRANCH   7  20
TORSDOF 4
ENDMDL
MODEL 8
REMARK VINA RESULT:      -7.6      3.796      7.100
REMARK  4 active torsions:
REMARK  status: ('A' for Active; 'I' for Inactive)
REMARK    1  A    between atoms: C2_2  and  S1_3 
REMARK    2  A    between atoms: S1_3  and  C3_5 
REMARK    3  A    between atoms: C6_8  and  C7_9 
REMARK    4  A    between atoms: C12_15  and  C13_16 
ROOT
HETATM    1  C7  UNL     1      25.331   2.633  51.346  1.00  0.00     0.009 A 
HETATM    2  C8  UNL     1      26.724   2.635  51.321  1.00  0.00     0.155 A 
HETATM    3  O2  UNL     1      27.085   1.561  51.968  1.00  0.00    -0.321 OA
HETATM    4  C9  UNL     1      26.064   0.889  52.392  1.00  0.00     0.086 A 
HETATM    5  C10 UNL     1      25.944  -0.301  53.116  1.00  0.00     0.039 A 
HETATM    6  C11 UNL     1      24.700  -0.797  53.439  1.00  0.00     0.011 A 
HETATM    7  C12 UNL     1      23.566  -0.120  53.047  1.00  0.00    -0.049 A 
HETATM    8  C17 UNL     1      23.617   1.052  52.335  1.00  0.00     0.023 A 
HETATM    9  C18 UNL     1      24.878   1.516  52.032  1.00  0.00     0.011 A 
ENDROOT
BRANCH   1  10
HETATM   10  C6  UNL     1      24.535   3.685  50.721  1.00  0.00    -0.023 A 
HETATM   11  C5  UNL     1      23.826   4.538  51.547  1.00  0.00     0.014 A 
HETATM   12  C4  UNL     1      23.056   5.550  51.020  1.00  0.00     0.022 A 
HETATM   13  C3  UNL     1      23.023   5.675  49.649  1.00  0.00     0.031 A 
HETATM   14  C20 UNL     1      23.714   4.841  48.828  1.00  0.00     0.022 A 
HETATM   15  C19 UNL     1      24.492   3.821  49.335  1.00  0.00     0.014 A 
BRANCH  13  16
HETATM   16  S1  UNL     1      22.043   6.964  48.942  1.00  0.00     0.049 S 
HETATM   17  O1  UNL     1      22.051   6.873  47.424  1.00  0.00    -0.253 OA
BRANCH  16  18
HETATM   18  C2  UNL     1      22.688   8.586  49.366  1.00  0.00     0.109 C 
HETATM   19  C1  UNL     1      24.195   8.623  49.293  1.00  0.00     0.019 C 
ENDBRANCH  16  18
ENDBRANCH  13  16
ENDBRANCH   1  10
BRANCH   7  20
HETATM   20  C13 UNL     1      22.238  -0.686  53.412  1.00  0.00     0.044 A 
HETATM   21  C14 UNL     1      21.144   0.250  53.518  1.00  0.00    -0.021 A 
HETATM   22  C15 UNL     1      20.997   0.074  54.794  1.00  0.00    -0.029 A 
HETATM   23  C16 UNL     1      22.072  -0.891  54.883  1.00  0.00     0.040 A 
ENDBRANCH   7  20
TORSDOF 4
ENDMDL
MODEL 9
REMARK VINA RESULT:      -7.5      3.575      7.244
REMARK  4 active torsions:
REMARK  status: ('A' for Active; 'I' for Inactive)
REMARK    1  A    between atoms: C2_2  and  S1_3 
REMARK    2  A    between atoms: S1_3  and  C3_5 
REMARK    3  A    between atoms: C6_8  and  C7_9 
REMARK    4  A    between atoms: C12_15  and  C13_16 
ROOT
HETATM    1  C7  UNL     1      25.299   2.752  51.241  1.00  0.00     0.009 A 
HETATM    2  C8  UNL     1      26.679   2.887  51.093  1.00  0.00     0.155 A 
HETATM    3  O2  UNL     1      27.195   1.830  51.656  1.00  0.00    -0.321 OA
HETATM    4  C9  UNL     1      26.283   1.048  52.139  1.00  0.00     0.086 A 
HETATM    5  C10 UNL     1      26.340  -0.173  52.817  1.00  0.00     0.039 A 
HETATM    6  C11 UNL     1      25.182  -0.797  53.226  1.00  0.00     0.011 A 
HETATM    7  C12 UNL     1      23.960  -0.217  52.967  1.00  0.00    -0.049 A 
HETATM    8  C17 UNL     1      23.837   0.979  52.306  1.00  0.00     0.023 A 
HETATM    9  C18 UNL     1      25.016   1.573  51.914  1.00  0.00     0.011 A 
ENDROOT
BRANCH   1  10
HETATM   10  C6  UNL     1      24.356   3.745  50.737  1.00  0.00    -0.023 A 
HETATM   11  C5  UNL     1      24.097   3.762  49.379  1.00  0.00     0.014 A 
HETATM   12  C4  UNL     1      23.218   4.673  48.840  1.00  0.00     0.022 A 
HETATM   13  C3  UNL     1      22.613   5.560  49.705  1.00  0.00     0.031 A 
HETATM   14  C20 UNL     1      22.861   5.552  51.041  1.00  0.00     0.022 A 
HETATM   15  C19 UNL     1      23.739   4.647  51.601  1.00  0.00     0.014 A 
BRANCH  13  16
HETATM   16  S1  UNL     1      21.480   6.743  49.045  1.00  0.00     0.049 S 
HETATM   17  O1  UNL     1      21.172   7.823  50.070  1.00  0.00    -0.253 OA
BRANCH  16  18
HETATM   18  C2  UNL     1      19.911   5.979  48.612  1.00  0.00     0.109 C 
HETATM   19  C1  UNL     1      19.453   5.010  49.675  1.00  0.00     0.019 C 
ENDBRANCH  16  18
ENDBRANCH  13  16
ENDBRANCH   1  10
BRANCH   7  20
HETATM   20  C13 UNL     1      22.728  -0.920  53.423  1.00  0.00     0.044 A 
HETATM   21  C14 UNL     1      21.533  -0.120  53.536  1.00  0.00    -0.021 A 
HETATM   22  C15 UNL     1      21.463  -0.243  54.825  1.00  0.00    -0.029 A 
HETATM   23  C16 UNL     1      22.652  -1.065  54.908  1.00  0.00     0.040 A 
ENDBRANCH   7  20
TORSDOF 4
ENDMDL
