MODEL 1
REMARK VINA RESULT:      -6.0      0.000      0.000
REMARK  7 active torsions:
REMARK  status: ('A' for Active; 'I' for Inactive)
REMARK    1  A    between atoms: C2_2  and  N1_3 
REMARK    2  A    between atoms: N1_3  and  C3_4 
REMARK    3  A    between atoms: N1_3  and  C5_6 
REMARK    4  A    between atoms: C5_6  and  C6_7 
REMARK    5  A    between atoms: C6_7  and  N2_8 
REMARK       I    between atoms: N2_8  and  C7_9 
REMARK    6  A    between atoms: C7_9  and  C8_11 
REMARK    7  A    between atoms: C11_15  and  C12_16 
ROOT
HETATM    1  C8  UNL     1      24.480   1.406  53.120  1.00  0.00     0.072 A 
HETATM    2  C9  UNL     1      24.097   0.187  53.329  1.00  0.00     0.023 A 
HETATM    3  C10 UNL     1      22.725  -0.345  53.146  1.00  0.00     0.069 C 
HETATM    4  N3  UNL     1      25.146  -0.698  53.778  1.00  0.00    -0.377 N 
HETATM    5  C11 UNL     1      26.487  -0.188  53.952  1.00  0.00     0.153 A 
HETATM    6  S1  UNL     1      26.263   1.497  53.508  1.00  0.00    -0.206 SA
HETATM    7  C14 UNL     1      27.258   2.167  52.214  1.00  0.00     0.073 C 
HETATM    8  H19 UNL     1      25.069  -1.723  54.008  1.00  0.00     0.160 HD
HETATM    9  H23 UNL     1      26.360   2.527  54.838  1.00  0.00     0.088 HD
ENDROOT
BRANCH   1  10
HETATM   10  C7  UNL     1      23.818   2.585  52.681  1.00  0.00     0.258 C 
HETATM   11  N2  UNL     1      24.250   3.927  52.566  1.00  0.00    -0.355 N 
HETATM   12  H15 UNL     1      25.237   4.092  52.855  1.00  0.00     0.162 HD
HETATM   13  O1  UNL     1      22.600   2.592  52.283  1.00  0.00    -0.267 OA
BRANCH  11  14
HETATM   14  C6  UNL     1      23.366   4.985  52.077  1.00  0.00     0.142 C 
BRANCH  14  15
HETATM   15  C5  UNL     1      24.117   5.696  51.002  1.00  0.00     0.136 C 
BRANCH  15  16
HETATM   16  N1  UNL     1      24.362   4.985  49.808  1.00  0.00    -0.412 N 
BRANCH  16  17
HETATM   17  C2  UNL     1      23.250   4.456  49.104  1.00  0.00     0.112 C 
HETATM   18  C1  UNL     1      23.247   2.984  48.863  1.00  0.00     0.026 C 
ENDBRANCH  16  17
BRANCH  16  19
HETATM   19  C3  UNL     1      25.482   5.387  49.036  1.00  0.00     0.112 C 
HETATM   20  C4  UNL     1      26.619   4.416  49.281  1.00  0.00     0.026 C 
ENDBRANCH  16  19
ENDBRANCH  15  16
ENDBRANCH  14  15
ENDBRANCH  11  14
ENDBRANCH   1  10
BRANCH   5  21
HETATM   21  C12 UNL     1      27.450  -0.881  53.067  1.00  0.00     0.037 C 
HETATM   22  C13 UNL     1      28.698  -0.953  53.456  1.00  0.00     0.187 C 
HETATM   23  F1  UNL     1      29.485  -0.575  54.492  1.00  0.00    -0.220 F 
ENDBRANCH   5  21
TORSDOF 7
ENDMDL
MODEL 2
REMARK VINA RESULT:      -5.9      0.425      1.440
REMARK  7 active torsions:
REMARK  status: ('A' for Active; 'I' for Inactive)
REMARK    1  A    between atoms: C2_2  and  N1_3 
REMARK    2  A    between atoms: N1_3  and  C3_4 
REMARK    3  A    between atoms: N1_3  and  C5_6 
REMARK    4  A    between atoms: C5_6  and  C6_7 
REMARK    5  A    between atoms: C6_7  and  N2_8 
REMARK       I    between atoms: N2_8  and  C7_9 
REMARK    6  A    between atoms: C7_9  and  C8_11 
REMARK    7  A    between atoms: C11_15  and  C12_16 
ROOT
HETATM    1  C8  UNL     1      24.513   1.366  53.154  1.00  0.00     0.072 A 
HETATM    2  C9  UNL     1      24.168   0.145  53.415  1.00  0.00     0.023 A 
HETATM    3  C10 UNL     1      22.802  -0.422  53.302  1.00  0.00     0.069 C 
HETATM    4  N3  UNL     1      25.254  -0.702  53.849  1.00  0.00    -0.377 N 
HETATM    5  C11 UNL     1      26.588  -0.157  53.955  1.00  0.00     0.153 A 
HETATM    6  S1  UNL     1      26.308   1.508  53.470  1.00  0.00    -0.206 SA
HETATM    7  C14 UNL     1      27.236   2.160  52.118  1.00  0.00     0.073 C 
HETATM    8  H19 UNL     1      25.210  -1.721  54.113  1.00  0.00     0.160 HD
HETATM    9  H23 UNL     1      26.431   2.581  54.763  1.00  0.00     0.088 HD
ENDROOT
BRANCH   1  10
HETATM   10  C7  UNL     1      23.808   2.515  52.707  1.00  0.00     0.258 C 
HETATM   11  N2  UNL     1      24.053   3.900  52.867  1.00  0.00    -0.355 N 
HETATM   12  H15 UNL     1      24.907   4.128  53.415  1.00  0.00     0.162 HD
HETATM   13  O1  UNL     1      22.730   2.446  52.016  1.00  0.00    -0.267 OA
BRANCH  11  14
HETATM   14  C6  UNL     1      23.163   4.913  52.301  1.00  0.00     0.142 C 
BRANCH  14  15
HETATM   15  C5  UNL     1      23.967   5.659  51.290  1.00  0.00     0.136 C 
BRANCH  15  16
HETATM   16  N1  UNL     1      24.010   5.130  49.982  1.00  0.00    -0.412 N 
BRANCH  16  17
HETATM   17  C2  UNL     1      25.160   4.395  49.596  1.00  0.00     0.112 C 
HETATM   18  C1  UNL     1      26.324   5.183  49.094  1.00  0.00     0.026 C 
ENDBRANCH  16  17
BRANCH  16  19
HETATM   19  C3  UNL     1      22.775   4.749  49.398  1.00  0.00     0.112 C 
HETATM   20  C4  UNL     1      22.975   3.461  48.627  1.00  0.00     0.026 C 
ENDBRANCH  16  19
ENDBRANCH  15  16
ENDBRANCH  14  15
ENDBRANCH  11  14
ENDBRANCH   1  10
BRANCH   5  21
HETATM   21  C12 UNL     1      27.532  -0.855  53.054  1.00  0.00     0.037 C 
HETATM   22  C13 UNL     1      28.782  -0.952  53.432  1.00  0.00     0.187 C 
HETATM   23  F1  UNL     1      29.584  -0.598  54.465  1.00  0.00    -0.220 F 
ENDBRANCH   5  21
TORSDOF 7
ENDMDL
MODEL 3
REMARK VINA RESULT:      -5.9      1.214      2.038
REMARK  7 active torsions:
REMARK  status: ('A' for Active; 'I' for Inactive)
REMARK    1  A    between atoms: C2_2  and  N1_3 
REMARK    2  A    between atoms: N1_3  and  C3_4 
REMARK    3  A    between atoms: N1_3  and  C5_6 
REMARK    4  A    between atoms: C5_6  and  C6_7 
REMARK    5  A    between atoms: C6_7  and  N2_8 
REMARK       I    between atoms: N2_8  and  C7_9 
REMARK    6  A    between atoms: C7_9  and  C8_11 
REMARK    7  A    between atoms: C11_15  and  C12_16 
ROOT
HETATM    1  C8  UNL     1      24.463   1.172  53.020  1.00  0.00     0.072 A 
HETATM    2  C9  UNL     1      24.260   0.019  53.573  1.00  0.00     0.023 A 
HETATM    3  C10 UNL     1      23.072  -0.848  53.382  1.00  0.00     0.069 C 
HETATM    4  N3  UNL     1      25.323  -0.418  54.447  1.00  0.00    -0.377 N 
HETATM    5  C11 UNL     1      26.487   0.419  54.633  1.00  0.00     0.153 A 
HETATM    6  S1  UNL     1      26.077   1.790  53.614  1.00  0.00    -0.206 SA
HETATM    7  C14 UNL     1      27.198   2.250  52.330  1.00  0.00     0.073 C 
HETATM    8  H19 UNL     1      25.376  -1.313  54.999  1.00  0.00     0.160 HD
HETATM    9  H23 UNL     1      25.705   3.167  54.511  1.00  0.00     0.088 HD
ENDROOT
BRANCH   1  10
HETATM   10  C7  UNL     1      23.719   1.974  52.113  1.00  0.00     0.258 C 
HETATM   11  N2  UNL     1      23.838   2.186  50.718  1.00  0.00    -0.355 N 
HETATM   12  H15 UNL     1      24.613   1.661  50.264  1.00  0.00     0.162 HD
HETATM   13  O1  UNL     1      22.725   2.697  52.476  1.00  0.00    -0.267 OA
BRANCH  11  14
HETATM   14  C6  UNL     1      22.933   3.077  49.992  1.00  0.00     0.142 C 
BRANCH  14  15
HETATM   15  C5  UNL     1      23.796   4.080  49.303  1.00  0.00     0.136 C 
BRANCH  15  16
HETATM   16  N1  UNL     1      24.622   4.887  50.114  1.00  0.00    -0.412 N 
BRANCH  16  17
HETATM   17  C2  UNL     1      25.857   5.331  49.577  1.00  0.00     0.112 C 
HETATM   18  C1  UNL     1      26.836   4.276  49.183  1.00  0.00     0.026 C 
ENDBRANCH  16  17
BRANCH  16  19
HETATM   19  C3  UNL     1      23.976   5.744  51.041  1.00  0.00     0.112 C 
HETATM   20  C4  UNL     1      24.510   7.150  50.862  1.00  0.00     0.026 C 
ENDBRANCH  16  19
ENDBRANCH  15  16
ENDBRANCH  14  15
ENDBRANCH  11  14
ENDBRANCH   1  10
BRANCH   5  21
HETATM   21  C12 UNL     1      27.722  -0.264  54.190  1.00  0.00     0.037 C 
HETATM   22  C13 UNL     1      27.683  -0.934  53.066  1.00  0.00     0.187 C 
HETATM   23  F1  UNL     1      26.814  -1.246  52.074  1.00  0.00    -0.220 F 
ENDBRANCH   5  21
TORSDOF 7
ENDMDL
MODEL 4
REMARK VINA RESULT:      -5.7      2.596      4.959
REMARK  7 active torsions:
REMARK  status: ('A' for Active; 'I' for Inactive)
REMARK    1  A    between atoms: C2_2  and  N1_3 
REMARK    2  A    between atoms: N1_3  and  C3_4 
REMARK    3  A    between atoms: N1_3  and  C5_6 
REMARK    4  A    between atoms: C5_6  and  C6_7 
REMARK    5  A    between atoms: C6_7  and  N2_8 
REMARK       I    between atoms: N2_8  and  C7_9 
REMARK    6  A    between atoms: C7_9  and  C8_11 
REMARK    7  A    between atoms: C11_15  and  C12_16 
ROOT
HETATM    1  C8  UNL     1      25.219   1.067  52.068  1.00  0.00     0.072 A 
HETATM    2  C9  UNL     1      26.319   1.633  51.684  1.00  0.00     0.023 A 
HETATM    3  C10 UNL     1      26.432   2.899  50.918  1.00  0.00     0.069 C 
HETATM    4  N3  UNL     1      27.519   0.927  52.068  1.00  0.00    -0.377 N 
HETATM    5  C11 UNL     1      27.416  -0.302  52.820  1.00  0.00     0.153 A 
HETATM    6  S1  UNL     1      25.672  -0.460  52.963  1.00  0.00    -0.206 SA
HETATM    7  C14 UNL     1      24.968  -0.595  54.576  1.00  0.00     0.073 C 
HETATM    8  H19 UNL     1      28.517   1.198  51.868  1.00  0.00     0.160 HD
HETATM    9  H23 UNL     1      25.062  -1.711  52.013  1.00  0.00     0.088 HD
ENDROOT
BRANCH   1  10
HETATM   10  C7  UNL     1      23.843   1.391  51.928  1.00  0.00     0.258 C 
HETATM   11  N2  UNL     1      22.851   1.743  52.874  1.00  0.00    -0.355 N 
HETATM   12  H15 UNL     1      23.183   1.770  53.860  1.00  0.00     0.162 HD
HETATM   13  O1  UNL     1      23.245   1.414  50.794  1.00  0.00    -0.267 OA
BRANCH  11  14
HETATM   14  C6  UNL     1      21.474   2.039  52.478  1.00  0.00     0.142 C 
BRANCH  14  15
HETATM   15  C5  UNL     1      20.597   1.221  53.364  1.00  0.00     0.136 C 
BRANCH  15  16
HETATM   16  N1  UNL     1      20.346  -0.111  52.973  1.00  0.00    -0.412 N 
BRANCH  16  17
HETATM   17  C2  UNL     1      21.296  -1.103  53.328  1.00  0.00     0.112 C 
HETATM   18  C1  UNL     1      21.483  -1.361  54.786  1.00  0.00     0.026 C 
ENDBRANCH  16  17
BRANCH  16  19
HETATM   19  C3  UNL     1      18.989  -0.516  52.895  1.00  0.00     0.112 C 
HETATM   20  C4  UNL     1      18.420  -0.065  51.566  1.00  0.00     0.026 C 
ENDBRANCH  16  19
ENDBRANCH  15  16
ENDBRANCH  14  15
ENDBRANCH  11  14
ENDBRANCH   1  10
BRANCH   5  21
HETATM   21  C12 UNL     1      28.082  -0.190  54.136  1.00  0.00     0.037 C 
HETATM   22  C13 UNL     1      29.367  -0.436  54.196  1.00  0.00     0.187 C 
HETATM   23  F1  UNL     1      30.394  -0.790  53.386  1.00  0.00    -0.220 F 
ENDBRANCH   5  21
TORSDOF 7
ENDMDL
MODEL 5
REMARK VINA RESULT:      -5.6      4.119      6.920
REMARK  7 active torsions:
REMARK  status: ('A' for Active; 'I' for Inactive)
REMARK    1  A    between atoms: C2_2  and  N1_3 
REMARK    2  A    between atoms: N1_3  and  C3_4 
REMARK    3  A    between atoms: N1_3  and  C5_6 
REMARK    4  A    between atoms: C5_6  and  C6_7 
REMARK    5  A    between atoms: C6_7  and  N2_8 
REMARK       I    between atoms: N2_8  and  C7_9 
REMARK    6  A    between atoms: C7_9  and  C8_11 
REMARK    7  A    between atoms: C11_15  and  C12_16 
ROOT
HETATM    1  C8  UNL     1      22.353   1.241  52.310  1.00  0.00     0.072 A 
HETATM    2  C9  UNL     1      22.055   1.644  51.116  1.00  0.00     0.023 A 
HETATM    3  C10 UNL     1      23.016   2.082  50.074  1.00  0.00     0.069 C 
HETATM    4  N3  UNL     1      20.641   1.644  50.822  1.00  0.00    -0.377 N 
HETATM    5  C11 UNL     1      19.701   1.212  51.830  1.00  0.00     0.153 A 
HETATM    6  S1  UNL     1      20.786   0.834  53.158  1.00  0.00    -0.206 SA
HETATM    7  C14 UNL     1      20.735  -0.787  53.854  1.00  0.00     0.073 C 
HETATM    8  H19 UNL     1      20.171   1.928  49.923  1.00  0.00     0.160 HD
HETATM    9  H23 UNL     1      20.676   1.952  54.413  1.00  0.00     0.088 HD
ENDROOT
BRANCH   1  10
HETATM   10  C7  UNL     1      23.574   1.074  53.017  1.00  0.00     0.258 C 
HETATM   11  N2  UNL     1      24.273  -0.081  53.443  1.00  0.00    -0.355 N 
HETATM   12  H15 UNL     1      23.813  -0.981  53.196  1.00  0.00     0.162 HD
HETATM   13  O1  UNL     1      24.291   2.061  53.411  1.00  0.00    -0.267 OA
BRANCH  11  14
HETATM   14  C6  UNL     1      25.539   0.005  54.171  1.00  0.00     0.142 C 
BRANCH  14  15
HETATM   15  C5  UNL     1      26.590  -0.507  53.245  1.00  0.00     0.136 C 
BRANCH  15  16
HETATM   16  N1  UNL     1      27.816   0.193  53.210  1.00  0.00    -0.412 N 
BRANCH  16  17
HETATM   17  C2  UNL     1      27.792   1.568  52.864  1.00  0.00     0.112 C 
HETATM   18  C1  UNL     1      28.665   2.476  53.663  1.00  0.00     0.026 C 
ENDBRANCH  16  17
BRANCH  16  19
HETATM   19  C3  UNL     1      28.823  -0.227  54.116  1.00  0.00     0.112 C 
HETATM   20  C4  UNL     1      29.820  -1.091  53.372  1.00  0.00     0.026 C 
ENDBRANCH  16  19
ENDBRANCH  15  16
ENDBRANCH  14  15
ENDBRANCH  11  14
ENDBRANCH   1  10
BRANCH   5  21
HETATM   21  C12 UNL     1      18.928   0.033  51.381  1.00  0.00     0.037 C 
HETATM   22  C13 UNL     1      17.823   0.243  50.710  1.00  0.00     0.187 C 
HETATM   23  F1  UNL     1      17.074   1.270  50.241  1.00  0.00    -0.220 F 
ENDBRANCH   5  21
TORSDOF 7
ENDMDL
MODEL 6
REMARK VINA RESULT:      -5.5      1.922      2.705
REMARK  7 active torsions:
REMARK  status: ('A' for Active; 'I' for Inactive)
REMARK    1  A    between atoms: C2_2  and  N1_3 
REMARK    2  A    between atoms: N1_3  and  C3_4 
REMARK    3  A    between atoms: N1_3  and  C5_6 
REMARK    4  A    between atoms: C5_6  and  C6_7 
REMARK    5  A    between atoms: C6_7  and  N2_8 
REMARK       I    between atoms: N2_8  and  C7_9 
REMARK    6  A    between atoms: C7_9  and  C8_11 
REMARK    7  A    between atoms: C11_15  and  C12_16 
ROOT
HETATM    1  C8  UNL     1      24.339   1.786  52.784  1.00  0.00     0.072 A 
HETATM    2  C9  UNL     1      23.864   0.614  53.061  1.00  0.00     0.023 A 
HETATM    3  C10 UNL     1      22.486   0.139  52.786  1.00  0.00     0.069 C 
HETATM    4  N3  UNL     1      24.808  -0.278  53.692  1.00  0.00    -0.377 N 
HETATM    5  C11 UNL     1      26.155   0.176  53.957  1.00  0.00     0.153 A 
HETATM    6  S1  UNL     1      26.078   1.821  53.344  1.00  0.00    -0.206 SA
HETATM    7  C14 UNL     1      27.233   2.313  52.104  1.00  0.00     0.073 C 
HETATM    8  H19 UNL     1      24.647  -1.271  54.004  1.00  0.00     0.160 HD
HETATM    9  H23 UNL     1      26.107   2.966  54.579  1.00  0.00     0.088 HD
ENDROOT
BRANCH   1  10
HETATM   10  C7  UNL     1      23.796   2.950  52.176  1.00  0.00     0.258 C 
HETATM   11  N2  UNL     1      23.484   3.259  50.831  1.00  0.00    -0.355 N 
HETATM   12  H15 UNL     1      23.687   2.497  50.152  1.00  0.00     0.162 HD
HETATM   13  O1  UNL     1      23.478   3.999  52.841  1.00  0.00    -0.267 OA
BRANCH  11  14
HETATM   14  C6  UNL     1      22.920   4.553  50.445  1.00  0.00     0.142 C 
BRANCH  14  15
HETATM   15  C5  UNL     1      21.829   4.261  49.472  1.00  0.00     0.136 C 
BRANCH  15  16
HETATM   16  N1  UNL     1      20.932   3.221  49.799  1.00  0.00    -0.412 N 
BRANCH  16  17
HETATM   17  C2  UNL     1      19.887   3.503  50.716  1.00  0.00     0.112 C 
HETATM   18  C1  UNL     1      20.013   2.909  52.079  1.00  0.00     0.026 C 
ENDBRANCH  16  17
BRANCH  16  19
HETATM   19  C3  UNL     1      20.665   2.259  48.792  1.00  0.00     0.112 C 
HETATM   20  C4  UNL     1      21.322   0.950  49.179  1.00  0.00     0.026 C 
ENDBRANCH  16  19
ENDBRANCH  15  16
ENDBRANCH  14  15
ENDBRANCH  11  14
ENDBRANCH   1  10
BRANCH   5  21
HETATM   21  C12 UNL     1      27.155  -0.646  53.241  1.00  0.00     0.037 C 
HETATM   22  C13 UNL     1      28.368  -0.699  53.730  1.00  0.00     0.187 C 
HETATM   23  F1  UNL     1      29.090  -0.213  54.769  1.00  0.00    -0.220 F 
ENDBRANCH   5  21
TORSDOF 7
ENDMDL
MODEL 7
REMARK VINA RESULT:      -5.5      2.511      3.764
REMARK  7 active torsions:
REMARK  status: ('A' for Active; 'I' for Inactive)
REMARK    1  A    between atoms: C2_2  and  N1_3 
REMARK    2  A    between atoms: N1_3  and  C3_4 
REMARK    3  A    between atoms: N1_3  and  C5_6 
REMARK    4  A    between atoms: C5_6  and  C6_7 
REMARK    5  A    between atoms: C6_7  and  N2_8 
REMARK       I    between atoms: N2_8  and  C7_9 
REMARK    6  A    between atoms: C7_9  and  C8_11 
REMARK    7  A    between atoms: C11_15  and  C12_16 
ROOT
HETATM    1  C8  UNL     1      24.434   0.678  52.388  1.00  0.00     0.072 A 
HETATM    2  C9  UNL     1      25.220   1.493  51.758  1.00  0.00     0.023 A 
HETATM    3  C10 UNL     1      24.805   2.687  50.983  1.00  0.00     0.069 C 
HETATM    4  N3  UNL     1      26.622   1.164  51.857  1.00  0.00    -0.377 N 
HETATM    5  C11 UNL     1      27.034   0.005  52.616  1.00  0.00     0.153 A 
HETATM    6  S1  UNL     1      25.480  -0.607  53.159  1.00  0.00    -0.206 SA
HETATM    7  C14 UNL     1      25.216  -0.817  54.892  1.00  0.00     0.073 C 
HETATM    8  H19 UNL     1      27.436   1.679  51.430  1.00  0.00     0.160 HD
HETATM    9  H23 UNL     1      25.047  -2.036  52.380  1.00  0.00     0.088 HD
ENDROOT
BRANCH   1  10
HETATM   10  C7  UNL     1      23.027   0.609  52.568  1.00  0.00     0.258 C 
HETATM   11  N2  UNL     1      21.981   0.184  51.715  1.00  0.00    -0.355 N 
HETATM   12  H15 UNL     1      22.292  -0.141  50.776  1.00  0.00     0.162 HD
HETATM   13  O1  UNL     1      22.446   0.963  53.655  1.00  0.00    -0.267 OA
BRANCH  11  14
HETATM   14  C6  UNL     1      20.580   0.206  52.136  1.00  0.00     0.142 C 
BRANCH  14  15
HETATM   15  C5  UNL     1      19.851   1.024  51.125  1.00  0.00     0.136 C 
BRANCH  15  16
HETATM   16  N1  UNL     1      20.385   2.294  50.815  1.00  0.00    -0.412 N 
BRANCH  16  17
HETATM   17  C2  UNL     1      20.523   2.646  49.448  1.00  0.00     0.112 C 
HETATM   18  C1  UNL     1      21.145   1.627  48.552  1.00  0.00     0.026 C 
ENDBRANCH  16  17
BRANCH  16  19
HETATM   19  C3  UNL     1      20.120   3.346  51.728  1.00  0.00     0.112 C 
HETATM   20  C4  UNL     1      21.429   4.012  52.101  1.00  0.00     0.026 C 
ENDBRANCH  16  19
ENDBRANCH  15  16
ENDBRANCH  14  15
ENDBRANCH  11  14
ENDBRANCH   1  10
BRANCH   5  21
HETATM   21  C12 UNL     1      27.917   0.381  53.742  1.00  0.00     0.037 C 
HETATM   22  C13 UNL     1      29.124  -0.128  53.772  1.00  0.00     0.187 C 
HETATM   23  F1  UNL     1      29.916  -0.960  53.054  1.00  0.00    -0.220 F 
ENDBRANCH   5  21
TORSDOF 7
ENDMDL
MODEL 8
REMARK VINA RESULT:      -5.4      2.812      3.677
REMARK  7 active torsions:
REMARK  status: ('A' for Active; 'I' for Inactive)
REMARK    1  A    between atoms: C2_2  and  N1_3 
REMARK    2  A    between atoms: N1_3  and  C3_4 
REMARK    3  A    between atoms: N1_3  and  C5_6 
REMARK    4  A    between atoms: C5_6  and  C6_7 
REMARK    5  A    between atoms: C6_7  and  N2_8 
REMARK       I    between atoms: N2_8  and  C7_9 
REMARK    6  A    between atoms: C7_9  and  C8_11 
REMARK    7  A    between atoms: C11_15  and  C12_16 
ROOT
HETATM    1  C8  UNL     1      24.091   1.115  52.840  1.00  0.00     0.072 A 
HETATM    2  C9  UNL     1      23.931  -0.046  53.390  1.00  0.00     0.023 A 
HETATM    3  C10 UNL     1      22.738  -0.919  53.263  1.00  0.00     0.069 C 
HETATM    4  N3  UNL     1      25.050  -0.487  54.188  1.00  0.00    -0.377 N 
HETATM    5  C11 UNL     1      26.218   0.357  54.311  1.00  0.00     0.153 A 
HETATM    6  S1  UNL     1      25.735   1.737  53.338  1.00  0.00    -0.206 SA
HETATM    7  C14 UNL     1      26.769   2.222  51.992  1.00  0.00     0.073 C 
HETATM    8  H19 UNL     1      25.143  -1.389  54.724  1.00  0.00     0.160 HD
HETATM    9  H23 UNL     1      25.412   3.099  54.275  1.00  0.00     0.088 HD
ENDROOT
BRANCH   1  10
HETATM   10  C7  UNL     1      23.285   1.923  51.993  1.00  0.00     0.258 C 
HETATM   11  N2  UNL     1      22.324   2.924  52.271  1.00  0.00    -0.355 N 
HETATM   12  H15 UNL     1      22.171   3.108  53.284  1.00  0.00     0.162 HD
HETATM   13  O1  UNL     1      23.326   1.848  50.714  1.00  0.00    -0.267 OA
BRANCH  11  14
HETATM   14  C6  UNL     1      21.612   3.630  51.206  1.00  0.00     0.142 C 
BRANCH  14  15
HETATM   15  C5  UNL     1      20.160   3.372  51.429  1.00  0.00     0.136 C 
BRANCH  15  16
HETATM   16  N1  UNL     1      19.469   2.658  50.426  1.00  0.00    -0.412 N 
BRANCH  16  17
HETATM   17  C2  UNL     1      19.819   1.301  50.210  1.00  0.00     0.112 C 
HETATM   18  C1  UNL     1      19.592   0.361  51.346  1.00  0.00     0.026 C 
ENDBRANCH  16  17
BRANCH  16  19
HETATM   19  C3  UNL     1      18.119   3.022  50.189  1.00  0.00     0.112 C 
HETATM   20  C4  UNL     1      17.595   3.769  51.399  1.00  0.00     0.026 C 
ENDBRANCH  16  19
ENDBRANCH  15  16
ENDBRANCH  14  15
ENDBRANCH  11  14
ENDBRANCH   1  10
BRANCH   5  21
HETATM   21  C12 UNL     1      27.427  -0.311  53.782  1.00  0.00     0.037 C 
HETATM   22  C13 UNL     1      28.585   0.019  54.297  1.00  0.00     0.187 C 
HETATM   23  F1  UNL     1      29.104   0.841  55.241  1.00  0.00    -0.220 F 
ENDBRANCH   5  21
TORSDOF 7
ENDMDL
MODEL 9
REMARK VINA RESULT:      -5.3      3.848      6.504
REMARK  7 active torsions:
REMARK  status: ('A' for Active; 'I' for Inactive)
REMARK    1  A    between atoms: C2_2  and  N1_3 
REMARK    2  A    between atoms: N1_3  and  C3_4 
REMARK    3  A    between atoms: N1_3  and  C5_6 
REMARK    4  A    between atoms: C5_6  and  C6_7 
REMARK    5  A    between atoms: C6_7  and  N2_8 
REMARK       I    between atoms: N2_8  and  C7_9 
REMARK    6  A    between atoms: C7_9  and  C8_11 
REMARK    7  A    between atoms: C11_15  and  C12_16 
ROOT
HETATM    1  C8  UNL     1      22.300   0.657  52.820  1.00  0.00     0.072 A 
HETATM    2  C9  UNL     1      21.023   0.501  52.968  1.00  0.00     0.023 A 
HETATM    3  C10 UNL     1      20.357  -0.501  53.836  1.00  0.00     0.069 C 
HETATM    4  N3  UNL     1      20.217   1.418  52.196  1.00  0.00    -0.377 N 
HETATM    5  C11 UNL     1      20.860   2.401  51.355  1.00  0.00     0.153 A 
HETATM    6  S1  UNL     1      22.552   2.026  51.636  1.00  0.00    -0.206 SA
HETATM    7  C14 UNL     1      23.614   3.309  52.222  1.00  0.00     0.073 C 
HETATM    8  H19 UNL     1      19.166   1.477  52.159  1.00  0.00     0.160 HD
HETATM    9  H23 UNL     1      23.280   1.306  50.298  1.00  0.00     0.088 HD
ENDROOT
BRANCH   1  10
HETATM   10  C7  UNL     1      23.441   0.009  53.365  1.00  0.00     0.258 C 
HETATM   11  N2  UNL     1      24.814   0.065  53.027  1.00  0.00    -0.355 N 
HETATM   12  H15 UNL     1      25.040   0.695  52.231  1.00  0.00     0.162 HD
HETATM   13  O1  UNL     1      23.374  -0.806  54.352  1.00  0.00    -0.267 OA
BRANCH  11  14
HETATM   14  C6  UNL     1      25.821  -0.710  53.752  1.00  0.00     0.142 C 
BRANCH  14  15
HETATM   15  C5  UNL     1      27.063  -0.658  52.928  1.00  0.00     0.136 C 
BRANCH  15  16
HETATM   16  N1  UNL     1      28.052   0.275  53.308  1.00  0.00    -0.412 N 
BRANCH  16  17
HETATM   17  C2  UNL     1      29.375  -0.197  53.507  1.00  0.00     0.112 C 
HETATM   18  C1  UNL     1      29.570  -1.676  53.483  1.00  0.00     0.026 C 
ENDBRANCH  16  17
BRANCH  16  19
HETATM   19  C3  UNL     1      27.906   1.601  52.830  1.00  0.00     0.112 C 
HETATM   20  C4  UNL     1      28.752   2.525  53.682  1.00  0.00     0.026 C 
ENDBRANCH  16  19
ENDBRANCH  15  16
ENDBRANCH  14  15
ENDBRANCH  11  14
ENDBRANCH   1  10
BRANCH   5  21
HETATM   21  C12 UNL     1      20.511   3.779  51.767  1.00  0.00     0.037 C 
HETATM   22  C13 UNL     1      20.450   4.700  50.838  1.00  0.00     0.187 C 
HETATM   23  F1  UNL     1      20.611   4.836  49.499  1.00  0.00    -0.220 F 
ENDBRANCH   5  21
TORSDOF 7
ENDMDL
