MODEL 1
REMARK VINA RESULT:      -7.3      0.000      0.000
REMARK  8 active torsions:
REMARK  status: ('A' for Active; 'I' for Inactive)
REMARK    1  A    between atoms: C2_2  and  C3_3 
REMARK    2  A    between atoms: C3_3  and  S1_4 
REMARK    3  A    between atoms: S1_4  and  N1_7 
REMARK    4  A    between atoms: N1_7  and  C4_8 
REMARK    5  A    between atoms: C8_13  and  C9_14 
REMARK    6  A    between atoms: C9_14  and  N2_15 
REMARK    7  A    between atoms: N2_15  and  C10_16 
REMARK    8  A    between atoms: C10_16  and  C11_17 
ROOT
HETATM    1  C4  UNL     1      25.473   1.153  53.931  1.00  0.00     0.081 A 
HETATM    2  C5  UNL     1      24.986  -0.126  54.092  1.00  0.00     0.036 A 
HETATM    3  C6  UNL     1      23.858  -0.664  53.517  1.00  0.00     0.045 A 
HETATM    4  C7  UNL     1      23.140   0.197  52.680  1.00  0.00     0.127 A 
HETATM    5  F1  UNL     1      22.010  -0.302  52.088  1.00  0.00    -0.205 F 
HETATM    6  C8  UNL     1      23.564   1.489  52.471  1.00  0.00     0.049 A 
HETATM    7  C15 UNL     1      24.713   1.958  53.089  1.00  0.00     0.154 A 
HETATM    8  F2  UNL     1      25.117   3.233  52.872  1.00  0.00    -0.203 F 
ENDROOT
BRANCH   6   9
HETATM    9  C9  UNL     1      22.781   2.386  51.574  1.00  0.00     0.315 C 
BRANCH   9  10
HETATM   10  N2  UNL     1      23.333   2.224  50.245  1.00  0.00     0.092 N 
HETATM   11  H13 UNL     1      24.234   1.704  50.260  1.00  0.00     0.316 HD
BRANCH  10  12
HETATM   12  C10 UNL     1      23.472   3.449  49.525  1.00  0.00     0.311 C 
BRANCH  12  13
HETATM   13  C11 UNL     1      24.851   3.931  49.392  1.00  0.00     0.006 A 
HETATM   14  C12 UNL     1      25.255   5.111  48.958  1.00  0.00     0.041 A 
HETATM   15 CL1  UNL     1      24.367   6.526  48.387  1.00  0.00    -0.086 Cl
HETATM   16  C13 UNL     1      26.718   5.246  48.960  1.00  0.00     0.200 A 
HETATM   17  N3  UNL     1      27.168   3.969  49.462  1.00  0.00    -0.296 NA
HETATM   18  C14 UNL     1      26.112   3.271  49.688  1.00  0.00     0.121 A 
ENDBRANCH  12  13
ENDBRANCH  10  12
ENDBRANCH   9  10
ENDBRANCH   6   9
BRANCH   1  19
HETATM   19  N1  UNL     1      26.637   1.629  54.560  1.00  0.00    -0.282 N 
HETATM   20  H8  UNL     1      26.518   2.183  55.446  1.00  0.00     0.178 HD
BRANCH  19  21
HETATM   21  S1  UNL     1      28.237   1.368  53.978  1.00  0.00     0.231 S 
HETATM   22  O1  UNL     1      29.084   2.482  54.537  1.00  0.00    -0.206 OA
HETATM   23  O2  UNL     1      28.257   1.333  52.478  1.00  0.00    -0.206 OA
BRANCH  21  24
HETATM   24  C3  UNL     1      28.842  -0.192  54.571  1.00  0.00     0.163 C 
BRANCH  24  25
HETATM   25  C2  UNL     1      29.667  -0.852  53.483  1.00  0.00     0.012 C 
HETATM   26  C1  UNL     1      29.045  -2.171  53.083  1.00  0.00     0.006 C 
ENDBRANCH  24  25
ENDBRANCH  21  24
ENDBRANCH  19  21
ENDBRANCH   1  19
TORSDOF 8
ENDMDL
MODEL 2
REMARK VINA RESULT:      -7.3      4.492      6.318
REMARK  8 active torsions:
REMARK  status: ('A' for Active; 'I' for Inactive)
REMARK    1  A    between atoms: C2_2  and  C3_3 
REMARK    2  A    between atoms: C3_3  and  S1_4 
REMARK    3  A    between atoms: S1_4  and  N1_7 
REMARK    4  A    between atoms: N1_7  and  C4_8 
REMARK    5  A    between atoms: C8_13  and  C9_14 
REMARK    6  A    between atoms: C9_14  and  N2_15 
REMARK    7  A    between atoms: N2_15  and  C10_16 
REMARK    8  A    between atoms: C10_16  and  C11_17 
ROOT
HETATM    1  C4  UNL     1      21.661   0.423  52.371  1.00  0.00     0.081 A 
HETATM    2  C5  UNL     1      20.941  -0.371  53.237  1.00  0.00     0.036 A 
HETATM    3  C6  UNL     1      21.427  -1.085  54.307  1.00  0.00     0.045 A 
HETATM    4  C7  UNL     1      22.805  -0.981  54.526  1.00  0.00     0.127 A 
HETATM    5  F1  UNL     1      23.326  -1.679  55.583  1.00  0.00    -0.205 F 
HETATM    6  C8  UNL     1      23.590  -0.207  53.703  1.00  0.00     0.049 A 
HETATM    7  C15 UNL     1      23.025   0.483  52.642  1.00  0.00     0.154 A 
HETATM    8  F2  UNL     1      23.812   1.241  51.841  1.00  0.00    -0.203 F 
ENDROOT
BRANCH   6   9
HETATM    9  C9  UNL     1      25.056  -0.112  53.957  1.00  0.00     0.315 C 
BRANCH   9  10
HETATM   10  N2  UNL     1      25.705  -0.893  52.926  1.00  0.00     0.092 N 
HETATM   11  H13 UNL     1      26.129  -1.764  53.307  1.00  0.00     0.316 HD
BRANCH  10  12
HETATM   12  C10 UNL     1      26.664  -0.160  52.164  1.00  0.00     0.311 C 
BRANCH  12  13
HETATM   13  C11 UNL     1      27.566   0.682  52.957  1.00  0.00     0.006 A 
HETATM   14  C12 UNL     1      28.672   0.315  53.579  1.00  0.00     0.041 A 
HETATM   15 CL1  UNL     1      29.490  -1.244  53.713  1.00  0.00    -0.086 Cl
HETATM   16  C13 UNL     1      29.324   1.429  54.281  1.00  0.00     0.200 A 
HETATM   17  N3  UNL     1      28.456   2.550  54.003  1.00  0.00    -0.296 NA
HETATM   18  C14 UNL     1      27.498   2.099  53.273  1.00  0.00     0.121 A 
ENDBRANCH  12  13
ENDBRANCH  10  12
ENDBRANCH   9  10
ENDBRANCH   6   9
BRANCH   1  19
HETATM   19  N1  UNL     1      21.088   1.121  51.294  1.00  0.00    -0.282 N 
HETATM   20  H8  UNL     1      20.992   0.609  50.380  1.00  0.00     0.178 HD
BRANCH  19  21
HETATM   21  S1  UNL     1      20.537   2.752  51.370  1.00  0.00     0.231 S 
HETATM   22  O1  UNL     1      20.026   2.967  52.771  1.00  0.00    -0.206 OA
HETATM   23  O2  UNL     1      19.484   3.006  50.332  1.00  0.00    -0.206 OA
BRANCH  21  24
HETATM   24  C3  UNL     1      21.893   3.855  51.057  1.00  0.00     0.163 C 
BRANCH  24  25
HETATM   25  C2  UNL     1      22.174   4.664  52.308  1.00  0.00     0.012 C 
HETATM   26  C1  UNL     1      23.601   4.447  52.760  1.00  0.00     0.006 C 
ENDBRANCH  24  25
ENDBRANCH  21  24
ENDBRANCH  19  21
ENDBRANCH   1  19
TORSDOF 8
ENDMDL
MODEL 3
REMARK VINA RESULT:      -7.1      2.441      3.021
REMARK  8 active torsions:
REMARK  status: ('A' for Active; 'I' for Inactive)
REMARK    1  A    between atoms: C2_2  and  C3_3 
REMARK    2  A    between atoms: C3_3  and  S1_4 
REMARK    3  A    between atoms: S1_4  and  N1_7 
REMARK    4  A    between atoms: N1_7  and  C4_8 
REMARK    5  A    between atoms: C8_13  and  C9_14 
REMARK    6  A    between atoms: C9_14  and  N2_15 
REMARK    7  A    between atoms: N2_15  and  C10_16 
REMARK    8  A    between atoms: C10_16  and  C11_17 
ROOT
HETATM    1  C4  UNL     1      25.234  -0.159  53.457  1.00  0.00     0.081 A 
HETATM    2  C5  UNL     1      25.071  -0.826  54.651  1.00  0.00     0.036 A 
HETATM    3  C6  UNL     1      23.883  -1.189  55.244  1.00  0.00     0.045 A 
HETATM    4  C7  UNL     1      22.727  -0.835  54.542  1.00  0.00     0.127 A 
HETATM    5  F1  UNL     1      21.524  -1.179  55.100  1.00  0.00    -0.205 F 
HETATM    6  C8  UNL     1      22.810  -0.167  53.341  1.00  0.00     0.049 A 
HETATM    7  C15 UNL     1      24.046   0.165  52.809  1.00  0.00     0.154 A 
HETATM    8  F2  UNL     1      24.110   0.822  51.626  1.00  0.00    -0.203 F 
ENDROOT
BRANCH   6   9
HETATM    9  C9  UNL     1      21.562   0.198  52.612  1.00  0.00     0.315 C 
BRANCH   9  10
HETATM   10  N2  UNL     1      21.099   1.444  53.186  1.00  0.00     0.092 N 
HETATM   11  H13 UNL     1      20.409   1.286  53.951  1.00  0.00     0.316 HD
BRANCH  10  12
HETATM   12  C10 UNL     1      20.582   2.365  52.226  1.00  0.00     0.311 C 
BRANCH  12  13
HETATM   13  C11 UNL     1      21.564   3.319  51.700  1.00  0.00     0.006 A 
HETATM   14  C12 UNL     1      22.232   3.244  50.563  1.00  0.00     0.041 A 
HETATM   15 CL1  UNL     1      22.231   2.041  49.270  1.00  0.00    -0.086 Cl
HETATM   16  C13 UNL     1      23.137   4.383  50.359  1.00  0.00     0.200 A 
HETATM   17  N3  UNL     1      22.933   5.184  51.544  1.00  0.00    -0.296 NA
HETATM   18  C14 UNL     1      22.061   4.565  52.259  1.00  0.00     0.121 A 
ENDBRANCH  12  13
ENDBRANCH  10  12
ENDBRANCH   9  10
ENDBRANCH   6   9
BRANCH   1  19
HETATM   19  N1  UNL     1      26.488   0.180  52.918  1.00  0.00    -0.282 N 
HETATM   20  H8  UNL     1      26.948  -0.520  52.282  1.00  0.00     0.178 HD
BRANCH  19  21
HETATM   21  S1  UNL     1      27.317   1.658  53.230  1.00  0.00     0.231 S 
HETATM   22  O1  UNL     1      26.492   2.405  54.246  1.00  0.00    -0.206 OA
HETATM   23  O2  UNL     1      27.506   2.438  51.963  1.00  0.00    -0.206 OA
BRANCH  21  24
HETATM   24  C3  UNL     1      28.921   1.311  53.906  1.00  0.00     0.163 C 
BRANCH  24  25
HETATM   25  C2  UNL     1      28.939  -0.107  54.442  1.00  0.00     0.012 C 
HETATM   26  C1  UNL     1      29.904  -0.955  53.645  1.00  0.00     0.006 C 
ENDBRANCH  24  25
ENDBRANCH  21  24
ENDBRANCH  19  21
ENDBRANCH   1  19
TORSDOF 8
ENDMDL
MODEL 4
REMARK VINA RESULT:      -7.0      3.169      5.227
REMARK  8 active torsions:
REMARK  status: ('A' for Active; 'I' for Inactive)
REMARK    1  A    between atoms: C2_2  and  C3_3 
REMARK    2  A    between atoms: C3_3  and  S1_4 
REMARK    3  A    between atoms: S1_4  and  N1_7 
REMARK    4  A    between atoms: N1_7  and  C4_8 
REMARK    5  A    between atoms: C8_13  and  C9_14 
REMARK    6  A    between atoms: C9_14  and  N2_15 
REMARK    7  A    between atoms: N2_15  and  C10_16 
REMARK    8  A    between atoms: C10_16  and  C11_17 
ROOT
HETATM    1  C4  UNL     1      26.090   1.860  51.562  1.00  0.00     0.081 A 
HETATM    2  C5  UNL     1      26.343   2.882  50.674  1.00  0.00     0.036 A 
HETATM    3  C6  UNL     1      25.422   3.571  49.918  1.00  0.00     0.045 A 
HETATM    4  C7  UNL     1      24.091   3.175  50.082  1.00  0.00     0.127 A 
HETATM    5  F1  UNL     1      23.145   3.837  49.346  1.00  0.00    -0.205 F 
HETATM    6  C8  UNL     1      23.761   2.161  50.952  1.00  0.00     0.049 A 
HETATM    7  C15 UNL     1      24.748   1.514  51.679  1.00  0.00     0.154 A 
HETATM    8  F2  UNL     1      24.406   0.518  52.531  1.00  0.00    -0.203 F 
ENDROOT
BRANCH   6   9
HETATM    9  C9  UNL     1      22.334   1.759  51.110  1.00  0.00     0.315 C 
BRANCH   9  10
HETATM   10  N2  UNL     1      21.874   2.350  52.348  1.00  0.00     0.092 N 
HETATM   11  H13 UNL     1      22.589   2.278  53.102  1.00  0.00     0.316 HD
BRANCH  10  12
HETATM   12  C10 UNL     1      20.617   1.843  52.798  1.00  0.00     0.311 C 
BRANCH  12  13
HETATM   13  C11 UNL     1      20.683   0.536  53.459  1.00  0.00     0.006 A 
HETATM   14  C12 UNL     1      19.834  -0.470  53.344  1.00  0.00     0.041 A 
HETATM   15 CL1  UNL     1      18.351  -0.661  52.405  1.00  0.00    -0.086 Cl
HETATM   16  C13 UNL     1      20.217  -1.632  54.157  1.00  0.00     0.200 A 
HETATM   17  N3  UNL     1      21.437  -1.199  54.799  1.00  0.00    -0.296 NA
HETATM   18  C14 UNL     1      21.661  -0.001  54.391  1.00  0.00     0.121 A 
ENDBRANCH  12  13
ENDBRANCH  10  12
ENDBRANCH   9  10
ENDBRANCH   6   9
BRANCH   1  19
HETATM   19  N1  UNL     1      27.092   1.202  52.299  1.00  0.00    -0.282 N 
HETATM   20  H8  UNL     1      27.601   0.412  51.827  1.00  0.00     0.178 HD
BRANCH  19  21
HETATM   21  S1  UNL     1      27.537   1.602  53.914  1.00  0.00     0.231 S 
HETATM   22  O1  UNL     1      26.266   1.981  54.629  1.00  0.00    -0.206 OA
HETATM   23  O2  UNL     1      28.551   2.708  53.927  1.00  0.00    -0.206 OA
BRANCH  21  24
HETATM   24  C3  UNL     1      28.262   0.185  54.702  1.00  0.00     0.163 C 
BRANCH  24  25
HETATM   25  C2  UNL     1      28.640  -0.833  53.643  1.00  0.00     0.012 C 
HETATM   26  C1  UNL     1      30.134  -1.069  53.655  1.00  0.00     0.006 C 
ENDBRANCH  24  25
ENDBRANCH  21  24
ENDBRANCH  19  21
ENDBRANCH   1  19
TORSDOF 8
ENDMDL
MODEL 5
REMARK VINA RESULT:      -6.9      2.170      2.511
REMARK  8 active torsions:
REMARK  status: ('A' for Active; 'I' for Inactive)
REMARK    1  A    between atoms: C2_2  and  C3_3 
REMARK    2  A    between atoms: C3_3  and  S1_4 
REMARK    3  A    between atoms: S1_4  and  N1_7 
REMARK    4  A    between atoms: N1_7  and  C4_8 
REMARK    5  A    between atoms: C8_13  and  C9_14 
REMARK    6  A    between atoms: C9_14  and  N2_15 
REMARK    7  A    between atoms: N2_15  and  C10_16 
REMARK    8  A    between atoms: C10_16  and  C11_17 
ROOT
HETATM    1  C4  UNL     1      24.891   0.260  52.886  1.00  0.00     0.081 A 
HETATM    2  C5  UNL     1      24.443  -0.551  53.906  1.00  0.00     0.036 A 
HETATM    3  C6  UNL     1      23.137  -0.779  54.272  1.00  0.00     0.045 A 
HETATM    4  C7  UNL     1      22.172  -0.107  53.513  1.00  0.00     0.127 A 
HETATM    5  F1  UNL     1      20.859  -0.310  53.847  1.00  0.00    -0.205 F 
HETATM    6  C8  UNL     1      22.544   0.720  52.478  1.00  0.00     0.049 A 
HETATM    7  C15 UNL     1      23.883   0.899  52.172  1.00  0.00     0.154 A 
HETATM    8  F2  UNL     1      24.232   1.717  51.149  1.00  0.00    -0.203 F 
ENDROOT
BRANCH   6   9
HETATM    9  C9  UNL     1      21.496   1.424  51.685  1.00  0.00     0.315 C 
BRANCH   9  10
HETATM   10  N2  UNL     1      21.082   2.566  52.471  1.00  0.00     0.092 N 
HETATM   11  H13 UNL     1      20.258   2.348  53.068  1.00  0.00     0.316 HD
BRANCH  10  12
HETATM   12  C10 UNL     1      20.845   3.743  51.698  1.00  0.00     0.311 C 
BRANCH  12  13
HETATM   13  C11 UNL     1      22.031   4.288  51.028  1.00  0.00     0.006 A 
HETATM   14  C12 UNL     1      23.153   4.704  51.587  1.00  0.00     0.041 A 
HETATM   15 CL1  UNL     1      23.676   4.778  53.272  1.00  0.00    -0.086 Cl
HETATM   16  C13 UNL     1      24.131   5.189  50.604  1.00  0.00     0.200 A 
HETATM   17  N3  UNL     1      23.448   5.013  49.343  1.00  0.00    -0.296 NA
HETATM   18  C14 UNL     1      22.294   4.515  49.617  1.00  0.00     0.121 A 
ENDBRANCH  12  13
ENDBRANCH  10  12
ENDBRANCH   9  10
ENDBRANCH   6   9
BRANCH   1  19
HETATM   19  N1  UNL     1      26.250   0.444  52.577  1.00  0.00    -0.282 N 
HETATM   20  H8  UNL     1      26.632  -0.071  51.743  1.00  0.00     0.178 HD
BRANCH  19  21
HETATM   21  S1  UNL     1      27.327   1.451  53.469  1.00  0.00     0.231 S 
HETATM   22  O1  UNL     1      26.467   2.351  54.319  1.00  0.00    -0.206 OA
HETATM   23  O2  UNL     1      28.221   2.223  52.544  1.00  0.00    -0.206 OA
BRANCH  21  24
HETATM   24  C3  UNL     1      28.353   0.449  54.515  1.00  0.00     0.163 C 
BRANCH  24  25
HETATM   25  C2  UNL     1      29.561  -0.018  53.725  1.00  0.00     0.012 C 
HETATM   26  C1  UNL     1      29.434  -1.489  53.397  1.00  0.00     0.006 C 
ENDBRANCH  24  25
ENDBRANCH  21  24
ENDBRANCH  19  21
ENDBRANCH   1  19
TORSDOF 8
ENDMDL
MODEL 6
REMARK VINA RESULT:      -6.9      2.519      3.509
REMARK  8 active torsions:
REMARK  status: ('A' for Active; 'I' for Inactive)
REMARK    1  A    between atoms: C2_2  and  C3_3 
REMARK    2  A    between atoms: C3_3  and  S1_4 
REMARK    3  A    between atoms: S1_4  and  N1_7 
REMARK    4  A    between atoms: N1_7  and  C4_8 
REMARK    5  A    between atoms: C8_13  and  C9_14 
REMARK    6  A    between atoms: C9_14  and  N2_15 
REMARK    7  A    between atoms: N2_15  and  C10_16 
REMARK    8  A    between atoms: C10_16  and  C11_17 
ROOT
HETATM    1  C4  UNL     1      25.343   1.915  52.844  1.00  0.00     0.081 A 
HETATM    2  C5  UNL     1      24.030   1.760  52.455  1.00  0.00     0.036 A 
HETATM    3  C6  UNL     1      23.476   2.109  51.245  1.00  0.00     0.045 A 
HETATM    4  C7  UNL     1      24.357   2.682  50.322  1.00  0.00     0.127 A 
HETATM    5  F1  UNL     1      23.842   3.043  49.105  1.00  0.00    -0.205 F 
HETATM    6  C8  UNL     1      25.683   2.870  50.639  1.00  0.00     0.049 A 
HETATM    7  C15 UNL     1      26.166   2.491  51.882  1.00  0.00     0.154 A 
HETATM    8  F2  UNL     1      27.474   2.683  52.178  1.00  0.00    -0.203 F 
ENDROOT
BRANCH   6   9
HETATM    9  C9  UNL     1      26.601   3.482  49.637  1.00  0.00     0.315 C 
BRANCH   9  10
HETATM   10  N2  UNL     1      26.631   4.902  49.919  1.00  0.00     0.092 N 
HETATM   11  H13 UNL     1      26.242   5.119  50.860  1.00  0.00     0.316 HD
BRANCH  10  12
HETATM   12  C10 UNL     1      26.002   5.702  48.918  1.00  0.00     0.311 C 
BRANCH  12  13
HETATM   13  C11 UNL     1      26.853   6.752  48.347  1.00  0.00     0.006 A 
HETATM   14  C12 UNL     1      28.126   6.664  48.009  1.00  0.00     0.041 A 
HETATM   15 CL1  UNL     1      29.279   5.329  48.091  1.00  0.00    -0.086 Cl
HETATM   16  C13 UNL     1      28.658   7.921  47.465  1.00  0.00     0.200 A 
HETATM   17  N3  UNL     1      27.522   8.811  47.516  1.00  0.00    -0.296 NA
HETATM   18  C14 UNL     1      26.546   8.132  48.008  1.00  0.00     0.121 A 
ENDBRANCH  12  13
ENDBRANCH  10  12
ENDBRANCH   9  10
ENDBRANCH   6   9
BRANCH   1  19
HETATM   19  N1  UNL     1      25.832   1.534  54.106  1.00  0.00    -0.282 N 
HETATM   20  H8  UNL     1      25.768   2.239  54.884  1.00  0.00     0.178 HD
BRANCH  19  21
HETATM   21  S1  UNL     1      26.527  -0.003  54.460  1.00  0.00     0.231 S 
HETATM   22  O1  UNL     1      26.379  -0.837  53.214  1.00  0.00    -0.206 OA
HETATM   23  O2  UNL     1      25.857  -0.627  55.649  1.00  0.00    -0.206 OA
BRANCH  21  24
HETATM   24  C3  UNL     1      28.249   0.195  54.843  1.00  0.00     0.163 C 
BRANCH  24  25
HETATM   25  C2  UNL     1      29.056   0.103  53.562  1.00  0.00     0.012 C 
HETATM   26  C1  UNL     1      30.019  -1.062  53.633  1.00  0.00     0.006 C 
ENDBRANCH  24  25
ENDBRANCH  21  24
ENDBRANCH  19  21
ENDBRANCH   1  19
TORSDOF 8
ENDMDL
MODEL 7
REMARK VINA RESULT:      -6.7      2.458      2.903
REMARK  8 active torsions:
REMARK  status: ('A' for Active; 'I' for Inactive)
REMARK    1  A    between atoms: C2_2  and  C3_3 
REMARK    2  A    between atoms: C3_3  and  S1_4 
REMARK    3  A    between atoms: S1_4  and  N1_7 
REMARK    4  A    between atoms: N1_7  and  C4_8 
REMARK    5  A    between atoms: C8_13  and  C9_14 
REMARK    6  A    between atoms: C9_14  and  N2_15 
REMARK    7  A    between atoms: N2_15  and  C10_16 
REMARK    8  A    between atoms: C10_16  and  C11_17 
ROOT
HETATM    1  C4  UNL     1      23.779  -0.258  53.249  1.00  0.00     0.081 A 
HETATM    2  C5  UNL     1      22.788  -0.729  54.082  1.00  0.00     0.036 A 
HETATM    3  C6  UNL     1      21.489  -0.283  54.162  1.00  0.00     0.045 A 
HETATM    4  C7  UNL     1      21.157   0.763  53.295  1.00  0.00     0.127 A 
HETATM    5  F1  UNL     1      19.872   1.234  53.345  1.00  0.00    -0.205 F 
HETATM    6  C8  UNL     1      22.094   1.286  52.433  1.00  0.00     0.049 A 
HETATM    7  C15 UNL     1      23.385   0.782  52.413  1.00  0.00     0.154 A 
HETATM    8  F2  UNL     1      24.295   1.308  51.558  1.00  0.00    -0.203 F 
ENDROOT
BRANCH   6   9
HETATM    9  C9  UNL     1      21.714   2.400  51.519  1.00  0.00     0.315 C 
BRANCH   9  10
HETATM   10  N2  UNL     1      22.203   3.619  52.127  1.00  0.00     0.092 N 
HETATM   11  H13 UNL     1      21.770   3.789  53.059  1.00  0.00     0.316 HD
BRANCH  10  12
HETATM   12  C10 UNL     1      22.074   4.772  51.295  1.00  0.00     0.311 C 
BRANCH  12  13
HETATM   13  C11 UNL     1      23.345   5.376  50.882  1.00  0.00     0.006 A 
HETATM   14  C12 UNL     1      24.247   4.874  50.058  1.00  0.00     0.041 A 
HETATM   15 CL1  UNL     1      24.307   3.356  49.157  1.00  0.00    -0.086 Cl
HETATM   16  C13 UNL     1      25.404   5.760  49.873  1.00  0.00     0.200 A 
HETATM   17  N3  UNL     1      25.088   6.895  50.708  1.00  0.00    -0.296 NA
HETATM   18  C14 UNL     1      23.947   6.647  51.248  1.00  0.00     0.121 A 
ENDBRANCH  12  13
ENDBRANCH  10  12
ENDBRANCH   9  10
ENDBRANCH   6   9
BRANCH   1  19
HETATM   19  N1  UNL     1      25.089  -0.768  53.230  1.00  0.00    -0.282 N 
HETATM   20  H8  UNL     1      25.300  -1.541  52.548  1.00  0.00     0.178 HD
BRANCH  19  21
HETATM   21  S1  UNL     1      26.367  -0.213  54.244  1.00  0.00     0.231 S 
HETATM   22  O1  UNL     1      27.620  -0.904  53.771  1.00  0.00    -0.206 OA
HETATM   23  O2  UNL     1      26.065  -0.502  55.685  1.00  0.00    -0.206 OA
BRANCH  21  24
HETATM   24  C3  UNL     1      26.553   1.543  54.064  1.00  0.00     0.163 C 
BRANCH  24  25
HETATM   25  C2  UNL     1      27.625   1.826  53.029  1.00  0.00     0.012 C 
HETATM   26  C1  UNL     1      28.833   2.456  53.688  1.00  0.00     0.006 C 
ENDBRANCH  24  25
ENDBRANCH  21  24
ENDBRANCH  19  21
ENDBRANCH   1  19
TORSDOF 8
ENDMDL
MODEL 8
REMARK VINA RESULT:      -6.7      4.105      6.726
REMARK  8 active torsions:
REMARK  status: ('A' for Active; 'I' for Inactive)
REMARK    1  A    between atoms: C2_2  and  C3_3 
REMARK    2  A    between atoms: C3_3  and  S1_4 
REMARK    3  A    between atoms: S1_4  and  N1_7 
REMARK    4  A    between atoms: N1_7  and  C4_8 
REMARK    5  A    between atoms: C8_13  and  C9_14 
REMARK    6  A    between atoms: C9_14  and  N2_15 
REMARK    7  A    between atoms: N2_15  and  C10_16 
REMARK    8  A    between atoms: C10_16  and  C11_17 
ROOT
HETATM    1  C4  UNL     1      23.318   3.859  51.286  1.00  0.00     0.081 A 
HETATM    2  C5  UNL     1      23.491   4.376  50.021  1.00  0.00     0.036 A 
HETATM    3  C6  UNL     1      24.619   4.296  49.238  1.00  0.00     0.045 A 
HETATM    4  C7  UNL     1      25.699   3.611  49.806  1.00  0.00     0.127 A 
HETATM    5  F1  UNL     1      26.841   3.510  49.057  1.00  0.00    -0.205 F 
HETATM    6  C8  UNL     1      25.601   3.068  51.067  1.00  0.00     0.049 A 
HETATM    7  C15 UNL     1      24.428   3.192  51.793  1.00  0.00     0.154 A 
HETATM    8  F2  UNL     1      24.349   2.651  53.033  1.00  0.00    -0.203 F 
ENDROOT
BRANCH   6   9
HETATM    9  C9  UNL     1      26.766   2.342  51.649  1.00  0.00     0.315 C 
BRANCH   9  10
HETATM   10  N2  UNL     1      26.548   0.935  51.388  1.00  0.00     0.092 N 
HETATM   11  H13 UNL     1      25.781   0.782  50.701  1.00  0.00     0.316 HD
BRANCH  10  12
HETATM   12  C10 UNL     1      26.331   0.157  52.565  1.00  0.00     0.311 C 
BRANCH  12  13
HETATM   13  C11 UNL     1      27.332  -0.888  52.804  1.00  0.00     0.006 A 
HETATM   14  C12 UNL     1      28.556  -0.739  53.278  1.00  0.00     0.041 A 
HETATM   15 CL1  UNL     1      29.456   0.689  53.796  1.00  0.00    -0.086 Cl
HETATM   16  C13 UNL     1      29.282  -2.012  53.385  1.00  0.00     0.200 A 
HETATM   17  N3  UNL     1      28.324  -2.981  52.905  1.00  0.00    -0.296 NA
HETATM   18  C14 UNL     1      27.263  -2.324  52.593  1.00  0.00     0.121 A 
ENDBRANCH  12  13
ENDBRANCH  10  12
ENDBRANCH   9  10
ENDBRANCH   6   9
BRANCH   1  19
HETATM   19  N1  UNL     1      22.128   3.987  52.024  1.00  0.00    -0.282 N 
HETATM   20  H8  UNL     1      22.126   4.666  52.827  1.00  0.00     0.178 HD
BRANCH  19  21
HETATM   21  S1  UNL     1      20.681   3.109  51.704  1.00  0.00     0.231 S 
HETATM   22  O1  UNL     1      20.732   2.715  50.250  1.00  0.00    -0.206 OA
HETATM   23  O2  UNL     1      19.474   3.938  52.028  1.00  0.00    -0.206 OA
BRANCH  21  24
HETATM   24  C3  UNL     1      20.631   1.650  52.714  1.00  0.00     0.163 C 
BRANCH  24  25
HETATM   25  C2  UNL     1      21.431   0.552  52.040  1.00  0.00     0.012 C 
HETATM   26  C1  UNL     1      22.367  -0.098  53.034  1.00  0.00     0.006 C 
ENDBRANCH  24  25
ENDBRANCH  21  24
ENDBRANCH  19  21
ENDBRANCH   1  19
TORSDOF 8
ENDMDL
MODEL 9
REMARK VINA RESULT:      -6.7      4.688      7.438
REMARK  8 active torsions:
REMARK  status: ('A' for Active; 'I' for Inactive)
REMARK    1  A    between atoms: C2_2  and  C3_3 
REMARK    2  A    between atoms: C3_3  and  S1_4 
REMARK    3  A    between atoms: S1_4  and  N1_7 
REMARK    4  A    between atoms: N1_7  and  C4_8 
REMARK    5  A    between atoms: C8_13  and  C9_14 
REMARK    6  A    between atoms: C9_14  and  N2_15 
REMARK    7  A    between atoms: N2_15  and  C10_16 
REMARK    8  A    between atoms: C10_16  and  C11_17 
ROOT
HETATM    1  C4  UNL     1      27.513   6.596  48.204  1.00  0.00     0.081 A 
HETATM    2  C5  UNL     1      26.381   7.286  48.579  1.00  0.00     0.036 A 
HETATM    3  C6  UNL     1      25.296   6.793  49.265  1.00  0.00     0.045 A 
HETATM    4  C7  UNL     1      25.368   5.439  49.611  1.00  0.00     0.127 A 
HETATM    5  F1  UNL     1      24.305   4.910  50.296  1.00  0.00    -0.205 F 
HETATM    6  C8  UNL     1      26.466   4.684  49.271  1.00  0.00     0.049 A 
HETATM    7  C15 UNL     1      27.521   5.255  48.577  1.00  0.00     0.154 A 
HETATM    8  F2  UNL     1      28.595   4.497  48.250  1.00  0.00    -0.203 F 
ENDROOT
BRANCH   6   9
HETATM    9  C9  UNL     1      26.518   3.243  49.653  1.00  0.00     0.315 C 
BRANCH   9  10
HETATM   10  N2  UNL     1      26.885   3.201  51.052  1.00  0.00     0.092 N 
HETATM   11  H13 UNL     1      27.870   3.504  51.204  1.00  0.00     0.316 HD
BRANCH  10  12
HETATM   12  C10 UNL     1      26.646   1.938  51.673  1.00  0.00     0.311 C 
BRANCH  12  13
HETATM   13  C11 UNL     1      27.574   1.602  52.758  1.00  0.00     0.006 A 
HETATM   14  C12 UNL     1      27.839   0.406  53.252  1.00  0.00     0.041 A 
HETATM   15 CL1  UNL     1      27.230  -1.201  52.843  1.00  0.00    -0.086 Cl
HETATM   16  C13 UNL     1      28.826   0.446  54.340  1.00  0.00     0.200 A 
HETATM   17  N3  UNL     1      29.137   1.852  54.452  1.00  0.00    -0.296 NA
HETATM   18  C14 UNL     1      28.428   2.457  53.566  1.00  0.00     0.121 A 
ENDBRANCH  12  13
ENDBRANCH  10  12
ENDBRANCH   9  10
ENDBRANCH   6   9
BRANCH   1  19
HETATM   19  N1  UNL     1      28.582   7.175  47.498  1.00  0.00    -0.282 N 
HETATM   20  H8  UNL     1      28.557   7.118  46.448  1.00  0.00     0.178 HD
BRANCH  19  21
HETATM   21  S1  UNL     1      29.923   7.966  48.234  1.00  0.00     0.231 S 
HETATM   22  O1  UNL     1      29.362   8.821  49.341  1.00  0.00    -0.206 OA
HETATM   23  O2  UNL     1      30.686   8.770  47.223  1.00  0.00    -0.206 OA
BRANCH  21  24
HETATM   24  C3  UNL     1      31.028   6.757  48.920  1.00  0.00     0.163 C 
BRANCH  24  25
HETATM   25  C2  UNL     1      32.222   6.596  47.998  1.00  0.00     0.012 C 
HETATM   26  C1  UNL     1      33.312   5.808  48.690  1.00  0.00     0.006 C 
ENDBRANCH  24  25
ENDBRANCH  21  24
ENDBRANCH  19  21
ENDBRANCH   1  19
TORSDOF 8
ENDMDL
