MODEL 1
REMARK VINA RESULT:      -7.9      0.000      0.000
REMARK  9 active torsions:
REMARK  status: ('A' for Active; 'I' for Inactive)
REMARK    1  A    between atoms: N1_2  and  C2_3 
REMARK    2  A    between atoms: N3_6  and  C4_7 
REMARK    3  A    between atoms: C4_7  and  N4_8 
REMARK    4  A    between atoms: N4_8  and  C5_9 
REMARK    5  A    between atoms: C6_10  and  C7_11 
REMARK    6  A    between atoms: N5_15  and  N6_16 
REMARK    7  A    between atoms: N7_17  and  C11_18 
REMARK    8  A    between atoms: C11_18  and  C12_19 
REMARK    9  A    between atoms: C15_22  and  O1_23 
ROOT
HETATM    1  C2  UNL     1      23.420   4.310  51.896  1.00  0.00     0.755 A 
HETATM    2  N2  UNL     1      22.327   3.643  51.716  1.00  0.00     0.133 NA
HETATM    3  C3  UNL     1      22.962   2.401  51.434  1.00  0.00     0.778 A 
HETATM    4  N3  UNL     1      22.842   1.133  51.130  1.00  0.00    -0.083 NA
HETATM    5  N5  UNL     1      24.190   3.130  51.632  1.00  0.00     0.138 N 
ENDROOT
BRANCH   5   6
HETATM    6  N6  UNL     1      25.574   2.922  51.610  1.00  0.00    -0.035 NA
HETATM    7  N7  UNL     1      26.076   2.325  52.616  1.00  0.00    -0.169 NA
BRANCH   7   8
HETATM    8  C11 UNL     1      27.482   2.045  52.729  1.00  0.00     0.214 C 
BRANCH   8   9
HETATM    9  C12 UNL     1      27.743   0.589  52.867  1.00  0.00    -0.036 A 
HETATM   10  C13 UNL     1      28.930   0.089  53.363  1.00  0.00     0.012 A 
HETATM   11  C14 UNL     1      29.184  -1.260  53.496  1.00  0.00     0.037 A 
HETATM   12  C15 UNL     1      28.222  -2.174  53.124  1.00  0.00     0.065 A 
HETATM   13  C16 UNL     1      27.036  -1.678  52.629  1.00  0.00     0.037 A 
HETATM   14  C17 UNL     1      26.783  -0.328  52.496  1.00  0.00     0.012 A 
BRANCH  12  15
HETATM   15  O1  UNL     1      28.445  -3.540  53.246  1.00  0.00    -0.361 OA
HETATM   16  H17 UNL     1      29.292  -3.943  52.878  1.00  0.00     0.217 HD
ENDBRANCH  12  15
ENDBRANCH   8   9
ENDBRANCH   7   8
ENDBRANCH   5   6
BRANCH   1  17
HETATM   17  N1  UNL     1      23.660   5.683  52.228  1.00  0.00    -0.226 N 
HETATM   18  C1  UNL     1      24.309   6.600  51.310  1.00  0.00     0.165 C 
HETATM   19  H4  UNL     1      23.335   5.983  53.179  1.00  0.00     0.177 HD
ENDBRANCH   1  17
BRANCH   4  20
HETATM   20  C4  UNL     1      21.489   0.635  50.984  1.00  0.00     0.290 C 
BRANCH  20  21
HETATM   21  N4  UNL     1      20.574   1.185  51.958  1.00  0.00    -0.381 N 
HETATM   22  H7  UNL     1      20.827   2.107  52.375  1.00  0.00     0.160 HD
BRANCH  21  23
HETATM   23  C5  UNL     1      19.441   0.359  52.202  1.00  0.00     0.085 C 
HETATM   24  C6  UNL     1      19.536  -0.547  53.165  1.00  0.00     0.028 C 
BRANCH  24  25
HETATM   25  C7  UNL     1      20.734  -0.736  53.977  1.00  0.00    -0.035 A 
HETATM   26  C8  UNL     1      21.428  -0.136  54.959  1.00  0.00     0.011 A 
HETATM   27  C9  UNL     1      22.434  -1.193  54.990  1.00  0.00     0.002 A 
HETATM   28  C10 UNL     1      21.762  -1.783  54.032  1.00  0.00     0.011 A 
ENDBRANCH  24  25
ENDBRANCH  21  23
ENDBRANCH  20  21
ENDBRANCH   4  20
TORSDOF 9
ENDMDL
MODEL 2
REMARK VINA RESULT:      -7.5      1.414      2.001
REMARK  9 active torsions:
REMARK  status: ('A' for Active; 'I' for Inactive)
REMARK    1  A    between atoms: N1_2  and  C2_3 
REMARK    2  A    between atoms: N3_6  and  C4_7 
REMARK    3  A    between atoms: C4_7  and  N4_8 
REMARK    4  A    between atoms: N4_8  and  C5_9 
REMARK    5  A    between atoms: C6_10  and  C7_11 
REMARK    6  A    between atoms: N5_15  and  N6_16 
REMARK    7  A    between atoms: N7_17  and  C11_18 
REMARK    8  A    between atoms: C11_18  and  C12_19 
REMARK    9  A    between atoms: C15_22  and  O1_23 
ROOT
HETATM    1  C2  UNL     1      24.688   3.336  50.202  1.00  0.00     0.755 A 
HETATM    2  N2  UNL     1      23.407   3.500  50.137  1.00  0.00     0.133 NA
HETATM    3  C3  UNL     1      23.163   3.274  51.520  1.00  0.00     0.778 A 
HETATM    4  N3  UNL     1      22.298   3.194  52.500  1.00  0.00    -0.083 NA
HETATM    5  N5  UNL     1      24.590   3.088  51.611  1.00  0.00     0.138 N 
ENDROOT
BRANCH   5   6
HETATM    6  N6  UNL     1      25.573   2.796  52.562  1.00  0.00    -0.035 NA
HETATM    7  N7  UNL     1      26.651   2.277  52.128  1.00  0.00    -0.169 NA
BRANCH   7   8
HETATM    8  C11 UNL     1      27.745   1.925  52.991  1.00  0.00     0.214 C 
BRANCH   8   9
HETATM    9  C12 UNL     1      27.968   0.456  53.025  1.00  0.00    -0.036 A 
HETATM   10  C13 UNL     1      27.008  -0.452  52.627  1.00  0.00     0.012 A 
HETATM   11  C14 UNL     1      27.203  -1.817  52.654  1.00  0.00     0.037 A 
HETATM   12  C15 UNL     1      28.406  -2.325  53.094  1.00  0.00     0.065 A 
HETATM   13  C16 UNL     1      29.367  -1.421  53.492  1.00  0.00     0.037 A 
HETATM   14  C17 UNL     1      29.170  -0.055  53.465  1.00  0.00     0.012 A 
BRANCH  12  15
HETATM   15  O1  UNL     1      28.636  -3.695  53.134  1.00  0.00    -0.361 OA
HETATM   16  H17 UNL     1      28.266  -4.285  52.406  1.00  0.00     0.217 HD
ENDBRANCH  12  15
ENDBRANCH   8   9
ENDBRANCH   7   8
ENDBRANCH   5   6
BRANCH   1  17
HETATM   17  N1  UNL     1      25.714   3.400  49.203  1.00  0.00    -0.226 N 
HETATM   18  C1  UNL     1      26.774   4.389  49.242  1.00  0.00     0.165 C 
HETATM   19  H4  UNL     1      25.649   2.682  48.441  1.00  0.00     0.177 HD
ENDBRANCH   1  17
BRANCH   4  20
HETATM   20  C4  UNL     1      20.910   3.424  52.148  1.00  0.00     0.290 C 
BRANCH  20  21
HETATM   21  N4  UNL     1      20.031   2.362  52.584  1.00  0.00    -0.381 N 
HETATM   22  H7  UNL     1      19.699   2.402  53.572  1.00  0.00     0.160 HD
BRANCH  21  23
HETATM   23  C5  UNL     1      19.751   1.406  51.569  1.00  0.00     0.085 C 
HETATM   24  C6  UNL     1      20.308   0.208  51.681  1.00  0.00     0.028 C 
BRANCH  24  25
HETATM   25  C7  UNL     1      21.186  -0.171  52.784  1.00  0.00    -0.035 A 
HETATM   26  C8  UNL     1      22.491  -0.232  53.098  1.00  0.00     0.011 A 
HETATM   27  C9  UNL     1      22.216  -0.753  54.433  1.00  0.00     0.002 A 
HETATM   28  C10 UNL     1      20.943  -0.697  54.133  1.00  0.00     0.011 A 
ENDBRANCH  24  25
ENDBRANCH  21  23
ENDBRANCH  20  21
ENDBRANCH   4  20
TORSDOF 9
ENDMDL
MODEL 3
REMARK VINA RESULT:      -7.4      2.939      6.958
REMARK  9 active torsions:
REMARK  status: ('A' for Active; 'I' for Inactive)
REMARK    1  A    between atoms: N1_2  and  C2_3 
REMARK    2  A    between atoms: N3_6  and  C4_7 
REMARK    3  A    between atoms: C4_7  and  N4_8 
REMARK    4  A    between atoms: N4_8  and  C5_9 
REMARK    5  A    between atoms: C6_10  and  C7_11 
REMARK    6  A    between atoms: N5_15  and  N6_16 
REMARK    7  A    between atoms: N7_17  and  C11_18 
REMARK    8  A    between atoms: C11_18  and  C12_19 
REMARK    9  A    between atoms: C15_22  and  O1_23 
ROOT
HETATM    1  C2  UNL     1      20.825  -1.232  54.069  1.00  0.00     0.755 A 
HETATM    2  N2  UNL     1      21.723  -1.461  54.972  1.00  0.00     0.133 NA
HETATM    3  C3  UNL     1      22.811  -0.923  54.231  1.00  0.00     0.778 A 
HETATM    4  N3  UNL     1      24.092  -0.651  54.170  1.00  0.00    -0.083 NA
HETATM    5  N5  UNL     1      21.824  -0.661  53.214  1.00  0.00     0.138 N 
ENDROOT
BRANCH   5   6
HETATM    6  N6  UNL     1      21.728  -0.110  51.932  1.00  0.00    -0.035 NA
HETATM    7  N7  UNL     1      22.143   1.086  51.792  1.00  0.00    -0.169 NA
BRANCH   7   8
HETATM    8  C11 UNL     1      22.104   1.778  50.532  1.00  0.00     0.214 C 
BRANCH   8   9
HETATM    9  C12 UNL     1      23.049   2.924  50.506  1.00  0.00    -0.036 A 
HETATM   10  C13 UNL     1      23.038   3.920  51.461  1.00  0.00     0.012 A 
HETATM   11  C14 UNL     1      23.909   4.989  51.447  1.00  0.00     0.037 A 
HETATM   12  C15 UNL     1      24.847   5.091  50.443  1.00  0.00     0.065 A 
HETATM   13  C16 UNL     1      24.861   4.098  49.487  1.00  0.00     0.037 A 
HETATM   14  C17 UNL     1      23.988   3.029  49.502  1.00  0.00     0.012 A 
BRANCH  12  15
HETATM   15  O1  UNL     1      25.740   6.154  50.399  1.00  0.00    -0.361 OA
HETATM   16  H17 UNL     1      26.666   6.014  50.027  1.00  0.00     0.217 HD
ENDBRANCH  12  15
ENDBRANCH   8   9
ENDBRANCH   7   8
ENDBRANCH   5   6
BRANCH   1  17
HETATM   17  N1  UNL     1      19.416  -1.487  54.034  1.00  0.00    -0.226 N 
HETATM   18  C1  UNL     1      18.541  -0.871  53.055  1.00  0.00     0.165 C 
HETATM   19  H4  UNL     1      19.057  -2.150  54.764  1.00  0.00     0.177 HD
ENDBRANCH   1  17
BRANCH   4  20
HETATM   20  C4  UNL     1      24.878  -1.016  55.332  1.00  0.00     0.290 C 
BRANCH  20  21
HETATM   21  N4  UNL     1      26.181  -0.390  55.354  1.00  0.00    -0.381 N 
HETATM   22  H7  UNL     1      26.893  -0.806  55.992  1.00  0.00     0.160 HD
BRANCH  21  23
HETATM   23  C5  UNL     1      26.288   0.727  54.479  1.00  0.00     0.085 C 
HETATM   24  C6  UNL     1      27.264   0.714  53.582  1.00  0.00     0.028 C 
BRANCH  24  25
HETATM   25  C7  UNL     1      28.223  -0.378  53.452  1.00  0.00    -0.035 A 
HETATM   26  C8  UNL     1      28.307  -1.639  52.994  1.00  0.00     0.011 A 
HETATM   27  C9  UNL     1      29.710  -1.758  53.373  1.00  0.00     0.002 A 
HETATM   28  C10 UNL     1      29.636  -0.530  53.823  1.00  0.00     0.011 A 
ENDBRANCH  24  25
ENDBRANCH  21  23
ENDBRANCH  20  21
ENDBRANCH   4  20
TORSDOF 9
ENDMDL
MODEL 4
REMARK VINA RESULT:      -7.4      1.866      4.373
REMARK  9 active torsions:
REMARK  status: ('A' for Active; 'I' for Inactive)
REMARK    1  A    between atoms: N1_2  and  C2_3 
REMARK    2  A    between atoms: N3_6  and  C4_7 
REMARK    3  A    between atoms: C4_7  and  N4_8 
REMARK    4  A    between atoms: N4_8  and  C5_9 
REMARK    5  A    between atoms: C6_10  and  C7_11 
REMARK    6  A    between atoms: N5_15  and  N6_16 
REMARK    7  A    between atoms: N7_17  and  C11_18 
REMARK    8  A    between atoms: C11_18  and  C12_19 
REMARK    9  A    between atoms: C15_22  and  O1_23 
ROOT
HETATM    1  C2  UNL     1      22.657   1.760  52.725  1.00  0.00     0.755 A 
HETATM    2  N2  UNL     1      21.866   2.664  52.245  1.00  0.00     0.133 NA
HETATM    3  C3  UNL     1      22.827   3.713  52.251  1.00  0.00     0.778 A 
HETATM    4  N3  UNL     1      23.108   4.968  51.999  1.00  0.00    -0.083 NA
HETATM    5  N5  UNL     1      23.722   2.718  52.786  1.00  0.00     0.138 N 
ENDROOT
BRANCH   5   6
HETATM    6  N6  UNL     1      25.047   2.591  53.217  1.00  0.00    -0.035 NA
HETATM    7  N7  UNL     1      25.891   2.184  52.355  1.00  0.00    -0.169 NA
BRANCH   7   8
HETATM    8  C11 UNL     1      27.285   2.007  52.658  1.00  0.00     0.214 C 
BRANCH   8   9
HETATM    9  C12 UNL     1      27.633   0.572  52.826  1.00  0.00    -0.036 A 
HETATM   10  C13 UNL     1      28.809   0.155  53.414  1.00  0.00     0.012 A 
HETATM   11  C14 UNL     1      29.143  -1.174  53.575  1.00  0.00     0.037 A 
HETATM   12  C15 UNL     1      28.277  -2.151  53.137  1.00  0.00     0.065 A 
HETATM   13  C16 UNL     1      27.101  -1.739  52.549  1.00  0.00     0.037 A 
HETATM   14  C17 UNL     1      26.768  -0.409  52.388  1.00  0.00     0.012 A 
BRANCH  12  15
HETATM   15  O1  UNL     1      28.581  -3.499  53.284  1.00  0.00    -0.361 OA
HETATM   16  H17 UNL     1      29.334  -3.778  53.894  1.00  0.00     0.217 HD
ENDBRANCH  12  15
ENDBRANCH   8   9
ENDBRANCH   7   8
ENDBRANCH   5   6
BRANCH   1  17
HETATM   17  N1  UNL     1      22.454   0.377  53.035  1.00  0.00    -0.226 N 
HETATM   18  C1  UNL     1      23.442  -0.412  53.745  1.00  0.00     0.165 C 
HETATM   19  H4  UNL     1      21.541  -0.030  52.715  1.00  0.00     0.177 HD
ENDBRANCH   1  17
BRANCH   4  20
HETATM   20  C4  UNL     1      22.027   5.770  51.461  1.00  0.00     0.290 C 
BRANCH  20  21
HETATM   21  N4  UNL     1      21.561   5.303  50.175  1.00  0.00    -0.381 N 
HETATM   22  H7  UNL     1      20.682   4.741  50.167  1.00  0.00     0.160 HD
BRANCH  21  23
HETATM   23  C5  UNL     1      22.397   5.696  49.092  1.00  0.00     0.085 C 
HETATM   24  C6  UNL     1      22.795   4.754  48.249  1.00  0.00     0.028 C 
BRANCH  24  25
HETATM   25  C7  UNL     1      22.421   3.349  48.377  1.00  0.00    -0.035 A 
HETATM   26  C8  UNL     1      22.853   2.206  48.938  1.00  0.00     0.011 A 
HETATM   27  C9  UNL     1      21.718   1.445  48.427  1.00  0.00     0.002 A 
HETATM   28  C10 UNL     1      21.292   2.555  47.877  1.00  0.00     0.011 A 
ENDBRANCH  24  25
ENDBRANCH  21  23
ENDBRANCH  20  21
ENDBRANCH   4  20
TORSDOF 9
ENDMDL
MODEL 5
REMARK VINA RESULT:      -7.1      1.603      1.944
REMARK  9 active torsions:
REMARK  status: ('A' for Active; 'I' for Inactive)
REMARK    1  A    between atoms: N1_2  and  C2_3 
REMARK    2  A    between atoms: N3_6  and  C4_7 
REMARK    3  A    between atoms: C4_7  and  N4_8 
REMARK    4  A    between atoms: N4_8  and  C5_9 
REMARK    5  A    between atoms: C6_10  and  C7_11 
REMARK    6  A    between atoms: N5_15  and  N6_16 
REMARK    7  A    between atoms: N7_17  and  C11_18 
REMARK    8  A    between atoms: C11_18  and  C12_19 
REMARK    9  A    between atoms: C15_22  and  O1_23 
ROOT
HETATM    1  C2  UNL     1      21.971   5.062  51.179  1.00  0.00     0.755 A 
HETATM    2  N2  UNL     1      20.985   4.229  51.105  1.00  0.00     0.133 NA
HETATM    3  C3  UNL     1      21.767   3.116  50.688  1.00  0.00     0.778 A 
HETATM    4  N3  UNL     1      21.813   1.854  50.342  1.00  0.00    -0.083 NA
HETATM    5  N5  UNL     1      22.879   4.032  50.765  1.00  0.00     0.138 N 
ENDROOT
BRANCH   5   6
HETATM    6  N6  UNL     1      24.263   4.055  50.562  1.00  0.00    -0.035 NA
HETATM    7  N7  UNL     1      24.929   3.095  51.067  1.00  0.00    -0.169 NA
BRANCH   7   8
HETATM    8  C11 UNL     1      26.358   2.991  50.938  1.00  0.00     0.214 C 
BRANCH   8   9
HETATM    9  C12 UNL     1      26.917   1.952  51.841  1.00  0.00    -0.036 A 
HETATM   10  C13 UNL     1      27.765   2.254  52.887  1.00  0.00     0.012 A 
HETATM   11  C14 UNL     1      28.290   1.299  53.732  1.00  0.00     0.037 A 
HETATM   12  C15 UNL     1      27.968  -0.028  53.545  1.00  0.00     0.065 A 
HETATM   13  C16 UNL     1      27.121  -0.333  52.502  1.00  0.00     0.037 A 
HETATM   14  C17 UNL     1      26.596   0.624  51.656  1.00  0.00     0.012 A 
BRANCH  12  15
HETATM   15  O1  UNL     1      28.479  -1.015  54.378  1.00  0.00    -0.361 OA
HETATM   16  H17 UNL     1      28.148  -1.963  54.292  1.00  0.00     0.217 HD
ENDBRANCH  12  15
ENDBRANCH   8   9
ENDBRANCH   7   8
ENDBRANCH   5   6
BRANCH   1  17
HETATM   17  N1  UNL     1      22.030   6.446  51.542  1.00  0.00    -0.226 N 
HETATM   18  C1  UNL     1      21.481   7.493  50.701  1.00  0.00     0.165 C 
HETATM   19  H4  UNL     1      22.497   6.655  52.458  1.00  0.00     0.177 HD
ENDBRANCH   1  17
BRANCH   4  20
HETATM   20  C4  UNL     1      20.549   1.144  50.343  1.00  0.00     0.290 C 
BRANCH  20  21
HETATM   21  N4  UNL     1      20.450   0.163  51.400  1.00  0.00    -0.381 N 
HETATM   22  H7  UNL     1      20.806  -0.795  51.188  1.00  0.00     0.160 HD
BRANCH  21  23
HETATM   23  C5  UNL     1      19.867   0.673  52.593  1.00  0.00     0.085 C 
HETATM   24  C6  UNL     1      20.622   0.703  53.682  1.00  0.00     0.028 C 
BRANCH  24  25
HETATM   25  C7  UNL     1      22.006   0.241  53.715  1.00  0.00    -0.035 A 
HETATM   26  C8  UNL     1      23.226   0.581  53.264  1.00  0.00     0.011 A 
HETATM   27  C9  UNL     1      23.856  -0.578  53.887  1.00  0.00     0.002 A 
HETATM   28  C10 UNL     1      22.670  -0.916  54.329  1.00  0.00     0.011 A 
ENDBRANCH  24  25
ENDBRANCH  21  23
ENDBRANCH  20  21
ENDBRANCH   4  20
TORSDOF 9
ENDMDL
MODEL 6
REMARK VINA RESULT:      -7.1      1.414      2.797
REMARK  9 active torsions:
REMARK  status: ('A' for Active; 'I' for Inactive)
REMARK    1  A    between atoms: N1_2  and  C2_3 
REMARK    2  A    between atoms: N3_6  and  C4_7 
REMARK    3  A    between atoms: C4_7  and  N4_8 
REMARK    4  A    between atoms: N4_8  and  C5_9 
REMARK    5  A    between atoms: C6_10  and  C7_11 
REMARK    6  A    between atoms: N5_15  and  N6_16 
REMARK    7  A    between atoms: N7_17  and  C11_18 
REMARK    8  A    between atoms: C11_18  and  C12_19 
REMARK    9  A    between atoms: C15_22  and  O1_23 
ROOT
HETATM    1  C2  UNL     1      22.995   3.899  51.973  1.00  0.00     0.755 A 
HETATM    2  N2  UNL     1      21.930   3.165  51.987  1.00  0.00     0.133 NA
HETATM    3  C3  UNL     1      22.526   2.061  52.658  1.00  0.00     0.778 A 
HETATM    4  N3  UNL     1      22.394   0.857  53.157  1.00  0.00    -0.083 NA
HETATM    5  N5  UNL     1      23.722   2.867  52.652  1.00  0.00     0.138 N 
ENDROOT
BRANCH   5   6
HETATM    6  N6  UNL     1      25.055   2.807  53.073  1.00  0.00    -0.035 NA
HETATM    7  N7  UNL     1      25.845   2.099  52.370  1.00  0.00    -0.169 NA
BRANCH   7   8
HETATM    8  C11 UNL     1      27.239   1.947  52.686  1.00  0.00     0.214 C 
BRANCH   8   9
HETATM    9  C12 UNL     1      27.613   0.519  52.850  1.00  0.00    -0.036 A 
HETATM   10  C13 UNL     1      28.822   0.122  53.385  1.00  0.00     0.012 A 
HETATM   11  C14 UNL     1      29.180  -1.200  53.543  1.00  0.00     0.037 A 
HETATM   12  C15 UNL     1      28.307  -2.193  53.156  1.00  0.00     0.065 A 
HETATM   13  C16 UNL     1      27.099  -1.801  52.622  1.00  0.00     0.037 A 
HETATM   14  C17 UNL     1      26.741  -0.477  52.465  1.00  0.00     0.012 A 
BRANCH  12  15
HETATM   15  O1  UNL     1      28.636  -3.535  53.301  1.00  0.00    -0.361 OA
HETATM   16  H17 UNL     1      28.009  -4.153  53.793  1.00  0.00     0.217 HD
ENDBRANCH  12  15
ENDBRANCH   8   9
ENDBRANCH   7   8
ENDBRANCH   5   6
BRANCH   1  17
HETATM   17  N1  UNL     1      23.246   5.213  51.460  1.00  0.00    -0.226 N 
HETATM   18  C1  UNL     1      24.487   5.563  50.797  1.00  0.00     0.165 C 
HETATM   19  H4  UNL     1      22.471   5.908  51.594  1.00  0.00     0.177 HD
ENDBRANCH   1  17
BRANCH   4  20
HETATM   20  C4  UNL     1      21.080   0.256  53.036  1.00  0.00     0.290 C 
BRANCH  20  21
HETATM   21  N4  UNL     1      20.708  -0.023  51.668  1.00  0.00    -0.381 N 
HETATM   22  H7  UNL     1      21.434  -0.463  51.062  1.00  0.00     0.160 HD
BRANCH  21  23
HETATM   23  C5  UNL     1      19.372   0.355  51.355  1.00  0.00     0.085 C 
HETATM   24  C6  UNL     1      19.177   1.071  50.257  1.00  0.00     0.028 C 
BRANCH  24  25
HETATM   25  C7  UNL     1      20.254   1.485  49.363  1.00  0.00    -0.035 A 
HETATM   26  C8  UNL     1      20.617   2.516  48.582  1.00  0.00     0.011 A 
HETATM   27  C9  UNL     1      21.852   1.859  48.167  1.00  0.00     0.002 A 
HETATM   28  C10 UNL     1      21.504   0.849  48.926  1.00  0.00     0.011 A 
ENDBRANCH  24  25
ENDBRANCH  21  23
ENDBRANCH  20  21
ENDBRANCH   4  20
TORSDOF 9
ENDMDL
MODEL 7
REMARK VINA RESULT:      -7.0      1.824      5.767
REMARK  9 active torsions:
REMARK  status: ('A' for Active; 'I' for Inactive)
REMARK    1  A    between atoms: N1_2  and  C2_3 
REMARK    2  A    between atoms: N3_6  and  C4_7 
REMARK    3  A    between atoms: C4_7  and  N4_8 
REMARK    4  A    between atoms: N4_8  and  C5_9 
REMARK    5  A    between atoms: C6_10  and  C7_11 
REMARK    6  A    between atoms: N5_15  and  N6_16 
REMARK    7  A    between atoms: N7_17  and  C11_18 
REMARK    8  A    between atoms: C11_18  and  C12_19 
REMARK    9  A    between atoms: C15_22  and  O1_23 
ROOT
HETATM    1  C2  UNL     1      22.562   1.614  52.786  1.00  0.00     0.755 A 
HETATM    2  N2  UNL     1      21.771   2.505  52.283  1.00  0.00     0.133 NA
HETATM    3  C3  UNL     1      22.737   3.548  52.243  1.00  0.00     0.778 A 
HETATM    4  N3  UNL     1      23.022   4.791  51.945  1.00  0.00    -0.083 NA
HETATM    5  N5  UNL     1      23.633   2.567  52.804  1.00  0.00     0.138 N 
ENDROOT
BRANCH   5   6
HETATM    6  N6  UNL     1      24.961   2.448  53.225  1.00  0.00    -0.035 NA
HETATM    7  N7  UNL     1      25.813   2.114  52.340  1.00  0.00    -0.169 NA
BRANCH   7   8
HETATM    8  C11 UNL     1      27.212   1.954  52.631  1.00  0.00     0.214 C 
BRANCH   8   9
HETATM    9  C12 UNL     1      27.576   0.525  52.807  1.00  0.00    -0.036 A 
HETATM   10  C13 UNL     1      26.746  -0.509  52.421  1.00  0.00     0.012 A 
HETATM   11  C14 UNL     1      27.073  -1.839  52.579  1.00  0.00     0.037 A 
HETATM   12  C15 UNL     1      28.282  -2.180  53.146  1.00  0.00     0.065 A 
HETATM   13  C16 UNL     1      29.114  -1.152  53.531  1.00  0.00     0.037 A 
HETATM   14  C17 UNL     1      28.785   0.180  53.373  1.00  0.00     0.012 A 
BRANCH  12  15
HETATM   15  O1  UNL     1      28.644  -3.511  53.319  1.00  0.00    -0.361 OA
HETATM   16  H17 UNL     1      28.649  -4.135  52.527  1.00  0.00     0.217 HD
ENDBRANCH  12  15
ENDBRANCH   8   9
ENDBRANCH   7   8
ENDBRANCH   5   6
BRANCH   1  17
HETATM   17  N1  UNL     1      22.354   0.243  53.146  1.00  0.00    -0.226 N 
HETATM   18  C1  UNL     1      21.501  -0.148  54.252  1.00  0.00     0.165 C 
HETATM   19  H4  UNL     1      22.860  -0.462  52.555  1.00  0.00     0.177 HD
ENDBRANCH   1  17
BRANCH   4  20
HETATM   20  C4  UNL     1      21.940   5.580  51.390  1.00  0.00     0.290 C 
BRANCH  20  21
HETATM   21  N4  UNL     1      22.236   6.994  51.340  1.00  0.00    -0.381 N 
HETATM   22  H7  UNL     1      22.995   7.339  51.967  1.00  0.00     0.160 HD
BRANCH  21  23
HETATM   23  C5  UNL     1      21.423   7.711  50.418  1.00  0.00     0.085 C 
HETATM   24  C6  UNL     1      21.960   8.043  49.253  1.00  0.00     0.028 C 
BRANCH  24  25
HETATM   25  C7  UNL     1      23.331   7.713  48.875  1.00  0.00    -0.035 A 
HETATM   26  C8  UNL     1      24.028   6.777  48.209  1.00  0.00     0.011 A 
HETATM   27  C9  UNL     1      25.300   7.444  48.462  1.00  0.00     0.002 A 
HETATM   28  C10 UNL     1      24.627   8.360  49.114  1.00  0.00     0.011 A 
ENDBRANCH  24  25
ENDBRANCH  21  23
ENDBRANCH  20  21
ENDBRANCH   4  20
TORSDOF 9
ENDMDL
MODEL 8
REMARK VINA RESULT:      -6.9      1.334      2.558
REMARK  9 active torsions:
REMARK  status: ('A' for Active; 'I' for Inactive)
REMARK    1  A    between atoms: N1_2  and  C2_3 
REMARK    2  A    between atoms: N3_6  and  C4_7 
REMARK    3  A    between atoms: C4_7  and  N4_8 
REMARK    4  A    between atoms: N4_8  and  C5_9 
REMARK    5  A    between atoms: C6_10  and  C7_11 
REMARK    6  A    between atoms: N5_15  and  N6_16 
REMARK    7  A    between atoms: N7_17  and  C11_18 
REMARK    8  A    between atoms: C11_18  and  C12_19 
REMARK    9  A    between atoms: C15_22  and  O1_23 
ROOT
HETATM    1  C2  UNL     1      23.034   4.230  52.215  1.00  0.00     0.755 A 
HETATM    2  N2  UNL     1      21.976   3.522  52.442  1.00  0.00     0.133 NA
HETATM    3  C3  UNL     1      22.617   2.259  52.314  1.00  0.00     0.778 A 
HETATM    4  N3  UNL     1      22.521   0.953  52.340  1.00  0.00    -0.083 NA
HETATM    5  N5  UNL     1      23.808   3.032  52.059  1.00  0.00     0.138 N 
ENDROOT
BRANCH   5   6
HETATM    6  N6  UNL     1      25.164   2.846  51.774  1.00  0.00    -0.035 NA
HETATM    7  N7  UNL     1      25.853   2.233  52.652  1.00  0.00    -0.169 NA
BRANCH   7   8
HETATM    8  C11 UNL     1      27.258   1.973  52.492  1.00  0.00     0.214 C 
BRANCH   8   9
HETATM    9  C12 UNL     1      27.578   0.537  52.704  1.00  0.00    -0.036 A 
HETATM   10  C13 UNL     1      26.735  -0.481  52.305  1.00  0.00     0.012 A 
HETATM   11  C14 UNL     1      27.021  -1.816  52.497  1.00  0.00     0.037 A 
HETATM   12  C15 UNL     1      28.199  -2.179  53.113  1.00  0.00     0.065 A 
HETATM   13  C16 UNL     1      29.043  -1.165  53.512  1.00  0.00     0.037 A 
HETATM   14  C17 UNL     1      28.755   0.171  53.320  1.00  0.00     0.012 A 
BRANCH  12  15
HETATM   15  O1  UNL     1      28.519  -3.515  53.321  1.00  0.00    -0.361 OA
HETATM   16  H17 UNL     1      29.368  -3.892  52.932  1.00  0.00     0.217 HD
ENDBRANCH  12  15
ENDBRANCH   8   9
ENDBRANCH   7   8
ENDBRANCH   5   6
BRANCH   1  17
HETATM   17  N1  UNL     1      23.247   5.646  52.164  1.00  0.00    -0.226 N 
HETATM   18  C1  UNL     1      22.973   6.428  50.974  1.00  0.00     0.165 C 
HETATM   19  H4  UNL     1      23.614   6.081  53.045  1.00  0.00     0.177 HD
ENDBRANCH   1  17
BRANCH   4  20
HETATM   20  C4  UNL     1      21.205   0.414  52.620  1.00  0.00     0.290 C 
BRANCH  20  21
HETATM   21  N4  UNL     1      20.136   1.201  52.046  1.00  0.00    -0.381 N 
HETATM   22  H7  UNL     1      19.673   1.894  52.672  1.00  0.00     0.160 HD
BRANCH  21  23
HETATM   23  C5  UNL     1      19.879   0.895  50.680  1.00  0.00     0.085 C 
HETATM   24  C6  UNL     1      18.744   0.274  50.392  1.00  0.00     0.028 C 
BRANCH  24  25
HETATM   25  C7  UNL     1      17.758  -0.108  51.398  1.00  0.00    -0.035 A 
HETATM   26  C8  UNL     1      17.521  -1.068  52.308  1.00  0.00     0.011 A 
HETATM   27  C9  UNL     1      16.269  -0.452  52.735  1.00  0.00     0.002 A 
HETATM   28  C10 UNL     1      16.493   0.487  51.849  1.00  0.00     0.011 A 
ENDBRANCH  24  25
ENDBRANCH  21  23
ENDBRANCH  20  21
ENDBRANCH   4  20
TORSDOF 9
ENDMDL
MODEL 9
REMARK VINA RESULT:      -6.9      3.255      6.054
REMARK  9 active torsions:
REMARK  status: ('A' for Active; 'I' for Inactive)
REMARK    1  A    between atoms: N1_2  and  C2_3 
REMARK    2  A    between atoms: N3_6  and  C4_7 
REMARK    3  A    between atoms: C4_7  and  N4_8 
REMARK    4  A    between atoms: N4_8  and  C5_9 
REMARK    5  A    between atoms: C6_10  and  C7_11 
REMARK    6  A    between atoms: N5_15  and  N6_16 
REMARK    7  A    between atoms: N7_17  and  C11_18 
REMARK    8  A    between atoms: C11_18  and  C12_19 
REMARK    9  A    between atoms: C15_22  and  O1_23 
ROOT
HETATM    1  C2  UNL     1      27.577   0.024  54.170  1.00  0.00     0.755 A 
HETATM    2  N2  UNL     1      26.596  -0.533  54.803  1.00  0.00     0.133 NA
HETATM    3  C3  UNL     1      25.591  -0.157  53.869  1.00  0.00     0.778 A 
HETATM    4  N3  UNL     1      24.328  -0.179  53.523  1.00  0.00    -0.083 NA
HETATM    5  N5  UNL     1      26.673   0.469  53.150  1.00  0.00     0.138 N 
ENDROOT
BRANCH   5   6
HETATM    6  N6  UNL     1      26.897   1.207  51.983  1.00  0.00    -0.035 NA
HETATM    7  N7  UNL     1      26.044   2.111  51.708  1.00  0.00    -0.169 NA
BRANCH   7   8
HETATM    8  C11 UNL     1      26.148   2.945  50.541  1.00  0.00     0.214 C 
BRANCH   8   9
HETATM    9  C12 UNL     1      24.954   3.814  50.379  1.00  0.00    -0.036 A 
HETATM   10  C13 UNL     1      24.338   4.440  51.444  1.00  0.00     0.012 A 
HETATM   11  C14 UNL     1      23.230   5.249  51.305  1.00  0.00     0.037 A 
HETATM   12  C15 UNL     1      22.691   5.459  50.055  1.00  0.00     0.065 A 
HETATM   13  C16 UNL     1      23.303   4.836  48.989  1.00  0.00     0.037 A 
HETATM   14  C17 UNL     1      24.413   4.026  49.129  1.00  0.00     0.012 A 
BRANCH  12  15
HETATM   15  O1  UNL     1      21.576   6.268  49.880  1.00  0.00    -0.361 OA
HETATM   16  H17 UNL     1      20.800   6.196  50.519  1.00  0.00     0.217 HD
ENDBRANCH  12  15
ENDBRANCH   8   9
ENDBRANCH   7   8
ENDBRANCH   5   6
BRANCH   1  17
HETATM   17  N1  UNL     1      28.978   0.106  54.458  1.00  0.00    -0.226 N 
HETATM   18  C1  UNL     1      29.959  -0.722  53.782  1.00  0.00     0.165 C 
HETATM   19  H4  UNL     1      29.250   0.807  55.190  1.00  0.00     0.177 HD
ENDBRANCH   1  17
BRANCH   4  20
HETATM   20  C4  UNL     1      23.431  -0.879  54.421  1.00  0.00     0.290 C 
BRANCH  20  21
HETATM   21  N4  UNL     1      22.200  -1.292  53.785  1.00  0.00    -0.381 N 
HETATM   22  H7  UNL     1      22.272  -2.039  53.061  1.00  0.00     0.160 HD
BRANCH  21  23
HETATM   23  C5  UNL     1      21.055  -0.595  54.262  1.00  0.00     0.085 C 
HETATM   24  C6  UNL     1      20.548   0.356  53.491  1.00  0.00     0.028 C 
BRANCH  24  25
HETATM   25  C7  UNL     1      21.104   0.720  52.191  1.00  0.00    -0.035 A 
HETATM   26  C8  UNL     1      21.113   0.305  50.913  1.00  0.00     0.011 A 
HETATM   27  C9  UNL     1      21.977   1.402  50.490  1.00  0.00     0.002 A 
HETATM   28  C10 UNL     1      21.973   1.812  51.734  1.00  0.00     0.011 A 
ENDBRANCH  24  25
ENDBRANCH  21  23
ENDBRANCH  20  21
ENDBRANCH   4  20
TORSDOF 9
ENDMDL
