MODEL 1
REMARK VINA RESULT:      -7.6      0.000      0.000
REMARK  5 active torsions:
REMARK  status: ('A' for Active; 'I' for Inactive)
REMARK    1  A    between atoms: N1_1  and  C1_2 
REMARK    2  A    between atoms: C6_7  and  C7_8 
REMARK    3  A    between atoms: C6_7  and  N2_16 
REMARK    4  A    between atoms: C8_9  and  C9_10 
REMARK    5  A    between atoms: N2_16  and  C15_17 
ROOT
HETATM    1  C1  UNL     1      27.183   0.243  54.127  1.00  0.00     0.035 A 
HETATM    2  C2  UNL     1      28.433  -0.141  54.300  1.00  0.00     0.027 A 
HETATM    3  C3  UNL     1      28.850  -1.246  53.453  1.00  0.00    -0.002 A 
HETATM    4  C4  UNL     1      27.906  -1.689  52.644  1.00  0.00    -0.023 A 
HETATM    5  C5  UNL     1      26.491  -1.326  52.381  1.00  0.00     0.069 A 
HETATM    6  C6  UNL     1      26.058  -0.181  53.261  1.00  0.00     0.095 A 
ENDROOT
BRANCH   6   7
HETATM    7  C7  UNL     1      25.577   0.961  52.429  1.00  0.00     0.011 C 
HETATM    8  C8  UNL     1      26.327   1.546  51.517  1.00  0.00     0.010 C 
BRANCH   8   9
HETATM    9  C9  UNL     1      25.890   2.662  50.690  1.00  0.00    -0.036 A 
HETATM   10  C10 UNL     1      26.752   3.495  50.012  1.00  0.00     0.011 A 
HETATM   11  C11 UNL     1      26.369   4.557  49.224  1.00  0.00     0.001 A 
HETATM   12  C12 UNL     1      25.011   4.819  49.092  1.00  0.00     0.000 A 
HETATM   13  C13 UNL     1      24.116   4.006  49.756  1.00  0.00     0.001 A 
HETATM   14  C14 UNL     1      24.552   2.943  50.544  1.00  0.00     0.011 A 
ENDBRANCH   8   9
ENDBRANCH   6   7
BRANCH   6  15
HETATM   15  N2  UNL     1      25.022  -0.654  54.154  1.00  0.00    -0.341 N 
HETATM   16  H15 UNL     1      25.196  -1.044  55.106  1.00  0.00     0.163 HD
BRANCH  15  17
HETATM   17  C15 UNL     1      23.609  -0.740  54.059  1.00  0.00     0.322 A 
HETATM   18  S1  UNL     1      22.213  -1.212  54.762  1.00  0.00     0.186 SA
HETATM   19  N3  UNL     1      22.608  -0.377  53.116  1.00  0.00     0.189 N 
HETATM   20  F1  UNL     1      22.634   0.217  51.900  1.00  0.00    -0.198 F 
HETATM   21  H16 UNL     1      22.696   0.082  52.189  1.00  0.00     0.558 HD
ENDBRANCH  15  17
ENDBRANCH   6  15
BRANCH   1  22
HETATM   22  N1  UNL     1      26.729   1.338  54.946  1.00  0.00    -0.400 N 
HETATM   23  H1  UNL     1      26.892   2.370  55.000  1.00  0.00     0.156 HD
HETATM   24  H2  UNL     1      26.092   1.445  55.753  1.00  0.00     0.156 HD
ENDBRANCH   1  22
TORSDOF 5
ENDMDL
MODEL 2
REMARK VINA RESULT:      -7.5      1.600      2.194
REMARK  5 active torsions:
REMARK  status: ('A' for Active; 'I' for Inactive)
REMARK    1  A    between atoms: N1_1  and  C1_2 
REMARK    2  A    between atoms: C6_7  and  C7_8 
REMARK    3  A    between atoms: C6_7  and  N2_16 
REMARK    4  A    between atoms: C8_9  and  C9_10 
REMARK    5  A    between atoms: N2_16  and  C15_17 
ROOT
HETATM    1  C1  UNL     1      26.739   1.394  53.677  1.00  0.00     0.035 A 
HETATM    2  C2  UNL     1      27.529   0.669  54.444  1.00  0.00     0.027 A 
HETATM    3  C3  UNL     1      27.945  -0.596  53.862  1.00  0.00    -0.002 A 
HETATM    4  C4  UNL     1      27.463  -0.816  52.653  1.00  0.00    -0.023 A 
HETATM    5  C5  UNL     1      26.581  -0.070  51.722  1.00  0.00     0.069 A 
HETATM    6  C6  UNL     1      26.147   1.241  52.327  1.00  0.00     0.095 A 
ENDROOT
BRANCH   6   7
HETATM    7  C7  UNL     1      26.548   2.378  51.447  1.00  0.00     0.011 C 
HETATM    8  C8  UNL     1      25.675   3.134  50.814  1.00  0.00     0.010 C 
BRANCH   8   9
HETATM    9  C9  UNL     1      26.031   4.250  49.948  1.00  0.00    -0.036 A 
HETATM   10  C10 UNL     1      25.226   5.348  49.745  1.00  0.00     0.011 A 
HETATM   11  C11 UNL     1      25.536   6.416  48.933  1.00  0.00     0.001 A 
HETATM   12  C12 UNL     1      26.753   6.398  48.262  1.00  0.00     0.000 A 
HETATM   13  C13 UNL     1      27.587   5.315  48.441  1.00  0.00     0.001 A 
HETATM   14  C14 UNL     1      27.230   4.256  49.273  1.00  0.00     0.011 A 
ENDBRANCH   8   9
ENDBRANCH   6   7
BRANCH   6  15
HETATM   15  N2  UNL     1      24.714   1.206  52.520  1.00  0.00    -0.341 N 
HETATM   16  H15 UNL     1      24.062   1.973  52.245  1.00  0.00     0.163 HD
BRANCH  15  17
HETATM   17  C15 UNL     1      23.821   0.253  53.075  1.00  0.00     0.322 A 
HETATM   18  S1  UNL     1      22.332  -0.415  53.042  1.00  0.00     0.186 SA
HETATM   19  N3  UNL     1      23.858  -0.725  54.107  1.00  0.00     0.189 N 
HETATM   20  F1  UNL     1      24.805  -1.130  54.986  1.00  0.00    -0.198 F 
HETATM   21  H16 UNL     1      24.627  -0.989  54.754  1.00  0.00     0.558 HD
ENDBRANCH  15  17
ENDBRANCH   6  15
BRANCH   1  22
HETATM   22  N1  UNL     1      26.303   2.657  54.216  1.00  0.00    -0.400 N 
HETATM   23  H1  UNL     1      25.478   3.015  54.750  1.00  0.00     0.156 HD
HETATM   24  H2  UNL     1      26.677   3.620  54.242  1.00  0.00     0.156 HD
ENDBRANCH   1  22
TORSDOF 5
ENDMDL
MODEL 3
REMARK VINA RESULT:      -7.5      2.989      4.959
REMARK  5 active torsions:
REMARK  status: ('A' for Active; 'I' for Inactive)
REMARK    1  A    between atoms: N1_1  and  C1_2 
REMARK    2  A    between atoms: C6_7  and  C7_8 
REMARK    3  A    between atoms: C6_7  and  N2_16 
REMARK    4  A    between atoms: C8_9  and  C9_10 
REMARK    5  A    between atoms: N2_16  and  C15_17 
ROOT
HETATM    1  C1  UNL     1      27.604  -0.313  52.834  1.00  0.00     0.035 A 
HETATM    2  C2  UNL     1      28.764  -0.720  53.313  1.00  0.00     0.027 A 
HETATM    3  C3  UNL     1      29.499   0.290  54.057  1.00  0.00    -0.002 A 
HETATM    4  C4  UNL     1      28.884   1.455  54.135  1.00  0.00    -0.023 A 
HETATM    5  C5  UNL     1      27.597   1.998  53.637  1.00  0.00     0.069 A 
HETATM    6  C6  UNL     1      26.835   0.953  52.863  1.00  0.00     0.095 A 
ENDROOT
BRANCH   6   7
HETATM    7  C7  UNL     1      25.489   0.735  53.468  1.00  0.00     0.011 C 
HETATM    8  C8  UNL     1      24.404   0.538  52.746  1.00  0.00     0.010 C 
BRANCH   8   9
HETATM    9  C9  UNL     1      23.076   0.322  53.304  1.00  0.00    -0.036 A 
HETATM   10  C10 UNL     1      22.777  -0.677  54.203  1.00  0.00     0.011 A 
HETATM   11  C11 UNL     1      21.533  -0.905  54.746  1.00  0.00     0.001 A 
HETATM   12  C12 UNL     1      20.489  -0.068  54.368  1.00  0.00     0.000 A 
HETATM   13  C13 UNL     1      20.750   0.945  53.470  1.00  0.00     0.001 A 
HETATM   14  C14 UNL     1      22.027   1.136  52.946  1.00  0.00     0.011 A 
ENDBRANCH   8   9
ENDBRANCH   6   7
BRANCH   6  15
HETATM   15  N2  UNL     1      26.729   1.387  51.486  1.00  0.00    -0.341 N 
HETATM   16  H15 UNL     1      26.944   0.787  50.660  1.00  0.00     0.163 HD
BRANCH  15  17
HETATM   17  C15 UNL     1      26.348   2.606  50.868  1.00  0.00     0.322 A 
HETATM   18  S1  UNL     1      26.578   3.650  49.634  1.00  0.00     0.186 SA
HETATM   19  N3  UNL     1      25.412   3.647  51.117  1.00  0.00     0.189 N 
HETATM   20  F1  UNL     1      24.490   3.872  52.083  1.00  0.00    -0.198 F 
HETATM   21  H16 UNL     1      24.724   3.760  51.887  1.00  0.00     0.558 HD
ENDBRANCH  15  17
ENDBRANCH   6  15
BRANCH   1  22
HETATM   22  N1  UNL     1      26.842  -1.283  52.090  1.00  0.00    -0.400 N 
HETATM   23  H1  UNL     1      25.832  -1.527  51.965  1.00  0.00     0.156 HD
HETATM   24  H2  UNL     1      27.060  -2.055  51.438  1.00  0.00     0.156 HD
ENDBRANCH   1  22
TORSDOF 5
ENDMDL
MODEL 4
REMARK VINA RESULT:      -7.4      3.062      5.828
REMARK  5 active torsions:
REMARK  status: ('A' for Active; 'I' for Inactive)
REMARK    1  A    between atoms: N1_1  and  C1_2 
REMARK    2  A    between atoms: C6_7  and  C7_8 
REMARK    3  A    between atoms: C6_7  and  N2_16 
REMARK    4  A    between atoms: C8_9  and  C9_10 
REMARK    5  A    between atoms: N2_16  and  C15_17 
ROOT
HETATM    1  C1  UNL     1      24.878   3.984  51.386  1.00  0.00     0.035 A 
HETATM    2  C2  UNL     1      25.145   4.715  50.321  1.00  0.00     0.027 A 
HETATM    3  C3  UNL     1      26.019   4.075  49.351  1.00  0.00    -0.002 A 
HETATM    4  C4  UNL     1      26.405   2.861  49.694  1.00  0.00    -0.023 A 
HETATM    5  C5  UNL     1      26.159   1.969  50.854  1.00  0.00     0.069 A 
HETATM    6  C6  UNL     1      25.256   2.633  51.861  1.00  0.00     0.095 A 
ENDROOT
BRANCH   6   7
HETATM    7  C7  UNL     1      24.039   1.801  52.097  1.00  0.00     0.011 C 
HETATM    8  C8  UNL     1      23.898   1.024  53.151  1.00  0.00     0.010 C 
BRANCH   8   9
HETATM    9  C9  UNL     1      22.725   0.200  53.411  1.00  0.00    -0.036 A 
HETATM   10  C10 UNL     1      22.730  -0.896  54.246  1.00  0.00     0.011 A 
HETATM   11  C11 UNL     1      21.640  -1.692  54.510  1.00  0.00     0.001 A 
HETATM   12  C12 UNL     1      20.433  -1.378  53.894  1.00  0.00     0.000 A 
HETATM   13  C13 UNL     1      20.389  -0.288  53.052  1.00  0.00     0.001 A 
HETATM   14  C14 UNL     1      21.520   0.489  52.814  1.00  0.00     0.011 A 
ENDBRANCH   8   9
ENDBRANCH   6   7
BRANCH   6  15
HETATM   15  N2  UNL     1      26.000   2.833  53.086  1.00  0.00    -0.341 N 
HETATM   16  H15 UNL     1      25.776   3.558  53.801  1.00  0.00     0.163 HD
BRANCH  15  17
HETATM   17  C15 UNL     1      27.136   2.203  53.658  1.00  0.00     0.322 A 
HETATM   18  S1  UNL     1      28.764   2.133  53.755  1.00  0.00     0.186 SA
HETATM   19  N3  UNL     1      27.382   1.148  54.580  1.00  0.00     0.189 N 
HETATM   20  F1  UNL     1      26.586   0.313  55.288  1.00  0.00    -0.198 F 
HETATM   21  H16 UNL     1      26.717   0.539  55.094  1.00  0.00     0.558 HD
ENDBRANCH  15  17
ENDBRANCH   6  15
BRANCH   1  22
HETATM   22  N1  UNL     1      24.015   4.581  52.373  1.00  0.00    -0.400 N 
HETATM   23  H1  UNL     1      23.350   4.246  53.109  1.00  0.00     0.156 HD
HETATM   24  H2  UNL     1      23.776   5.544  52.665  1.00  0.00     0.156 HD
ENDBRANCH   1  22
TORSDOF 5
ENDMDL
MODEL 5
REMARK VINA RESULT:      -7.3      3.232      6.249
REMARK  5 active torsions:
REMARK  status: ('A' for Active; 'I' for Inactive)
REMARK    1  A    between atoms: N1_1  and  C1_2 
REMARK    2  A    between atoms: C6_7  and  C7_8 
REMARK    3  A    between atoms: C6_7  and  N2_16 
REMARK    4  A    between atoms: C8_9  and  C9_10 
REMARK    5  A    between atoms: N2_16  and  C15_17 
ROOT
HETATM    1  C1  UNL     1      23.881   4.667  51.526  1.00  0.00     0.035 A 
HETATM    2  C2  UNL     1      23.347   5.557  50.712  1.00  0.00     0.027 A 
HETATM    3  C3  UNL     1      23.181   5.101  49.341  1.00  0.00    -0.002 A 
HETATM    4  C4  UNL     1      23.593   3.865  49.133  1.00  0.00    -0.023 A 
HETATM    5  C5  UNL     1      24.197   2.802  49.974  1.00  0.00     0.069 A 
HETATM    6  C6  UNL     1      24.372   3.276  51.394  1.00  0.00     0.095 A 
ENDROOT
BRANCH   6   7
HETATM    7  C7  UNL     1      23.647   2.373  52.336  1.00  0.00     0.011 C 
HETATM    8  C8  UNL     1      23.236   1.168  51.997  1.00  0.00     0.010 C 
BRANCH   8   9
HETATM    9  C9  UNL     1      22.526   0.263  52.891  1.00  0.00    -0.036 A 
HETATM   10  C10 UNL     1      23.138  -0.467  53.885  1.00  0.00     0.011 A 
HETATM   11  C11 UNL     1      22.494  -1.330  54.743  1.00  0.00     0.001 A 
HETATM   12  C12 UNL     1      21.120  -1.484  54.607  1.00  0.00     0.000 A 
HETATM   13  C13 UNL     1      20.471  -0.770  53.623  1.00  0.00     0.001 A 
HETATM   14  C14 UNL     1      21.166   0.092  52.777  1.00  0.00     0.011 A 
ENDBRANCH   8   9
ENDBRANCH   6   7
BRANCH   6  15
HETATM   15  N2  UNL     1      25.787   3.321  51.693  1.00  0.00    -0.341 N 
HETATM   16  H15 UNL     1      26.408   4.134  51.489  1.00  0.00     0.163 HD
BRANCH  15  17
HETATM   17  C15 UNL     1      26.695   2.405  52.285  1.00  0.00     0.322 A 
HETATM   18  S1  UNL     1      27.938   2.179  53.318  1.00  0.00     0.186 SA
HETATM   19  N3  UNL     1      26.956   1.009  52.210  1.00  0.00     0.189 N 
HETATM   20  F1  UNL     1      26.409  -0.015  51.514  1.00  0.00    -0.198 F 
HETATM   21  H16 UNL     1      26.493   0.269  51.648  1.00  0.00     0.558 HD
ENDBRANCH  15  17
ENDBRANCH   6  15
BRANCH   1  22
HETATM   22  N1  UNL     1      24.063   5.079  52.895  1.00  0.00    -0.400 N 
HETATM   23  H1  UNL     1      24.572   4.724  53.737  1.00  0.00     0.156 HD
HETATM   24  H2  UNL     1      23.739   5.865  53.482  1.00  0.00     0.156 HD
ENDBRANCH   1  22
TORSDOF 5
ENDMDL
MODEL 6
REMARK VINA RESULT:      -7.3      3.887      6.454
REMARK  5 active torsions:
REMARK  status: ('A' for Active; 'I' for Inactive)
REMARK    1  A    between atoms: N1_1  and  C1_2 
REMARK    2  A    between atoms: C6_7  and  C7_8 
REMARK    3  A    between atoms: C6_7  and  N2_16 
REMARK    4  A    between atoms: C8_9  and  C9_10 
REMARK    5  A    between atoms: N2_16  and  C15_17 
ROOT
HETATM    1  C1  UNL     1      23.219   4.318  52.195  1.00  0.00     0.035 A 
HETATM    2  C2  UNL     1      21.904   4.225  52.202  1.00  0.00     0.027 A 
HETATM    3  C3  UNL     1      21.342   3.497  51.075  1.00  0.00    -0.002 A 
HETATM    4  C4  UNL     1      22.244   3.045  50.225  1.00  0.00    -0.023 A 
HETATM    5  C5  UNL     1      23.724   3.098  50.134  1.00  0.00     0.069 A 
HETATM    6  C6  UNL     1      24.306   3.855  51.300  1.00  0.00     0.095 A 
ENDROOT
BRANCH   6   7
HETATM    7  C7  UNL     1      25.270   2.996  52.049  1.00  0.00     0.011 C 
HETATM    8  C8  UNL     1      25.831   1.926  51.523  1.00  0.00     0.010 C 
BRANCH   8   9
HETATM    9  C9  UNL     1      26.774   1.066  52.225  1.00  0.00    -0.036 A 
HETATM   10  C10 UNL     1      27.859   1.536  52.931  1.00  0.00     0.011 A 
HETATM   11  C11 UNL     1      28.766   0.748  53.603  1.00  0.00     0.001 A 
HETATM   12  C12 UNL     1      28.585  -0.630  53.575  1.00  0.00     0.000 A 
HETATM   13  C13 UNL     1      27.510  -1.138  52.878  1.00  0.00     0.001 A 
HETATM   14  C14 UNL     1      26.618  -0.301  52.212  1.00  0.00     0.011 A 
ENDBRANCH   8   9
ENDBRANCH   6   7
BRANCH   6  15
HETATM   15  N2  UNL     1      24.948   5.051  50.799  1.00  0.00    -0.341 N 
HETATM   16  H15 UNL     1      24.810   6.005  51.196  1.00  0.00     0.163 HD
BRANCH  15  17
HETATM   17  C15 UNL     1      25.858   5.306  49.740  1.00  0.00     0.322 A 
HETATM   18  S1  UNL     1      26.502   6.404  48.719  1.00  0.00     0.186 SA
HETATM   19  N3  UNL     1      26.784   4.554  48.965  1.00  0.00     0.189 N 
HETATM   20  F1  UNL     1      27.159   3.254  48.948  1.00  0.00    -0.198 F 
HETATM   21  H16 UNL     1      27.027   3.546  49.003  1.00  0.00     0.558 HD
ENDBRANCH  15  17
ENDBRANCH   6  15
BRANCH   1  22
HETATM   22  N1  UNL     1      23.818   5.031  53.295  1.00  0.00    -0.400 N 
HETATM   23  H1  UNL     1      23.714   5.054  54.336  1.00  0.00     0.156 HD
HETATM   24  H2  UNL     1      24.546   5.757  53.399  1.00  0.00     0.156 HD
ENDBRANCH   1  22
TORSDOF 5
ENDMDL
MODEL 7
REMARK VINA RESULT:      -7.2      7.441      9.719
REMARK  5 active torsions:
REMARK  status: ('A' for Active; 'I' for Inactive)
REMARK    1  A    between atoms: N1_1  and  C1_2 
REMARK    2  A    between atoms: C6_7  and  C7_8 
REMARK    3  A    between atoms: C6_7  and  N2_16 
REMARK    4  A    between atoms: C8_9  and  C9_10 
REMARK    5  A    between atoms: N2_16  and  C15_17 
ROOT
HETATM    1  C1  UNL     1      31.705   6.771  49.101  1.00  0.00     0.035 A 
HETATM    2  C2  UNL     1      32.136   7.994  49.343  1.00  0.00     0.027 A 
HETATM    3  C3  UNL     1      32.001   8.916  48.227  1.00  0.00    -0.002 A 
HETATM    4  C4  UNL     1      31.466   8.377  47.148  1.00  0.00    -0.023 A 
HETATM    5  C5  UNL     1      30.956   7.032  46.786  1.00  0.00     0.069 A 
HETATM    6  C6  UNL     1      31.098   6.075  47.942  1.00  0.00     0.095 A 
ENDROOT
BRANCH   6   7
HETATM    7  C7  UNL     1      29.770   5.503  48.311  1.00  0.00     0.011 C 
HETATM    8  C8  UNL     1      28.649   6.190  48.228  1.00  0.00     0.010 C 
BRANCH   8   9
HETATM    9  C9  UNL     1      27.337   5.664  48.580  1.00  0.00    -0.036 A 
HETATM   10  C10 UNL     1      26.171   6.390  48.487  1.00  0.00     0.011 A 
HETATM   11  C11 UNL     1      24.919   5.920  48.812  1.00  0.00     0.001 A 
HETATM   12  C12 UNL     1      24.808   4.613  49.272  1.00  0.00     0.000 A 
HETATM   13  C13 UNL     1      25.954   3.854  49.379  1.00  0.00     0.001 A 
HETATM   14  C14 UNL     1      27.201   4.374  49.038  1.00  0.00     0.011 A 
ENDBRANCH   8   9
ENDBRANCH   6   7
BRANCH   6  15
HETATM   15  N2  UNL     1      32.032   5.036  47.567  1.00  0.00    -0.341 N 
HETATM   16  H15 UNL     1      31.900   4.021  47.770  1.00  0.00     0.163 HD
BRANCH  15  17
HETATM   17  C15 UNL     1      33.278   5.035  46.888  1.00  0.00     0.322 A 
HETATM   18  S1  UNL     1      34.258   4.286  45.819  1.00  0.00     0.186 SA
HETATM   19  N3  UNL     1      34.437   5.858  46.845  1.00  0.00     0.189 N 
HETATM   20  F1  UNL     1      34.799   7.005  47.466  1.00  0.00    -0.198 F 
HETATM   21  H16 UNL     1      34.654   6.737  47.354  1.00  0.00     0.558 HD
ENDBRANCH  15  17
ENDBRANCH   6  15
BRANCH   1  22
HETATM   22  N1  UNL     1      31.820   5.825  50.182  1.00  0.00    -0.400 N 
HETATM   23  H1  UNL     1      31.254   5.033  50.567  1.00  0.00     0.156 HD
HETATM   24  H2  UNL     1      32.508   5.633  50.928  1.00  0.00     0.156 HD
ENDBRANCH   1  22
TORSDOF 5
ENDMDL
MODEL 8
REMARK VINA RESULT:      -7.1      4.040      5.206
REMARK  5 active torsions:
REMARK  status: ('A' for Active; 'I' for Inactive)
REMARK    1  A    between atoms: N1_1  and  C1_2 
REMARK    2  A    between atoms: C6_7  and  C7_8 
REMARK    3  A    between atoms: C6_7  and  N2_16 
REMARK    4  A    between atoms: C8_9  and  C9_10 
REMARK    5  A    between atoms: N2_16  and  C15_17 
ROOT
HETATM    1  C1  UNL     1      23.700   3.965  52.278  1.00  0.00     0.035 A 
HETATM    2  C2  UNL     1      23.889   2.917  53.056  1.00  0.00     0.027 A 
HETATM    3  C3  UNL     1      23.775   1.634  52.382  1.00  0.00    -0.002 A 
HETATM    4  C4  UNL     1      23.499   1.726  51.095  1.00  0.00    -0.023 A 
HETATM    5  C5  UNL     1      23.274   2.844  50.146  1.00  0.00     0.069 A 
HETATM    6  C6  UNL     1      23.390   4.174  50.845  1.00  0.00     0.095 A 
ENDROOT
BRANCH   6   7
HETATM    7  C7  UNL     1      24.442   5.012  50.198  1.00  0.00     0.011 C 
HETATM    8  C8  UNL     1      25.480   4.497  49.572  1.00  0.00     0.010 C 
BRANCH   8   9
HETATM    9  C9  UNL     1      26.524   5.285  48.931  1.00  0.00    -0.036 A 
HETATM   10  C10 UNL     1      26.343   6.574  48.482  1.00  0.00     0.011 A 
HETATM   11  C11 UNL     1      27.309   7.342  47.873  1.00  0.00     0.001 A 
HETATM   12  C12 UNL     1      28.571   6.787  47.692  1.00  0.00     0.000 A 
HETATM   13  C13 UNL     1      28.791   5.498  48.129  1.00  0.00     0.001 A 
HETATM   14  C14 UNL     1      27.780   4.758  48.740  1.00  0.00     0.011 A 
ENDBRANCH   8   9
ENDBRANCH   6   7
BRANCH   6  15
HETATM   15  N2  UNL     1      22.099   4.828  50.807  1.00  0.00    -0.341 N 
HETATM   16  H15 UNL     1      21.958   5.846  50.627  1.00  0.00     0.163 HD
BRANCH  15  17
HETATM   17  C15 UNL     1      20.765   4.376  50.978  1.00  0.00     0.322 A 
HETATM   18  S1  UNL     1      19.225   4.410  50.438  1.00  0.00     0.186 SA
HETATM   19  N3  UNL     1      20.065   3.528  51.880  1.00  0.00     0.189 N 
HETATM   20  F1  UNL     1      20.429   2.801  52.962  1.00  0.00    -0.198 F 
HETATM   21  H16 UNL     1      20.408   2.993  52.700  1.00  0.00     0.558 HD
ENDBRANCH  15  17
ENDBRANCH   6  15
BRANCH   1  22
HETATM   22  N1  UNL     1      23.806   5.257  52.907  1.00  0.00    -0.400 N 
HETATM   23  H1  UNL     1      24.352   6.137  52.756  1.00  0.00     0.156 HD
HETATM   24  H2  UNL     1      23.369   5.725  53.719  1.00  0.00     0.156 HD
ENDBRANCH   1  22
TORSDOF 5
ENDMDL
MODEL 9
REMARK VINA RESULT:      -7.1      4.384      7.154
REMARK  5 active torsions:
REMARK  status: ('A' for Active; 'I' for Inactive)
REMARK    1  A    between atoms: N1_1  and  C1_2 
REMARK    2  A    between atoms: C6_7  and  C7_8 
REMARK    3  A    between atoms: C6_7  and  N2_16 
REMARK    4  A    between atoms: C8_9  and  C9_10 
REMARK    5  A    between atoms: N2_16  and  C15_17 
ROOT
HETATM    1  C1  UNL     1      23.208   5.047  51.449  1.00  0.00     0.035 A 
HETATM    2  C2  UNL     1      22.197   5.760  50.992  1.00  0.00     0.027 A 
HETATM    3  C3  UNL     1      21.665   5.311  49.716  1.00  0.00    -0.002 A 
HETATM    4  C4  UNL     1      22.282   4.256  49.219  1.00  0.00    -0.023 A 
HETATM    5  C5  UNL     1      23.412   3.397  49.654  1.00  0.00     0.069 A 
HETATM    6  C6  UNL     1      23.965   3.865  50.975  1.00  0.00     0.095 A 
ENDROOT
BRANCH   6   7
HETATM    7  C7  UNL     1      23.905   2.766  51.983  1.00  0.00     0.011 C 
HETATM    8  C8  UNL     1      22.869   1.959  52.099  1.00  0.00     0.010 C 
BRANCH   8   9
HETATM    9  C9  UNL     1      22.777   0.879  53.071  1.00  0.00    -0.036 A 
HETATM   10  C10 UNL     1      23.854   0.122  53.478  1.00  0.00     0.011 A 
HETATM   11  C11 UNL     1      23.797  -0.904  54.393  1.00  0.00     0.001 A 
HETATM   12  C12 UNL     1      22.565  -1.211  54.960  1.00  0.00     0.000 A 
HETATM   13  C13 UNL     1      21.464  -0.475  54.577  1.00  0.00     0.001 A 
HETATM   14  C14 UNL     1      21.570   0.555  53.646  1.00  0.00     0.011 A 
ENDBRANCH   8   9
ENDBRANCH   6   7
BRANCH   6  15
HETATM   15  N2  UNL     1      25.324   4.317  50.770  1.00  0.00    -0.341 N 
HETATM   16  H15 UNL     1      26.148   3.975  51.312  1.00  0.00     0.163 HD
BRANCH  15  17
HETATM   17  C15 UNL     1      25.925   5.251  49.888  1.00  0.00     0.322 A 
HETATM   18  S1  UNL     1      25.946   6.778  49.312  1.00  0.00     0.186 SA
HETATM   19  N3  UNL     1      26.981   5.247  48.935  1.00  0.00     0.189 N 
HETATM   20  F1  UNL     1      27.848   4.304  48.496  1.00  0.00    -0.198 F 
HETATM   21  H16 UNL     1      27.616   4.479  48.641  1.00  0.00     0.558 HD
ENDBRANCH  15  17
ENDBRANCH   6  15
BRANCH   1  22
HETATM   22  N1  UNL     1      23.765   5.459  52.712  1.00  0.00    -0.400 N 
HETATM   23  H1  UNL     1      24.528   5.136  53.351  1.00  0.00     0.156 HD
HETATM   24  H2  UNL     1      23.579   6.214  53.393  1.00  0.00     0.156 HD
ENDBRANCH   1  22
TORSDOF 5
ENDMDL
