MODEL 1
REMARK VINA RESULT:      -8.9      0.000      0.000
REMARK  8 active torsions:
REMARK  status: ('A' for Active; 'I' for Inactive)
REMARK    1  A    between atoms: N1_1  and  C1_2 
REMARK    2  A    between atoms: C6_8  and  C7_9 
REMARK    3  A    between atoms: C7_9  and  O1_10 
REMARK    4  A    between atoms: O1_10  and  C8_11 
REMARK    5  A    between atoms: C11_14  and  N2_15 
REMARK    6  A    between atoms: N2_15  and  C12_16 
REMARK    7  A    between atoms: C14_18  and  C15_19 
REMARK    8  A    between atoms: C15_19  and  C16_20 
ROOT
HETATM    1  C8  UNL     1      23.166  -0.168  53.176  1.00  0.00     0.091 A 
HETATM    2  C9  UNL     1      22.211   0.235  52.275  1.00  0.00     0.041 A 
HETATM    3  C10 UNL     1      20.853   0.084  52.402  1.00  0.00     0.032 A 
HETATM    4  C11 UNL     1      20.390  -0.532  53.545  1.00  0.00     0.034 A 
HETATM    5  C21 UNL     1      21.284  -0.978  54.521  1.00  0.00     0.056 A 
HETATM    6  C22 UNL     1      22.660  -0.792  54.326  1.00  0.00     0.069 A 
HETATM    7 CL1  UNL     1      23.536  -1.443  55.701  1.00  0.00    -0.081 Cl
ENDROOT
BRANCH   4   8
HETATM    8  N2  UNL     1      18.980  -0.669  53.642  1.00  0.00    -0.358 N 
HETATM    9  H10 UNL     1      18.642   0.297  53.891  1.00  0.00     0.166 HD
BRANCH   8  10
HETATM   10  C12 UNL     1      18.075  -1.753  53.478  1.00  0.00     0.032 A 
HETATM   11  C13 UNL     1      18.078  -3.018  53.854  1.00  0.00     0.058 A 
HETATM   12  C14 UNL     1      16.855  -3.622  53.378  1.00  0.00     0.053 A 
HETATM   13  N3  UNL     1      16.152  -2.752  52.745  1.00  0.00    -0.284 NA
HETATM   14  C20 UNL     1      16.820  -1.496  52.731  1.00  0.00     0.206 A 
BRANCH  12  15
HETATM   15  C15 UNL     1      16.483  -5.024  53.595  1.00  0.00     0.039 C 
BRANCH  15  16
HETATM   16  C16 UNL     1      15.190  -5.343  53.793  1.00  0.00    -0.046 A 
HETATM   17  C17 UNL     1      14.333  -5.699  52.633  1.00  0.00     0.117 A 
HETATM   18  S1  UNL     1      12.782  -6.110  53.498  1.00  0.00    -0.137 SA
HETATM   19  C18 UNL     1      13.345  -5.724  55.150  1.00  0.00     0.046 A 
HETATM   20  C19 UNL     1      14.608  -5.348  55.104  1.00  0.00     0.015 A 
ENDBRANCH  15  16
ENDBRANCH  12  15
ENDBRANCH   8  10
ENDBRANCH   4   8
BRANCH   1  21
HETATM   21  O1  UNL     1      24.503  -0.153  53.307  1.00  0.00    -0.345 OA
BRANCH  21  22
HETATM   22  C7  UNL     1      25.413   0.203  52.323  1.00  0.00     0.216 C 
BRANCH  22  23
HETATM   23  C6  UNL     1      26.805   0.082  52.803  1.00  0.00    -0.005 A 
HETATM   24  C1  UNL     1      27.297   1.373  53.053  1.00  0.00     0.073 A 
HETATM   25  C2  UNL     1      28.576   1.599  53.530  1.00  0.00     0.143 A 
HETATM   26  F1  UNL     1      29.131   2.800  53.798  1.00  0.00    -0.204 F 
HETATM   27  C3  UNL     1      29.419   0.521  53.777  1.00  0.00     0.044 A 
HETATM   28  C4  UNL     1      28.948  -0.734  53.538  1.00  0.00     0.004 A 
HETATM   29  C5  UNL     1      27.676  -0.946  53.063  1.00  0.00     0.012 A 
BRANCH  24  30
HETATM   30  N1  UNL     1      26.609   2.626  52.873  1.00  0.00    -0.396 N 
HETATM   31  H1  UNL     1      26.906   3.239  52.079  1.00  0.00     0.156 HD
HETATM   32  H2  UNL     1      25.884   2.704  53.618  1.00  0.00     0.156 HD
ENDBRANCH  24  30
ENDBRANCH  22  23
ENDBRANCH  21  22
ENDBRANCH   1  21
TORSDOF 8
ENDMDL
MODEL 2
REMARK VINA RESULT:      -8.8      2.529      3.676
REMARK  8 active torsions:
REMARK  status: ('A' for Active; 'I' for Inactive)
REMARK    1  A    between atoms: N1_1  and  C1_2 
REMARK    2  A    between atoms: C6_8  and  C7_9 
REMARK    3  A    between atoms: C7_9  and  O1_10 
REMARK    4  A    between atoms: O1_10  and  C8_11 
REMARK    5  A    between atoms: C11_14  and  N2_15 
REMARK    6  A    between atoms: N2_15  and  C12_16 
REMARK    7  A    between atoms: C14_18  and  C15_19 
REMARK    8  A    between atoms: C15_19  and  C16_20 
ROOT
HETATM    1  C8  UNL     1      23.563   0.246  53.408  1.00  0.00     0.091 A 
HETATM    2  C9  UNL     1      22.427   0.469  52.668  1.00  0.00     0.041 A 
HETATM    3  C10 UNL     1      21.204  -0.125  52.853  1.00  0.00     0.032 A 
HETATM    4  C11 UNL     1      21.093  -1.037  53.880  1.00  0.00     0.034 A 
HETATM    5  C21 UNL     1      22.192  -1.331  54.689  1.00  0.00     0.056 A 
HETATM    6  C22 UNL     1      23.414  -0.687  54.444  1.00  0.00     0.069 A 
HETATM    7 CL1  UNL     1      24.609  -1.245  55.603  1.00  0.00    -0.081 Cl
ENDROOT
BRANCH   4   8
HETATM    8  N2  UNL     1      19.811  -1.629  54.041  1.00  0.00    -0.358 N 
HETATM    9  H10 UNL     1      19.922  -2.264  54.873  1.00  0.00     0.166 HD
BRANCH   8  10
HETATM   10  C12 UNL     1      18.573  -1.517  53.352  1.00  0.00     0.032 A 
HETATM   11  C13 UNL     1      18.060  -0.626  52.524  1.00  0.00     0.058 A 
HETATM   12  C14 UNL     1      16.738  -1.079  52.155  1.00  0.00     0.053 A 
HETATM   13  N3  UNL     1      16.476  -2.193  52.739  1.00  0.00    -0.284 NA
HETATM   14  C20 UNL     1      17.576  -2.597  53.547  1.00  0.00     0.206 A 
BRANCH  12  15
HETATM   15  C15 UNL     1      15.838  -0.361  51.246  1.00  0.00     0.039 C 
BRANCH  15  16
HETATM   16  C16 UNL     1      15.303   0.811  51.633  1.00  0.00    -0.046 A 
HETATM   17  C17 UNL     1      14.483   0.873  52.871  1.00  0.00     0.117 A 
HETATM   18  S1  UNL     1      14.129   2.660  52.929  1.00  0.00    -0.137 SA
HETATM   19  C18 UNL     1      14.955   3.095  51.405  1.00  0.00     0.046 A 
HETATM   20  C19 UNL     1      15.501   2.016  50.880  1.00  0.00     0.015 A 
ENDBRANCH  15  16
ENDBRANCH  12  15
ENDBRANCH   8  10
ENDBRANCH   4   8
BRANCH   1  21
HETATM   21  O1  UNL     1      24.839   0.664  53.451  1.00  0.00    -0.345 OA
BRANCH  21  22
HETATM   22  C7  UNL     1      25.750   0.608  52.407  1.00  0.00     0.216 C 
BRANCH  22  23
HETATM   23  C6  UNL     1      27.057   0.084  52.855  1.00  0.00    -0.005 A 
HETATM   24  C1  UNL     1      27.739   1.117  53.516  1.00  0.00     0.073 A 
HETATM   25  C2  UNL     1      28.995   0.939  54.071  1.00  0.00     0.143 A 
HETATM   26  F1  UNL     1      29.723   1.870  54.723  1.00  0.00    -0.204 F 
HETATM   27  C3  UNL     1      29.618  -0.301  53.979  1.00  0.00     0.044 A 
HETATM   28  C4  UNL     1      28.962  -1.308  53.339  1.00  0.00     0.004 A 
HETATM   29  C5  UNL     1      27.715  -1.118  52.792  1.00  0.00     0.012 A 
BRANCH  24  30
HETATM   30  N1  UNL     1      27.292   2.469  53.732  1.00  0.00    -0.396 N 
HETATM   31  H1  UNL     1      27.835   3.065  54.398  1.00  0.00     0.156 HD
HETATM   32  H2  UNL     1      26.447   2.625  53.142  1.00  0.00     0.156 HD
ENDBRANCH  24  30
ENDBRANCH  22  23
ENDBRANCH  21  22
ENDBRANCH   1  21
TORSDOF 8
ENDMDL
MODEL 3
REMARK VINA RESULT:      -8.8      8.019     11.663
REMARK  8 active torsions:
REMARK  status: ('A' for Active; 'I' for Inactive)
REMARK    1  A    between atoms: N1_1  and  C1_2 
REMARK    2  A    between atoms: C6_8  and  C7_9 
REMARK    3  A    between atoms: C7_9  and  O1_10 
REMARK    4  A    between atoms: O1_10  and  C8_11 
REMARK    5  A    between atoms: C11_14  and  N2_15 
REMARK    6  A    between atoms: N2_15  and  C12_16 
REMARK    7  A    between atoms: C14_18  and  C15_19 
REMARK    8  A    between atoms: C15_19  and  C16_20 
ROOT
HETATM    1  C8  UNL     1      25.295   0.982  52.077  1.00  0.00     0.091 A 
HETATM    2  C9  UNL     1      26.260   1.615  51.333  1.00  0.00     0.041 A 
HETATM    3  C10 UNL     1      26.143   2.834  50.713  1.00  0.00     0.032 A 
HETATM    4  C11 UNL     1      24.942   3.497  50.844  1.00  0.00     0.034 A 
HETATM    5  C21 UNL     1      23.899   2.934  51.581  1.00  0.00     0.056 A 
HETATM    6  C22 UNL     1      24.087   1.684  52.189  1.00  0.00     0.069 A 
HETATM    7 CL1  UNL     1      22.622   1.226  53.042  1.00  0.00    -0.081 Cl
ENDROOT
BRANCH   4   8
HETATM    8  N2  UNL     1      24.860   4.755  50.190  1.00  0.00    -0.358 N 
HETATM    9  H10 UNL     1      23.832   4.985  50.198  1.00  0.00     0.166 HD
BRANCH   8  10
HETATM   10  C12 UNL     1      25.812   5.634  49.606  1.00  0.00     0.032 A 
HETATM   11  C13 UNL     1      26.788   5.481  48.730  1.00  0.00     0.058 A 
HETATM   12  C14 UNL     1      27.411   6.770  48.535  1.00  0.00     0.053 A 
HETATM   13  N3  UNL     1      26.829   7.654  49.265  1.00  0.00    -0.284 NA
HETATM   14  C20 UNL     1      25.774   7.060  50.012  1.00  0.00     0.206 A 
BRANCH  12  15
HETATM   15  C15 UNL     1      28.540   7.019  47.633  1.00  0.00     0.039 C 
BRANCH  15  16
HETATM   16  C16 UNL     1      29.795   6.806  48.070  1.00  0.00    -0.046 A 
HETATM   17  C17 UNL     1      30.529   7.897  48.762  1.00  0.00     0.117 A 
HETATM   18  S1  UNL     1      32.071   7.023  49.187  1.00  0.00    -0.137 SA
HETATM   19  C18 UNL     1      31.663   5.468  48.406  1.00  0.00     0.046 A 
HETATM   20  C19 UNL     1      30.454   5.545  47.885  1.00  0.00     0.015 A 
ENDBRANCH  15  16
ENDBRANCH  12  15
ENDBRANCH   8  10
ENDBRANCH   4   8
BRANCH   1  21
HETATM   21  O1  UNL     1      25.138  -0.161  52.766  1.00  0.00    -0.345 OA
BRANCH  21  22
HETATM   22  C7  UNL     1      25.698  -0.451  54.001  1.00  0.00     0.216 C 
BRANCH  22  23
HETATM   23  C6  UNL     1      27.154  -0.199  54.009  1.00  0.00    -0.005 A 
HETATM   24  C1  UNL     1      27.792  -1.304  53.425  1.00  0.00     0.073 A 
HETATM   25  C2  UNL     1      29.166  -1.369  53.270  1.00  0.00     0.143 A 
HETATM   26  F1  UNL     1      29.864  -2.386  52.721  1.00  0.00    -0.204 F 
HETATM   27  C3  UNL     1      29.958  -0.311  53.702  1.00  0.00     0.044 A 
HETATM   28  C4  UNL     1      29.345   0.764  54.269  1.00  0.00     0.004 A 
HETATM   29  C5  UNL     1      27.980   0.817  54.418  1.00  0.00     0.012 A 
BRANCH  24  30
HETATM   30  N1  UNL     1      27.181  -2.501  52.908  1.00  0.00    -0.396 N 
HETATM   31  H1  UNL     1      27.042  -2.574  51.873  1.00  0.00     0.156 HD
HETATM   32  H2  UNL     1      26.970  -3.128  53.714  1.00  0.00     0.156 HD
ENDBRANCH  24  30
ENDBRANCH  22  23
ENDBRANCH  21  22
ENDBRANCH   1  21
TORSDOF 8
ENDMDL
MODEL 4
REMARK VINA RESULT:      -8.6      8.591     13.068
REMARK  8 active torsions:
REMARK  status: ('A' for Active; 'I' for Inactive)
REMARK    1  A    between atoms: N1_1  and  C1_2 
REMARK    2  A    between atoms: C6_8  and  C7_9 
REMARK    3  A    between atoms: C7_9  and  O1_10 
REMARK    4  A    between atoms: O1_10  and  C8_11 
REMARK    5  A    between atoms: C11_14  and  N2_15 
REMARK    6  A    between atoms: N2_15  and  C12_16 
REMARK    7  A    between atoms: C14_18  and  C15_19 
REMARK    8  A    between atoms: C15_19  and  C16_20 
ROOT
HETATM    1  C8  UNL     1      25.304   2.747  50.853  1.00  0.00     0.091 A 
HETATM    2  C9  UNL     1      26.428   2.922  50.081  1.00  0.00     0.041 A 
HETATM    3  C10 UNL     1      26.772   4.054  49.387  1.00  0.00     0.032 A 
HETATM    4  C11 UNL     1      25.912   5.129  49.464  1.00  0.00     0.034 A 
HETATM    5  C21 UNL     1      24.743   5.048  50.223  1.00  0.00     0.056 A 
HETATM    6  C22 UNL     1      24.452   3.859  50.907  1.00  0.00     0.069 A 
HETATM    7 CL1  UNL     1      22.934   4.040  51.771  1.00  0.00    -0.081 Cl
ENDROOT
BRANCH   4   8
HETATM    8  N2  UNL     1      26.302   6.283  48.733  1.00  0.00    -0.358 N 
HETATM    9  H10 UNL     1      25.821   6.175  47.803  1.00  0.00     0.166 HD
BRANCH   8  10
HETATM   10  C12 UNL     1      27.125   7.406  49.018  1.00  0.00     0.032 A 
HETATM   11  C13 UNL     1      28.297   7.822  48.576  1.00  0.00     0.058 A 
HETATM   12  C14 UNL     1      28.613   9.056  49.259  1.00  0.00     0.053 A 
HETATM   13  N3  UNL     1      27.666   9.362  50.073  1.00  0.00    -0.284 NA
HETATM   14  C20 UNL     1      26.636   8.382  50.022  1.00  0.00     0.206 A 
BRANCH  12  15
HETATM   15  C15 UNL     1      29.837   9.834  49.044  1.00  0.00     0.039 C 
BRANCH  15  16
HETATM   16  C16 UNL     1      30.945   9.215  48.596  1.00  0.00    -0.046 A 
HETATM   17  C17 UNL     1      31.393   9.430  47.196  1.00  0.00     0.117 A 
HETATM   18  S1  UNL     1      32.932   8.453  47.202  1.00  0.00    -0.137 SA
HETATM   19  C18 UNL     1      32.798   7.846  48.878  1.00  0.00     0.046 A 
HETATM   20  C19 UNL     1      31.714   8.345  49.438  1.00  0.00     0.015 A 
ENDBRANCH  15  16
ENDBRANCH  12  15
ENDBRANCH   8  10
ENDBRANCH   4   8
BRANCH   1  21
HETATM   21  O1  UNL     1      24.737   1.792  51.608  1.00  0.00    -0.345 OA
BRANCH  21  22
HETATM   22  C7  UNL     1      25.075   1.479  52.916  1.00  0.00     0.216 C 
BRANCH  22  23
HETATM   23  C6  UNL     1      26.207   0.531  52.970  1.00  0.00    -0.005 A 
HETATM   24  C1  UNL     1      27.311   1.198  53.523  1.00  0.00     0.073 A 
HETATM   25  C2  UNL     1      28.531   0.574  53.722  1.00  0.00     0.143 A 
HETATM   26  F1  UNL     1      29.642   1.134  54.245  1.00  0.00    -0.204 F 
HETATM   27  C3  UNL     1      28.686  -0.761  53.368  1.00  0.00     0.044 A 
HETATM   28  C4  UNL     1      27.619  -1.415  52.832  1.00  0.00     0.004 A 
HETATM   29  C5  UNL     1      26.413  -0.784  52.638  1.00  0.00     0.012 A 
BRANCH  24  30
HETATM   30  N1  UNL     1      27.382   2.569  53.961  1.00  0.00    -0.396 N 
HETATM   31  H1  UNL     1      27.537   2.751  54.979  1.00  0.00     0.156 HD
HETATM   32  H2  UNL     1      27.258   3.179  53.125  1.00  0.00     0.156 HD
ENDBRANCH  24  30
ENDBRANCH  22  23
ENDBRANCH  21  22
ENDBRANCH   1  21
TORSDOF 8
ENDMDL
MODEL 5
REMARK VINA RESULT:      -8.5      8.457     12.931
REMARK  8 active torsions:
REMARK  status: ('A' for Active; 'I' for Inactive)
REMARK    1  A    between atoms: N1_1  and  C1_2 
REMARK    2  A    between atoms: C6_8  and  C7_9 
REMARK    3  A    between atoms: C7_9  and  O1_10 
REMARK    4  A    between atoms: O1_10  and  C8_11 
REMARK    5  A    between atoms: C11_14  and  N2_15 
REMARK    6  A    between atoms: N2_15  and  C12_16 
REMARK    7  A    between atoms: C14_18  and  C15_19 
REMARK    8  A    between atoms: C15_19  and  C16_20 
ROOT
HETATM    1  C8  UNL     1      25.310   2.896  50.936  1.00  0.00     0.091 A 
HETATM    2  C9  UNL     1      26.402   2.884  50.101  1.00  0.00     0.041 A 
HETATM    3  C10 UNL     1      26.838   3.921  49.316  1.00  0.00     0.032 A 
HETATM    4  C11 UNL     1      26.117   5.095  49.360  1.00  0.00     0.034 A 
HETATM    5  C21 UNL     1      24.991   5.204  50.177  1.00  0.00     0.056 A 
HETATM    6  C22 UNL     1      24.600   4.104  50.954  1.00  0.00     0.069 A 
HETATM    7 CL1  UNL     1      23.164   4.524  51.875  1.00  0.00    -0.081 Cl
ENDROOT
BRANCH   4   8
HETATM    8  N2  UNL     1      26.601   6.145  48.533  1.00  0.00    -0.358 N 
HETATM    9  H10 UNL     1      25.803   6.345  47.876  1.00  0.00     0.166 HD
BRANCH   8  10
HETATM   10  C12 UNL     1      27.822   6.869  48.463  1.00  0.00     0.032 A 
HETATM   11  C13 UNL     1      29.030   6.591  48.012  1.00  0.00     0.058 A 
HETATM   12  C14 UNL     1      29.858   7.757  48.222  1.00  0.00     0.053 A 
HETATM   13  N3  UNL     1      29.169   8.691  48.773  1.00  0.00    -0.284 NA
HETATM   14  C20 UNL     1      27.831   8.256  48.988  1.00  0.00     0.206 A 
BRANCH  12  15
HETATM   15  C15 UNL     1      31.274   7.847  47.852  1.00  0.00     0.039 C 
BRANCH  15  16
HETATM   16  C16 UNL     1      31.963   6.721  47.590  1.00  0.00    -0.046 A 
HETATM   17  C17 UNL     1      32.537   5.931  48.711  1.00  0.00     0.117 A 
HETATM   18  S1  UNL     1      33.239   4.529  47.784  1.00  0.00    -0.137 SA
HETATM   19  C18 UNL     1      32.815   5.113  46.148  1.00  0.00     0.046 A 
HETATM   20  C19 UNL     1      32.162   6.254  46.249  1.00  0.00     0.015 A 
ENDBRANCH  15  16
ENDBRANCH  12  15
ENDBRANCH   8  10
ENDBRANCH   4   8
BRANCH   1  21
HETATM   21  O1  UNL     1      24.675   2.066  51.781  1.00  0.00    -0.345 OA
BRANCH  21  22
HETATM   22  C7  UNL     1      25.088   1.738  53.063  1.00  0.00     0.216 C 
BRANCH  22  23
HETATM   23  C6  UNL     1      26.124   0.685  53.046  1.00  0.00    -0.005 A 
HETATM   24  C1  UNL     1      27.317   1.236  53.538  1.00  0.00     0.073 A 
HETATM   25  C2  UNL     1      28.480   0.495  53.662  1.00  0.00     0.143 A 
HETATM   26  F1  UNL     1      29.668   0.939  54.124  1.00  0.00    -0.204 F 
HETATM   27  C3  UNL     1      28.485  -0.845  53.292  1.00  0.00     0.044 A 
HETATM   28  C4  UNL     1      27.330  -1.386  52.814  1.00  0.00     0.004 A 
HETATM   29  C5  UNL     1      26.183  -0.640  52.695  1.00  0.00     0.012 A 
BRANCH  24  30
HETATM   30  N1  UNL     1      27.545   2.589  53.979  1.00  0.00    -0.396 N 
HETATM   31  H1  UNL     1      27.496   2.784  55.006  1.00  0.00     0.156 HD
HETATM   32  H2  UNL     1      27.732   3.174  53.137  1.00  0.00     0.156 HD
ENDBRANCH  24  30
ENDBRANCH  22  23
ENDBRANCH  21  22
ENDBRANCH   1  21
TORSDOF 8
ENDMDL
MODEL 6
REMARK VINA RESULT:      -8.3      7.955     11.025
REMARK  8 active torsions:
REMARK  status: ('A' for Active; 'I' for Inactive)
REMARK    1  A    between atoms: N1_1  and  C1_2 
REMARK    2  A    between atoms: C6_8  and  C7_9 
REMARK    3  A    between atoms: C7_9  and  O1_10 
REMARK    4  A    between atoms: O1_10  and  C8_11 
REMARK    5  A    between atoms: C11_14  and  N2_15 
REMARK    6  A    between atoms: N2_15  and  C12_16 
REMARK    7  A    between atoms: C14_18  and  C15_19 
REMARK    8  A    between atoms: C15_19  and  C16_20 
ROOT
HETATM    1  C8  UNL     1      28.066   6.450  48.435  1.00  0.00     0.091 A 
HETATM    2  C9  UNL     1      28.034   5.080  48.537  1.00  0.00     0.041 A 
HETATM    3  C10 UNL     1      26.989   4.320  48.996  1.00  0.00     0.032 A 
HETATM    4  C11 UNL     1      25.851   4.987  49.397  1.00  0.00     0.034 A 
HETATM    5  C21 UNL     1      25.786   6.380  49.332  1.00  0.00     0.056 A 
HETATM    6  C22 UNL     1      26.893   7.095  48.853  1.00  0.00     0.069 A 
HETATM    7 CL1  UNL     1      26.533   8.813  48.881  1.00  0.00    -0.081 Cl
ENDROOT
BRANCH   4   8
HETATM    8  N2  UNL     1      24.790   4.166  49.865  1.00  0.00    -0.358 N 
HETATM    9  H10 UNL     1      23.993   4.375  49.209  1.00  0.00     0.166 HD
BRANCH   8  10
HETATM   10  C12 UNL     1      24.651   3.235  50.930  1.00  0.00     0.032 A 
HETATM   11  C13 UNL     1      25.181   2.056  51.194  1.00  0.00     0.058 A 
HETATM   12  C14 UNL     1      24.635   1.599  52.451  1.00  0.00     0.053 A 
HETATM   13  N3  UNL     1      23.813   2.471  52.916  1.00  0.00    -0.284 NA
HETATM   14  C20 UNL     1      23.724   3.584  52.034  1.00  0.00     0.206 A 
BRANCH  12  15
HETATM   15  C15 UNL     1      24.978   0.325  53.092  1.00  0.00     0.039 C 
BRANCH  15  16
HETATM   16  C16 UNL     1      26.258   0.077  53.427  1.00  0.00    -0.046 A 
HETATM   17  C17 UNL     1      26.875   0.803  54.567  1.00  0.00     0.117 A 
HETATM   18  S1  UNL     1      28.515   0.009  54.600  1.00  0.00    -0.137 SA
HETATM   19  C18 UNL     1      28.273  -1.050  53.180  1.00  0.00     0.046 A 
HETATM   20  C19 UNL     1      27.053  -0.878  52.710  1.00  0.00     0.015 A 
ENDBRANCH  15  16
ENDBRANCH  12  15
ENDBRANCH   8  10
ENDBRANCH   4   8
BRANCH   1  21
HETATM   21  O1  UNL     1      28.914   7.414  48.042  1.00  0.00    -0.345 OA
BRANCH  21  22
HETATM   22  C7  UNL     1      30.274   7.463  48.310  1.00  0.00     0.216 C 
BRANCH  22  23
HETATM   23  C6  UNL     1      30.860   8.757  47.904  1.00  0.00    -0.005 A 
HETATM   24  C1  UNL     1      30.517   9.715  48.870  1.00  0.00     0.073 A 
HETATM   25  C2  UNL     1      30.930  11.033  48.785  1.00  0.00     0.143 A 
HETATM   26  F1  UNL     1      30.651  12.020  49.663  1.00  0.00    -0.204 F 
HETATM   27  C3  UNL     1      31.715  11.441  47.712  1.00  0.00     0.044 A 
HETATM   28  C4  UNL     1      32.052  10.516  46.770  1.00  0.00     0.004 A 
HETATM   29  C5  UNL     1      31.634   9.210  46.866  1.00  0.00     0.012 A 
BRANCH  24  30
HETATM   30  N1  UNL     1      29.723   9.523  50.056  1.00  0.00    -0.396 N 
HETATM   31  H1  UNL     1      28.901   8.877  49.997  1.00  0.00     0.156 HD
HETATM   32  H2  UNL     1      30.138  10.102  50.817  1.00  0.00     0.156 HD
ENDBRANCH  24  30
ENDBRANCH  22  23
ENDBRANCH  21  22
ENDBRANCH   1  21
TORSDOF 8
ENDMDL
MODEL 7
REMARK VINA RESULT:      -8.1      7.650     10.166
REMARK  8 active torsions:
REMARK  status: ('A' for Active; 'I' for Inactive)
REMARK    1  A    between atoms: N1_1  and  C1_2 
REMARK    2  A    between atoms: C6_8  and  C7_9 
REMARK    3  A    between atoms: C7_9  and  O1_10 
REMARK    4  A    between atoms: O1_10  and  C8_11 
REMARK    5  A    between atoms: C11_14  and  N2_15 
REMARK    6  A    between atoms: N2_15  and  C12_16 
REMARK    7  A    between atoms: C14_18  and  C15_19 
REMARK    8  A    between atoms: C15_19  and  C16_20 
ROOT
HETATM    1  C8  UNL     1      27.721   6.516  48.613  1.00  0.00     0.091 A 
HETATM    2  C9  UNL     1      27.476   5.164  48.639  1.00  0.00     0.041 A 
HETATM    3  C10 UNL     1      26.417   4.539  49.245  1.00  0.00     0.032 A 
HETATM    4  C11 UNL     1      25.500   5.336  49.896  1.00  0.00     0.034 A 
HETATM    5  C21 UNL     1      25.662   6.722  49.927  1.00  0.00     0.056 A 
HETATM    6  C22 UNL     1      26.770   7.296  49.287  1.00  0.00     0.069 A 
HETATM    7 CL1  UNL     1      26.719   9.040  49.485  1.00  0.00    -0.081 Cl
ENDROOT
BRANCH   4   8
HETATM    8  N2  UNL     1      24.417   4.652  50.511  1.00  0.00    -0.358 N 
HETATM    9  H10 UNL     1      23.617   5.335  50.458  1.00  0.00     0.166 HD
BRANCH   8  10
HETATM   10  C12 UNL     1      24.261   3.370  51.103  1.00  0.00     0.032 A 
HETATM   11  C13 UNL     1      24.799   2.769  52.147  1.00  0.00     0.058 A 
HETATM   12  C14 UNL     1      24.224   1.446  52.238  1.00  0.00     0.053 A 
HETATM   13  N3  UNL     1      23.378   1.268  51.287  1.00  0.00    -0.284 NA
HETATM   14  C20 UNL     1      23.300   2.432  50.473  1.00  0.00     0.206 A 
BRANCH  12  15
HETATM   15  C15 UNL     1      24.564   0.462  53.271  1.00  0.00     0.039 C 
BRANCH  15  16
HETATM   16  C16 UNL     1      25.855   0.151  53.489  1.00  0.00    -0.046 A 
HETATM   17  C17 UNL     1      26.614  -0.608  52.461  1.00  0.00     0.117 A 
HETATM   18  S1  UNL     1      28.260  -0.642  53.241  1.00  0.00    -0.137 SA
HETATM   19  C18 UNL     1      27.804   0.201  54.751  1.00  0.00     0.046 A 
HETATM   20  C19 UNL     1      26.529   0.533  54.696  1.00  0.00     0.015 A 
ENDBRANCH  15  16
ENDBRANCH  12  15
ENDBRANCH   8  10
ENDBRANCH   4   8
BRANCH   1  21
HETATM   21  O1  UNL     1      28.636   7.368  48.122  1.00  0.00    -0.345 OA
BRANCH  21  22
HETATM   22  C7  UNL     1      29.518   7.107  47.084  1.00  0.00     0.216 C 
BRANCH  22  23
HETATM   23  C6  UNL     1      30.743   6.439  47.569  1.00  0.00    -0.005 A 
HETATM   24  C1  UNL     1      31.623   7.426  48.040  1.00  0.00     0.073 A 
HETATM   25  C2  UNL     1      32.862   7.119  48.577  1.00  0.00     0.143 A 
HETATM   26  F1  UNL     1      33.769   7.997  49.053  1.00  0.00    -0.204 F 
HETATM   27  C3  UNL     1      33.264   5.791  48.662  1.00  0.00     0.044 A 
HETATM   28  C4  UNL     1      32.416   4.828  48.208  1.00  0.00     0.004 A 
HETATM   29  C5  UNL     1      31.189   5.146  47.676  1.00  0.00     0.012 A 
BRANCH  24  30
HETATM   30  N1  UNL     1      31.419   8.852  48.054  1.00  0.00    -0.396 N 
HETATM   31  H1  UNL     1      30.660   9.245  47.451  1.00  0.00     0.156 HD
HETATM   32  H2  UNL     1      32.114   9.269  48.709  1.00  0.00     0.156 HD
ENDBRANCH  24  30
ENDBRANCH  22  23
ENDBRANCH  21  22
ENDBRANCH   1  21
TORSDOF 8
ENDMDL
MODEL 8
REMARK VINA RESULT:      -8.1      3.222      4.423
REMARK  8 active torsions:
REMARK  status: ('A' for Active; 'I' for Inactive)
REMARK    1  A    between atoms: N1_1  and  C1_2 
REMARK    2  A    between atoms: C6_8  and  C7_9 
REMARK    3  A    between atoms: C7_9  and  O1_10 
REMARK    4  A    between atoms: O1_10  and  C8_11 
REMARK    5  A    between atoms: C11_14  and  N2_15 
REMARK    6  A    between atoms: N2_15  and  C12_16 
REMARK    7  A    between atoms: C14_18  and  C15_19 
REMARK    8  A    between atoms: C15_19  and  C16_20 
ROOT
HETATM    1  C8  UNL     1      23.540  -0.318  53.801  1.00  0.00     0.091 A 
HETATM    2  C9  UNL     1      22.823  -1.367  54.323  1.00  0.00     0.041 A 
HETATM    3  C10 UNL     1      21.457  -1.501  54.323  1.00  0.00     0.032 A 
HETATM    4  C11 UNL     1      20.723  -0.489  53.743  1.00  0.00     0.034 A 
HETATM    5  C21 UNL     1      21.361   0.620  53.186  1.00  0.00     0.056 A 
HETATM    6  C22 UNL     1      22.761   0.694  53.221  1.00  0.00     0.069 A 
HETATM    7 CL1  UNL     1      23.286   2.184  52.454  1.00  0.00    -0.081 Cl
ENDROOT
BRANCH   4   8
HETATM    8  N2  UNL     1      19.313  -0.665  53.761  1.00  0.00    -0.358 N 
HETATM    9  H10 UNL     1      19.081  -0.791  54.780  1.00  0.00     0.166 HD
BRANCH   8  10
HETATM   10  C12 UNL     1      18.304  -0.692  52.760  1.00  0.00     0.032 A 
HETATM   11  C13 UNL     1      18.188  -0.161  51.558  1.00  0.00     0.058 A 
HETATM   12  C14 UNL     1      16.906  -0.558  51.023  1.00  0.00     0.053 A 
HETATM   13  N3  UNL     1      16.284  -1.295  51.872  1.00  0.00    -0.284 NA
HETATM   14  C20 UNL     1      17.072  -1.466  53.045  1.00  0.00     0.206 A 
BRANCH  12  15
HETATM   15  C15 UNL     1      16.401  -0.169  49.701  1.00  0.00     0.039 C 
BRANCH  15  16
HETATM   16  C16 UNL     1      15.406   0.732  49.612  1.00  0.00    -0.046 A 
HETATM   17  C17 UNL     1      14.095   0.329  49.042  1.00  0.00     0.117 A 
HETATM   18  S1  UNL     1      13.161   1.878  49.263  1.00  0.00    -0.137 SA
HETATM   19  C18 UNL     1      14.500   2.844  49.949  1.00  0.00     0.046 A 
HETATM   20  C19 UNL     1      15.575   2.086  50.056  1.00  0.00     0.015 A 
ENDBRANCH  15  16
ENDBRANCH  12  15
ENDBRANCH   8  10
ENDBRANCH   4   8
BRANCH   1  21
HETATM   21  O1  UNL     1      24.822   0.063  53.668  1.00  0.00    -0.345 OA
BRANCH  21  22
HETATM   22  C7  UNL     1      25.725  -0.429  52.738  1.00  0.00     0.216 C 
BRANCH  22  23
HETATM   23  C6  UNL     1      27.114  -0.069  53.089  1.00  0.00    -0.005 A 
HETATM   24  C1  UNL     1      27.864  -1.252  53.176  1.00  0.00     0.073 A 
HETATM   25  C2  UNL     1      29.215  -1.252  53.477  1.00  0.00     0.143 A 
HETATM   26  F1  UNL     1      30.014  -2.336  53.581  1.00  0.00    -0.204 F 
HETATM   27  C3  UNL     1      29.870  -0.047  53.703  1.00  0.00     0.044 A 
HETATM   28  C4  UNL     1      29.149   1.105  53.619  1.00  0.00     0.004 A 
HETATM   29  C5  UNL     1      27.808   1.092  53.320  1.00  0.00     0.012 A 
BRANCH  24  30
HETATM   30  N1  UNL     1      27.402  -2.603  52.982  1.00  0.00    -0.396 N 
HETATM   31  H1  UNL     1      26.789  -2.797  52.157  1.00  0.00     0.156 HD
HETATM   32  H2  UNL     1      27.789  -3.188  53.753  1.00  0.00     0.156 HD
ENDBRANCH  24  30
ENDBRANCH  22  23
ENDBRANCH  21  22
ENDBRANCH   1  21
TORSDOF 8
ENDMDL
MODEL 9
REMARK VINA RESULT:      -8.1      7.856     13.667
REMARK  8 active torsions:
REMARK  status: ('A' for Active; 'I' for Inactive)
REMARK    1  A    between atoms: N1_1  and  C1_2 
REMARK    2  A    between atoms: C6_8  and  C7_9 
REMARK    3  A    between atoms: C7_9  and  O1_10 
REMARK    4  A    between atoms: O1_10  and  C8_11 
REMARK    5  A    between atoms: C11_14  and  N2_15 
REMARK    6  A    between atoms: N2_15  and  C12_16 
REMARK    7  A    between atoms: C14_18  and  C15_19 
REMARK    8  A    between atoms: C15_19  and  C16_20 
ROOT
HETATM    1  C8  UNL     1      25.459   3.956  50.302  1.00  0.00     0.091 A 
HETATM    2  C9  UNL     1      26.618   3.672  49.621  1.00  0.00     0.041 A 
HETATM    3  C10 UNL     1      27.365   4.552  48.880  1.00  0.00     0.032 A 
HETATM    4  C11 UNL     1      26.919   5.853  48.805  1.00  0.00     0.034 A 
HETATM    5  C21 UNL     1      25.750   6.241  49.463  1.00  0.00     0.056 A 
HETATM    6  C22 UNL     1      25.033   5.289  50.203  1.00  0.00     0.069 A 
HETATM    7 CL1  UNL     1      23.620   6.049  50.916  1.00  0.00    -0.081 Cl
ENDROOT
BRANCH   4   8
HETATM    8  N2  UNL     1      27.720   6.735  48.030  1.00  0.00    -0.358 N 
HETATM    9  H10 UNL     1      27.023   7.323  47.505  1.00  0.00     0.166 HD
BRANCH   8  10
HETATM   10  C12 UNL     1      29.120   6.924  47.873  1.00  0.00     0.032 A 
HETATM   11  C13 UNL     1      30.020   6.460  47.027  1.00  0.00     0.058 A 
HETATM   12  C14 UNL     1      31.298   7.029  47.389  1.00  0.00     0.053 A 
HETATM   13  N3  UNL     1      31.163   7.801  48.408  1.00  0.00    -0.284 NA
HETATM   14  C20 UNL     1      29.804   7.828  48.828  1.00  0.00     0.206 A 
BRANCH  12  15
HETATM   15  C15 UNL     1      32.557   6.759  46.685  1.00  0.00     0.039 C 
BRANCH  15  16
HETATM   16  C16 UNL     1      33.185   5.585  46.882  1.00  0.00    -0.046 A 
HETATM   17  C17 UNL     1      34.270   5.490  47.893  1.00  0.00     0.117 A 
HETATM   18  S1  UNL     1      34.654   3.712  47.781  1.00  0.00    -0.137 SA
HETATM   19  C18 UNL     1      33.504   3.322  46.469  1.00  0.00     0.046 A 
HETATM   20  C19 UNL     1      32.836   4.410  46.137  1.00  0.00     0.015 A 
ENDBRANCH  15  16
ENDBRANCH  12  15
ENDBRANCH   8  10
ENDBRANCH   4   8
BRANCH   1  21
HETATM   21  O1  UNL     1      24.558   3.324  51.072  1.00  0.00    -0.345 OA
BRANCH  21  22
HETATM   22  C7  UNL     1      24.587   3.234  52.455  1.00  0.00     0.216 C 
BRANCH  22  23
HETATM   23  C6  UNL     1      24.642   1.829  52.907  1.00  0.00    -0.005 A 
HETATM   24  C1  UNL     1      25.832   1.647  53.628  1.00  0.00     0.073 A 
HETATM   25  C2  UNL     1      26.173   0.433  54.200  1.00  0.00     0.143 A 
HETATM   26  F1  UNL     1      27.291   0.167  54.909  1.00  0.00    -0.204 F 
HETATM   27  C3  UNL     1      25.318  -0.655  54.066  1.00  0.00     0.044 A 
HETATM   28  C4  UNL     1      24.162  -0.486  53.367  1.00  0.00     0.004 A 
HETATM   29  C5  UNL     1      23.835   0.724  52.803  1.00  0.00     0.012 A 
BRANCH  24  30
HETATM   30  N1  UNL     1      26.857   2.623  53.895  1.00  0.00    -0.396 N 
HETATM   31  H1  UNL     1      27.745   2.565  53.346  1.00  0.00     0.156 HD
HETATM   32  H2  UNL     1      26.506   3.260  54.642  1.00  0.00     0.156 HD
ENDBRANCH  24  30
ENDBRANCH  22  23
ENDBRANCH  21  22
ENDBRANCH   1  21
TORSDOF 8
ENDMDL
