MODEL 1
REMARK VINA RESULT:      -8.2      0.000      0.000
REMARK  4 active torsions:
REMARK  status: ('A' for Active; 'I' for Inactive)
REMARK    1  A    between atoms: C3_3  and  C4_4 
REMARK    2  A    between atoms: C3_3  and  N1_8 
REMARK    3  A    between atoms: N1_8  and  C7_9 
REMARK    4  A    between atoms: C10_12  and  N2_13 
REMARK       I    between atoms: N2_13  and  C11_14 
REMARK       I    between atoms: C11_14  and  N3_15 
ROOT
HETATM    1  C1  UNL     1      27.608   6.293  48.207  1.00  0.00     0.099 C 
HETATM    2  C2  UNL     1      26.812   5.527  48.912  1.00  0.00    -0.126 C 
HETATM    3  C3  UNL     1      25.978   4.834  49.666  1.00  0.00     0.077 C 
ENDROOT
BRANCH   3   4
HETATM    4  C4  UNL     1      24.917   5.573  50.296  1.00  0.00     0.057 C 
HETATM    5  C5  UNL     1      23.771   6.041  49.855  1.00  0.00     0.010 C 
HETATM    6  C6  UNL     1      22.836   6.789  50.737  1.00  0.00     0.062 C 
HETATM    7 CL1  UNL     1      23.257   5.822  48.195  1.00  0.00    -0.089 Cl
ENDBRANCH   3   4
BRANCH   3   8
HETATM    8  N1  UNL     1      26.299   3.475  49.707  1.00  0.00    -0.335 N 
HETATM    9  H7  UNL     1      26.953   3.052  49.006  1.00  0.00     0.168 HD
BRANCH   8  10
HETATM   10  C7  UNL     1      25.765   2.611  50.685  1.00  0.00     0.129 C 
HETATM   11  C8  UNL     1      26.722   1.825  51.284  1.00  0.00     0.053 C 
HETATM   12  C9  UNL     1      26.561   0.549  51.786  1.00  0.00     0.033 C 
HETATM   13  C10 UNL     1      26.359  -0.155  52.957  1.00  0.00     0.036 C 
HETATM   14  C12 UNL     1      25.236  -0.024  53.752  1.00  0.00     0.031 C 
HETATM   15  C13 UNL     1      23.912  -0.221  53.405  1.00  0.00     0.021 C 
HETATM   16  C14 UNL     1      23.222   0.594  52.507  1.00  0.00     0.118 C 
HETATM   17  N4  UNL     1      23.356   1.849  53.013  1.00  0.00    -0.254 NA
HETATM   18  C15 UNL     1      24.208   2.671  52.363  1.00  0.00     0.234 C 
HETATM   19  N5  UNL     1      24.479   2.495  51.062  1.00  0.00    -0.225 NA
BRANCH  13  20
HETATM   20  N2  UNL     1      27.353  -1.067  53.374  1.00  0.00    -0.309 N 
HETATM   21  C11 UNL     1      27.520  -2.362  52.817  1.00  0.00     0.318 C 
HETATM   22  N3  UNL     1      28.538  -3.280  53.252  1.00  0.00    -0.352 N 
HETATM   23  O1  UNL     1      26.761  -2.762  51.897  1.00  0.00    -0.247 OA
HETATM   24  H11 UNL     1      28.816  -3.816  54.126  1.00  0.00     0.160 HD
HETATM   25  H12 UNL     1      29.242  -3.529  52.527  1.00  0.00     0.160 HD
HETATM   26  H10 UNL     1      28.044  -0.857  54.127  1.00  0.00     0.170 HD
ENDBRANCH  13  20
ENDBRANCH   8  10
ENDBRANCH   3   8
TORSDOF 4
ENDMDL
MODEL 2
REMARK VINA RESULT:      -8.0      2.489      3.416
REMARK  4 active torsions:
REMARK  status: ('A' for Active; 'I' for Inactive)
REMARK    1  A    between atoms: C3_3  and  C4_4 
REMARK    2  A    between atoms: C3_3  and  N1_8 
REMARK    3  A    between atoms: N1_8  and  C7_9 
REMARK    4  A    between atoms: C10_12  and  N2_13 
REMARK       I    between atoms: N2_13  and  C11_14 
REMARK       I    between atoms: C11_14  and  N3_15 
ROOT
HETATM    1  C1  UNL     1      22.570   2.280  47.787  1.00  0.00     0.099 C 
HETATM    2  C2  UNL     1      23.020   3.069  48.731  1.00  0.00    -0.126 C 
HETATM    3  C3  UNL     1      23.557   3.871  49.634  1.00  0.00     0.077 C 
ENDROOT
BRANCH   3   4
HETATM    4  C4  UNL     1      24.714   4.618  49.221  1.00  0.00     0.057 C 
HETATM    5  C5  UNL     1      26.003   4.360  49.254  1.00  0.00     0.010 C 
HETATM    6  C6  UNL     1      27.012   5.329  48.750  1.00  0.00     0.062 C 
HETATM    7 CL1  UNL     1      26.631   2.856  49.896  1.00  0.00    -0.089 Cl
ENDBRANCH   3   4
BRANCH   3   8
HETATM    8  N1  UNL     1      22.875   3.834  50.853  1.00  0.00    -0.335 N 
HETATM    9  H7  UNL     1      22.431   4.697  51.251  1.00  0.00     0.168 HD
BRANCH   8  10
HETATM   10  C7  UNL     1      22.749   2.647  51.602  1.00  0.00     0.129 C 
HETATM   11  C8  UNL     1      23.947   2.212  52.121  1.00  0.00     0.053 C 
HETATM   12  C9  UNL     1      24.331   0.908  52.358  1.00  0.00     0.033 C 
HETATM   13  C10 UNL     1      24.441  -0.042  53.354  1.00  0.00     0.036 C 
HETATM   14  C12 UNL     1      23.367  -0.545  54.062  1.00  0.00     0.031 C 
HETATM   15  C13 UNL     1      22.244  -1.188  53.575  1.00  0.00     0.021 C 
HETATM   16  C14 UNL     1      21.276  -0.558  52.792  1.00  0.00     0.118 C 
HETATM   17  N4  UNL     1      20.877   0.509  53.534  1.00  0.00    -0.254 NA
HETATM   18  C15 UNL     1      21.310   1.721  53.125  1.00  0.00     0.234 C 
HETATM   19  N5  UNL     1      21.627   1.943  51.841  1.00  0.00    -0.225 NA
BRANCH  13  20
HETATM   20  N2  UNL     1      25.725  -0.535  53.674  1.00  0.00    -0.309 N 
HETATM   21  C11 UNL     1      26.669   0.173  54.463  1.00  0.00     0.318 C 
HETATM   22  N3  UNL     1      27.974  -0.342  54.780  1.00  0.00    -0.352 N 
HETATM   23  O1  UNL     1      26.388   1.309  54.925  1.00  0.00    -0.247 OA
HETATM   24  H11 UNL     1      28.869  -0.623  54.283  1.00  0.00     0.160 HD
HETATM   25  H12 UNL     1      28.144  -0.507  55.793  1.00  0.00     0.160 HD
HETATM   26  H10 UNL     1      26.080  -1.463  53.353  1.00  0.00     0.170 HD
ENDBRANCH  13  20
ENDBRANCH   8  10
ENDBRANCH   3   8
TORSDOF 4
ENDMDL
MODEL 3
REMARK VINA RESULT:      -7.8      2.416      3.773
REMARK  4 active torsions:
REMARK  status: ('A' for Active; 'I' for Inactive)
REMARK    1  A    between atoms: C3_3  and  C4_4 
REMARK    2  A    between atoms: C3_3  and  N1_8 
REMARK    3  A    between atoms: N1_8  and  C7_9 
REMARK    4  A    between atoms: C10_12  and  N2_13 
REMARK       I    between atoms: N2_13  and  C11_14 
REMARK       I    between atoms: C11_14  and  N3_15 
ROOT
HETATM    1  C1  UNL     1      27.184   4.361  48.963  1.00  0.00     0.099 C 
HETATM    2  C2  UNL     1      26.011   4.469  49.537  1.00  0.00    -0.126 C 
HETATM    3  C3  UNL     1      24.799   4.625  50.039  1.00  0.00     0.077 C 
ENDROOT
BRANCH   3   4
HETATM    4  C4  UNL     1      23.757   4.960  49.106  1.00  0.00     0.057 C 
HETATM    5  C5  UNL     1      22.945   4.231  48.374  1.00  0.00     0.010 C 
HETATM    6  C6  UNL     1      21.935   4.845  47.471  1.00  0.00     0.062 C 
HETATM    7 CL1  UNL     1      22.990   2.480  48.404  1.00  0.00    -0.089 Cl
ENDBRANCH   3   4
BRANCH   3   8
HETATM    8  N1  UNL     1      24.764   4.429  51.422  1.00  0.00    -0.335 N 
HETATM    9  H7  UNL     1      24.650   5.236  52.081  1.00  0.00     0.168 HD
BRANCH   8  10
HETATM   10  C7  UNL     1      24.880   3.146  51.996  1.00  0.00     0.129 C 
HETATM   11  C8  UNL     1      23.721   2.411  51.900  1.00  0.00     0.053 C 
HETATM   12  C9  UNL     1      23.261   1.457  52.785  1.00  0.00     0.033 C 
HETATM   13  C10 UNL     1      23.192   0.094  52.996  1.00  0.00     0.036 C 
HETATM   14  C12 UNL     1      24.298  -0.717  53.162  1.00  0.00     0.031 C 
HETATM   15  C13 UNL     1      25.297  -0.622  54.114  1.00  0.00     0.021 C 
HETATM   16  C14 UNL     1      26.212   0.430  54.164  1.00  0.00     0.118 C 
HETATM   17  N4  UNL     1      26.785   0.445  52.932  1.00  0.00    -0.254 NA
HETATM   18  C15 UNL     1      26.409   1.445  52.106  1.00  0.00     0.234 C 
HETATM   19  N5  UNL     1      25.959   2.610  52.594  1.00  0.00    -0.225 NA
BRANCH  13  20
HETATM   20  N2  UNL     1      21.920  -0.516  53.047  1.00  0.00    -0.309 N 
HETATM   21  C11 UNL     1      21.327  -1.008  54.239  1.00  0.00     0.318 C 
HETATM   22  N3  UNL     1      20.029  -1.627  54.276  1.00  0.00    -0.352 N 
HETATM   23  O1  UNL     1      21.934  -0.916  55.337  1.00  0.00    -0.247 OA
HETATM   24  H11 UNL     1      19.537  -2.485  53.890  1.00  0.00     0.160 HD
HETATM   25  H12 UNL     1      19.317  -1.118  54.838  1.00  0.00     0.160 HD
HETATM   26  H10 UNL     1      21.315  -0.652  52.207  1.00  0.00     0.170 HD
ENDBRANCH  13  20
ENDBRANCH   8  10
ENDBRANCH   3   8
TORSDOF 4
ENDMDL
MODEL 4
REMARK VINA RESULT:      -7.7      1.945      2.028
REMARK  4 active torsions:
REMARK  status: ('A' for Active; 'I' for Inactive)
REMARK    1  A    between atoms: C3_3  and  C4_4 
REMARK    2  A    between atoms: C3_3  and  N1_8 
REMARK    3  A    between atoms: N1_8  and  C7_9 
REMARK    4  A    between atoms: C10_12  and  N2_13 
REMARK       I    between atoms: N2_13  and  C11_14 
REMARK       I    between atoms: C11_14  and  N3_15 
ROOT
HETATM    1  C1  UNL     1      28.908   6.463  47.840  1.00  0.00     0.099 C 
HETATM    2  C2  UNL     1      27.843   5.946  48.401  1.00  0.00    -0.126 C 
HETATM    3  C3  UNL     1      26.760   5.506  49.018  1.00  0.00     0.077 C 
ENDROOT
BRANCH   3   4
HETATM    4  C4  UNL     1      25.932   6.499  49.646  1.00  0.00     0.057 C 
HETATM    5  C5  UNL     1      24.725   6.951  49.385  1.00  0.00     0.010 C 
HETATM    6  C6  UNL     1      24.085   8.007  50.215  1.00  0.00     0.062 C 
HETATM    7 CL1  UNL     1      23.779   6.346  48.041  1.00  0.00    -0.089 Cl
ENDBRANCH   3   4
BRANCH   3   8
HETATM    8  N1  UNL     1      26.627   4.117  48.936  1.00  0.00    -0.335 N 
HETATM    9  H7  UNL     1      27.107   3.571  48.181  1.00  0.00     0.168 HD
BRANCH   8  10
HETATM   10  C7  UNL     1      25.849   3.387  49.857  1.00  0.00     0.129 C 
HETATM   11  C8  UNL     1      26.609   2.713  50.784  1.00  0.00     0.053 C 
HETATM   12  C9  UNL     1      26.306   1.516  51.403  1.00  0.00     0.033 C 
HETATM   13  C10 UNL     1      25.802   0.978  52.570  1.00  0.00     0.036 C 
HETATM   14  C12 UNL     1      24.515   1.195  53.026  1.00  0.00     0.031 C 
HETATM   15  C13 UNL     1      23.321   0.922  52.385  1.00  0.00     0.021 C 
HETATM   16  C14 UNL     1      22.896   1.589  51.235  1.00  0.00     0.118 C 
HETATM   17  N4  UNL     1      22.914   2.905  51.576  1.00  0.00    -0.254 NA
HETATM   18  C15 UNL     1      23.915   3.646  51.057  1.00  0.00     0.234 C 
HETATM   19  N5  UNL     1      24.507   3.296  49.906  1.00  0.00    -0.225 NA
BRANCH  13  20
HETATM   20  N2  UNL     1      26.643   0.156  53.350  1.00  0.00    -0.309 N 
HETATM   21  C11 UNL     1      27.599   0.654  54.274  1.00  0.00     0.318 C 
HETATM   22  N3  UNL     1      28.450  -0.196  55.062  1.00  0.00    -0.352 N 
HETATM   23  O1  UNL     1      27.738   1.894  54.439  1.00  0.00    -0.247 OA
HETATM   24  H11 UNL     1      29.223  -0.911  54.922  1.00  0.00     0.160 HD
HETATM   25  H12 UNL     1      28.304  -0.129  56.090  1.00  0.00     0.160 HD
HETATM   26  H10 UNL     1      26.626  -0.887  53.307  1.00  0.00     0.170 HD
ENDBRANCH  13  20
ENDBRANCH   8  10
ENDBRANCH   3   8
TORSDOF 4
ENDMDL
MODEL 5
REMARK VINA RESULT:      -7.7      2.534      4.211
REMARK  4 active torsions:
REMARK  status: ('A' for Active; 'I' for Inactive)
REMARK    1  A    between atoms: C3_3  and  C4_4 
REMARK    2  A    between atoms: C3_3  and  N1_8 
REMARK    3  A    between atoms: N1_8  and  C7_9 
REMARK    4  A    between atoms: C10_12  and  N2_13 
REMARK       I    between atoms: N2_13  and  C11_14 
REMARK       I    between atoms: C11_14  and  N3_15 
ROOT
HETATM    1  C1  UNL     1      23.438   3.172  48.498  1.00  0.00     0.099 C 
HETATM    2  C2  UNL     1      24.378   3.496  49.351  1.00  0.00    -0.126 C 
HETATM    3  C3  UNL     1      25.390   3.806  50.142  1.00  0.00     0.077 C 
ENDROOT
BRANCH   3   4
HETATM    4  C4  UNL     1      26.640   4.104  49.496  1.00  0.00     0.057 C 
HETATM    5  C5  UNL     1      27.071   5.145  48.820  1.00  0.00     0.010 C 
HETATM    6  C6  UNL     1      28.442   5.198  48.245  1.00  0.00     0.062 C 
HETATM    7 CL1  UNL     1      26.062   6.550  48.540  1.00  0.00    -0.089 Cl
ENDBRANCH   3   4
BRANCH   3   8
HETATM    8  N1  UNL     1      25.037   3.784  51.494  1.00  0.00    -0.335 N 
HETATM    9  H7  UNL     1      24.676   4.643  51.973  1.00  0.00     0.168 HD
BRANCH   8  10
HETATM   10  C7  UNL     1      25.149   2.615  52.274  1.00  0.00     0.129 C 
HETATM   11  C8  UNL     1      24.086   1.758  52.109  1.00  0.00     0.053 C 
HETATM   12  C9  UNL     1      23.552   0.897  53.047  1.00  0.00     0.033 C 
HETATM   13  C10 UNL     1      23.554  -0.422  53.456  1.00  0.00     0.036 C 
HETATM   14  C12 UNL     1      24.673  -1.083  53.925  1.00  0.00     0.031 C 
HETATM   15  C13 UNL     1      25.478  -0.750  54.999  1.00  0.00     0.021 C 
HETATM   16  C14 UNL     1      26.285   0.388  55.032  1.00  0.00     0.118 C 
HETATM   17  N4  UNL     1      27.064   0.287  53.922  1.00  0.00    -0.254 NA
HETATM   18  C15 UNL     1      26.762   1.114  52.899  1.00  0.00     0.234 C 
HETATM   19  N5  UNL     1      26.144   2.284  53.117  1.00  0.00    -0.225 NA
BRANCH  13  20
HETATM   20  N2  UNL     1      22.344  -1.147  53.394  1.00  0.00    -0.309 N 
HETATM   21  C11 UNL     1      21.224  -0.885  54.227  1.00  0.00     0.318 C 
HETATM   22  N3  UNL     1      19.997  -1.632  54.153  1.00  0.00    -0.352 N 
HETATM   23  O1  UNL     1      21.268   0.037  55.082  1.00  0.00    -0.247 OA
HETATM   24  H11 UNL     1      19.650  -2.624  54.304  1.00  0.00     0.160 HD
HETATM   25  H12 UNL     1      19.163  -1.077  53.870  1.00  0.00     0.160 HD
HETATM   26  H10 UNL     1      22.180  -1.934  52.729  1.00  0.00     0.170 HD
ENDBRANCH  13  20
ENDBRANCH   8  10
ENDBRANCH   3   8
TORSDOF 4
ENDMDL
MODEL 6
REMARK VINA RESULT:      -7.6      2.232      3.068
REMARK  4 active torsions:
REMARK  status: ('A' for Active; 'I' for Inactive)
REMARK    1  A    between atoms: C3_3  and  C4_4 
REMARK    2  A    between atoms: C3_3  and  N1_8 
REMARK    3  A    between atoms: N1_8  and  C7_9 
REMARK    4  A    between atoms: C10_12  and  N2_13 
REMARK       I    between atoms: N2_13  and  C11_14 
REMARK       I    between atoms: C11_14  and  N3_15 
ROOT
HETATM    1  C1  UNL     1      23.612   6.563  51.338  1.00  0.00     0.099 C 
HETATM    2  C2  UNL     1      24.280   5.984  50.371  1.00  0.00    -0.126 C 
HETATM    3  C3  UNL     1      24.971   5.488  49.360  1.00  0.00     0.077 C 
ENDROOT
BRANCH   3   4
HETATM    4  C4  UNL     1      25.837   6.401  48.665  1.00  0.00     0.057 C 
HETATM    5  C5  UNL     1      27.086   6.317  48.264  1.00  0.00     0.010 C 
HETATM    6  C6  UNL     1      27.758   7.434  47.548  1.00  0.00     0.062 C 
HETATM    7 CL1  UNL     1      28.055   4.884  48.541  1.00  0.00    -0.089 Cl
ENDBRANCH   3   4
BRANCH   3   8
HETATM    8  N1  UNL     1      24.716   4.129  49.157  1.00  0.00    -0.335 N 
HETATM    9  H7  UNL     1      24.565   3.744  48.194  1.00  0.00     0.168 HD
BRANCH   8  10
HETATM   10  C7  UNL     1      24.651   3.213  50.227  1.00  0.00     0.129 C 
HETATM   11  C8  UNL     1      25.885   2.938  50.771  1.00  0.00     0.053 C 
HETATM   12  C9  UNL     1      26.296   1.756  51.354  1.00  0.00     0.033 C 
HETATM   13  C10 UNL     1      26.481   1.137  52.575  1.00  0.00     0.036 C 
HETATM   14  C12 UNL     1      25.460   0.874  53.467  1.00  0.00     0.031 C 
HETATM   15  C13 UNL     1      24.314   0.127  53.263  1.00  0.00     0.021 C 
HETATM   16  C14 UNL     1      23.291   0.511  52.395  1.00  0.00     0.118 C 
HETATM   17  N4  UNL     1      22.930   1.752  52.817  1.00  0.00    -0.254 NA
HETATM   18  C15 UNL     1      23.324   2.787  52.044  1.00  0.00     0.234 C 
HETATM   19  N5  UNL     1      23.555   2.621  50.734  1.00  0.00    -0.225 NA
BRANCH  13  20
HETATM   20  N2  UNL     1      27.787   0.747  52.940  1.00  0.00    -0.309 N 
HETATM   21  C11 UNL     1      28.653   1.539  53.740  1.00  0.00     0.318 C 
HETATM   22  N3  UNL     1      29.982   1.128  54.104  1.00  0.00    -0.352 N 
HETATM   23  O1  UNL     1      28.276   2.659  54.169  1.00  0.00    -0.247 OA
HETATM   24  H11 UNL     1      30.910   0.904  53.638  1.00  0.00     0.160 HD
HETATM   25  H12 UNL     1      30.135   0.995  55.125  1.00  0.00     0.160 HD
HETATM   26  H10 UNL     1      28.218  -0.158  52.648  1.00  0.00     0.170 HD
ENDBRANCH  13  20
ENDBRANCH   8  10
ENDBRANCH   3   8
TORSDOF 4
ENDMDL
MODEL 7
REMARK VINA RESULT:      -7.6      3.588      5.819
REMARK  4 active torsions:
REMARK  status: ('A' for Active; 'I' for Inactive)
REMARK    1  A    between atoms: C3_3  and  C4_4 
REMARK    2  A    between atoms: C3_3  and  N1_8 
REMARK    3  A    between atoms: N1_8  and  C7_9 
REMARK    4  A    between atoms: C10_12  and  N2_13 
REMARK       I    between atoms: N2_13  and  C11_14 
REMARK       I    between atoms: C11_14  and  N3_15 
ROOT
HETATM    1  C1  UNL     1      26.622   3.031  49.615  1.00  0.00     0.099 C 
HETATM    2  C2  UNL     1      26.554   2.683  50.876  1.00  0.00    -0.126 C 
HETATM    3  C3  UNL     1      26.527   2.249  52.123  1.00  0.00     0.077 C 
ENDROOT
BRANCH   3   4
HETATM    4  C4  UNL     1      27.414   1.163  52.443  1.00  0.00     0.057 C 
HETATM    5  C5  UNL     1      27.207  -0.064  52.866  1.00  0.00     0.010 C 
HETATM    6  C6  UNL     1      28.328  -1.006  53.125  1.00  0.00     0.062 C 
HETATM    7 CL1  UNL     1      25.595  -0.684  53.158  1.00  0.00    -0.089 Cl
ENDBRANCH   3   4
BRANCH   3   8
HETATM    8  N1  UNL     1      25.614   2.952  52.914  1.00  0.00    -0.335 N 
HETATM    9  H7  UNL     1      25.907   3.391  53.819  1.00  0.00     0.168 HD
BRANCH   8  10
HETATM   10  C7  UNL     1      24.264   3.106  52.536  1.00  0.00     0.129 C 
HETATM   11  C8  UNL     1      23.479   2.041  52.913  1.00  0.00     0.053 C 
HETATM   12  C9  UNL     1      22.362   1.555  52.265  1.00  0.00     0.033 C 
HETATM   13  C10 UNL     1      20.981   1.583  52.282  1.00  0.00     0.036 C 
HETATM   14  C12 UNL     1      20.230   2.726  52.086  1.00  0.00     0.031 C 
HETATM   15  C13 UNL     1      20.232   3.577  50.996  1.00  0.00     0.021 C 
HETATM   16  C14 UNL     1      21.320   4.379  50.649  1.00  0.00     0.118 C 
HETATM   17  N4  UNL     1      21.580   5.106  51.768  1.00  0.00    -0.254 NA
HETATM   18  C15 UNL     1      22.676   4.754  52.473  1.00  0.00     0.234 C 
HETATM   19  N5  UNL     1      23.709   4.140  51.879  1.00  0.00    -0.225 NA
BRANCH  13  20
HETATM   20  N2  UNL     1      20.287   0.375  52.513  1.00  0.00    -0.309 N 
HETATM   21  C11 UNL     1      20.201  -0.256  53.782  1.00  0.00     0.318 C 
HETATM   22  N3  UNL     1      19.491  -1.487  54.002  1.00  0.00    -0.352 N 
HETATM   23  O1  UNL     1      20.759   0.256  54.786  1.00  0.00    -0.247 OA
HETATM   24  H11 UNL     1      19.532  -2.504  53.699  1.00  0.00     0.160 HD
HETATM   25  H12 UNL     1      18.678  -1.414  54.647  1.00  0.00     0.160 HD
HETATM   26  H10 UNL     1      19.783  -0.149  51.764  1.00  0.00     0.170 HD
ENDBRANCH  13  20
ENDBRANCH   8  10
ENDBRANCH   3   8
TORSDOF 4
ENDMDL
MODEL 8
REMARK VINA RESULT:      -7.5      2.405      2.976
REMARK  4 active torsions:
REMARK  status: ('A' for Active; 'I' for Inactive)
REMARK    1  A    between atoms: C3_3  and  C4_4 
REMARK    2  A    between atoms: C3_3  and  N1_8 
REMARK    3  A    between atoms: N1_8  and  C7_9 
REMARK    4  A    between atoms: C10_12  and  N2_13 
REMARK       I    between atoms: N2_13  and  C11_14 
REMARK       I    between atoms: C11_14  and  N3_15 
ROOT
HETATM    1  C1  UNL     1      26.396   4.625  49.119  1.00  0.00     0.099 C 
HETATM    2  C2  UNL     1      25.112   4.525  49.356  1.00  0.00    -0.126 C 
HETATM    3  C3  UNL     1      23.801   4.458  49.507  1.00  0.00     0.077 C 
ENDROOT
BRANCH   3   4
HETATM    4  C4  UNL     1      23.014   4.496  48.304  1.00  0.00     0.057 C 
HETATM    5  C5  UNL     1      22.410   3.562  47.602  1.00  0.00     0.010 C 
HETATM    6  C6  UNL     1      21.644   3.880  46.368  1.00  0.00     0.062 C 
HETATM    7 CL1  UNL     1      22.464   1.874  48.065  1.00  0.00    -0.089 Cl
ENDBRANCH   3   4
BRANCH   3   8
HETATM    8  N1  UNL     1      23.422   4.362  50.849  1.00  0.00    -0.335 N 
HETATM    9  H7  UNL     1      23.314   5.218  51.444  1.00  0.00     0.168 HD
BRANCH   8  10
HETATM   10  C7  UNL     1      23.170   3.119  51.465  1.00  0.00     0.129 C 
HETATM   11  C8  UNL     1      24.288   2.580  52.059  1.00  0.00     0.053 C 
HETATM   12  C9  UNL     1      24.592   1.242  52.210  1.00  0.00     0.033 C 
HETATM   13  C10 UNL     1      24.557   0.201  53.117  1.00  0.00     0.036 C 
HETATM   14  C12 UNL     1      23.395  -0.310  53.661  1.00  0.00     0.031 C 
HETATM   15  C13 UNL     1      22.304  -0.849  53.003  1.00  0.00     0.021 C 
HETATM   16  C14 UNL     1      21.452  -0.102  52.188  1.00  0.00     0.118 C 
HETATM   17  N4  UNL     1      21.019   0.912  52.984  1.00  0.00    -0.254 NA
HETATM   18  C15 UNL     1      21.542   2.133  52.738  1.00  0.00     0.234 C 
HETATM   19  N5  UNL     1      22.002   2.453  51.521  1.00  0.00    -0.225 NA
BRANCH  13  20
HETATM   20  N2  UNL     1      25.779  -0.382  53.517  1.00  0.00    -0.309 N 
HETATM   21  C11 UNL     1      26.707   0.248  54.387  1.00  0.00     0.318 C 
HETATM   22  N3  UNL     1      27.949  -0.359  54.786  1.00  0.00    -0.352 N 
HETATM   23  O1  UNL     1      26.468   1.391  54.852  1.00  0.00    -0.247 OA
HETATM   24  H11 UNL     1      28.857  -0.692  54.349  1.00  0.00     0.160 HD
HETATM   25  H12 UNL     1      28.033  -0.553  55.805  1.00  0.00     0.160 HD
HETATM   26  H10 UNL     1      26.094  -1.326  53.202  1.00  0.00     0.170 HD
ENDBRANCH  13  20
ENDBRANCH   8  10
ENDBRANCH   3   8
TORSDOF 4
ENDMDL
MODEL 9
REMARK VINA RESULT:      -7.4      3.563      6.902
REMARK  4 active torsions:
REMARK  status: ('A' for Active; 'I' for Inactive)
REMARK    1  A    between atoms: C3_3  and  C4_4 
REMARK    2  A    between atoms: C3_3  and  N1_8 
REMARK    3  A    between atoms: N1_8  and  C7_9 
REMARK    4  A    between atoms: C10_12  and  N2_13 
REMARK       I    between atoms: N2_13  and  C11_14 
REMARK       I    between atoms: C11_14  and  N3_15 
ROOT
HETATM    1  C1  UNL     1      24.425  -0.926  55.140  1.00  0.00     0.099 C 
HETATM    2  C2  UNL     1      25.193  -0.576  54.139  1.00  0.00    -0.126 C 
HETATM    3  C3  UNL     1      26.038  -0.211  53.191  1.00  0.00     0.077 C 
ENDROOT
BRANCH   3   4
HETATM    4  C4  UNL     1      27.437  -0.278  53.519  1.00  0.00     0.057 C 
HETATM    5  C5  UNL     1      28.383   0.631  53.586  1.00  0.00     0.010 C 
HETATM    6  C6  UNL     1      29.781   0.285  53.959  1.00  0.00     0.062 C 
HETATM    7 CL1  UNL     1      28.073   2.320  53.238  1.00  0.00    -0.089 Cl
ENDBRANCH   3   4
BRANCH   3   8
HETATM    8  N1  UNL     1      25.388   0.182  52.018  1.00  0.00    -0.335 N 
HETATM    9  H7  UNL     1      25.739  -0.120  51.078  1.00  0.00     0.168 HD
BRANCH   8  10
HETATM   10  C7  UNL     1      24.238   0.997  52.040  1.00  0.00     0.129 C 
HETATM   11  C8  UNL     1      24.531   2.339  51.966  1.00  0.00     0.053 C 
HETATM   12  C9  UNL     1      23.821   3.382  52.526  1.00  0.00     0.033 C 
HETATM   13  C10 UNL     1      22.891   4.360  52.236  1.00  0.00     0.036 C 
HETATM   14  C12 UNL     1      21.599   4.098  51.822  1.00  0.00     0.031 C 
HETATM   15  C13 UNL     1      20.623   3.364  52.472  1.00  0.00     0.021 C 
HETATM   16  C14 UNL     1      20.707   1.987  52.679  1.00  0.00     0.118 C 
HETATM   17  N4  UNL     1      20.888   1.464  51.438  1.00  0.00    -0.254 NA
HETATM   18  C15 UNL     1      22.128   1.013  51.150  1.00  0.00     0.234 C 
HETATM   19  N5  UNL     1      22.954   0.601  52.122  1.00  0.00    -0.225 NA
BRANCH  13  20
HETATM   20  N2  UNL     1      23.274   5.713  52.367  1.00  0.00    -0.309 N 
HETATM   21  C11 UNL     1      23.913   6.456  51.339  1.00  0.00     0.318 C 
HETATM   22  N3  UNL     1      24.298   7.834  51.488  1.00  0.00    -0.352 N 
HETATM   23  O1  UNL     1      24.170   5.919  50.232  1.00  0.00    -0.247 OA
HETATM   24  H11 UNL     1      24.954   8.425  52.077  1.00  0.00     0.160 HD
HETATM   25  H12 UNL     1      23.815   8.494  50.845  1.00  0.00     0.160 HD
HETATM   26  H10 UNL     1      23.117   6.272  53.235  1.00  0.00     0.170 HD
ENDBRANCH  13  20
ENDBRANCH   8  10
ENDBRANCH   3   8
TORSDOF 4
ENDMDL
