MODEL 1
REMARK VINA RESULT:      -7.7      0.000      0.000
REMARK  1 active torsions:
REMARK  status: ('A' for Active; 'I' for Inactive)
REMARK    1  A    between atoms: C3_3  and  N1_4 
ROOT
HETATM    1  C1  UNL     1      26.399  -0.084  52.225  1.00  0.00     0.001 C 
HETATM    2  C2  UNL     1      25.587   0.996  52.074  1.00  0.00     0.000 C 
HETATM    3  C3  UNL     1      24.149   1.354  51.679  1.00  0.00     0.131 C 
HETATM    4  C8  UNL     1      23.331   0.376  52.558  1.00  0.00    -0.048 C 
HETATM    5  C9  UNL     1      22.180  -0.148  52.335  1.00  0.00     0.000 C 
HETATM    6  C10 UNL     1      21.737  -1.049  53.455  1.00  0.00     0.175 C 
HETATM    7  N2  UNL     1      22.658  -1.100  54.472  1.00  0.00    -0.300 NA
HETATM    8  C11 UNL     1      22.714  -1.839  55.465  1.00  0.00     0.109 C 
HETATM    9  C12 UNL     1      23.984  -1.157  55.913  1.00  0.00     0.214 C 
HETATM   10  O2  UNL     1      24.998  -1.240  54.920  1.00  0.00    -0.378 OA
HETATM   11  C13 UNL     1      25.412  -0.058  54.245  1.00  0.00     0.078 C 
HETATM   12  C14 UNL     1      24.370   0.055  53.485  1.00  0.00     0.137 C 
HETATM   13  C15 UNL     1      26.750   0.439  54.729  1.00  0.00     0.302 C 
HETATM   14  N3  UNL     1      27.792  -0.434  54.080  1.00  0.00     0.089 N 
HETATM   15  C16 UNL     1      27.784   0.192  52.687  1.00  0.00     0.296 C 
HETATM   16  H21 UNL     1      27.328  -1.360  53.997  1.00  0.00     0.316 HD
ENDROOT
BRANCH   3  17
HETATM   17  N1  UNL     1      23.907   2.682  51.910  1.00  0.00    -0.397 N 
HETATM   18  C4  UNL     1      22.645   3.195  51.420  1.00  0.00     0.144 C 
HETATM   19  C5  UNL     1      22.922   4.617  50.933  1.00  0.00     0.187 C 
HETATM   20  O1  UNL     1      23.949   5.199  51.711  1.00  0.00    -0.388 OA
HETATM   21  C6  UNL     1      23.769   4.758  53.043  1.00  0.00     0.187 C 
HETATM   22  C7  UNL     1      24.150   3.271  53.177  1.00  0.00     0.144 C 
ENDBRANCH   3  17
TORSDOF 1
ENDMDL
MODEL 2
REMARK VINA RESULT:      -7.6      1.807      4.837
REMARK  1 active torsions:
REMARK  status: ('A' for Active; 'I' for Inactive)
REMARK    1  A    between atoms: C3_3  and  N1_4 
ROOT
HETATM    1  C1  UNL     1      25.015   2.420  53.527  1.00  0.00     0.001 C 
HETATM    2  C2  UNL     1      25.894   1.385  53.620  1.00  0.00     0.000 C 
HETATM    3  C3  UNL     1      26.248   0.207  54.534  1.00  0.00     0.131 C 
HETATM    4  C8  UNL     1      24.861  -0.444  54.757  1.00  0.00    -0.048 C 
HETATM    5  C9  UNL     1      24.428  -1.110  55.766  1.00  0.00     0.000 C 
HETATM    6  C10 UNL     1      23.010  -1.574  55.578  1.00  0.00     0.175 C 
HETATM    7  N2  UNL     1      22.498  -1.191  54.362  1.00  0.00    -0.300 NA
HETATM    8  C11 UNL     1      21.341  -1.253  53.927  1.00  0.00     0.109 C 
HETATM    9  C12 UNL     1      21.789  -0.639  52.623  1.00  0.00     0.214 C 
HETATM   10  O2  UNL     1      22.394   0.632  52.826  1.00  0.00    -0.378 OA
HETATM   11  C13 UNL     1      23.788   0.786  52.588  1.00  0.00     0.078 C 
HETATM   12  C14 UNL     1      24.191   0.177  53.657  1.00  0.00     0.137 C 
HETATM   13  C15 UNL     1      24.072   1.515  51.300  1.00  0.00     0.302 C 
HETATM   14  N3  UNL     1      23.840   2.978  51.575  1.00  0.00     0.089 N 
HETATM   15  C16 UNL     1      25.136   3.281  52.323  1.00  0.00     0.296 C 
HETATM   16  H21 UNL     1      23.076   2.984  52.280  1.00  0.00     0.316 HD
ENDROOT
BRANCH   3  17
HETATM   17  N1  UNL     1      27.178  -0.600  53.934  1.00  0.00    -0.397 N 
HETATM   18  C4  UNL     1      26.890  -1.000  52.572  1.00  0.00     0.144 C 
HETATM   19  C5  UNL     1      27.391  -2.437  52.434  1.00  0.00     0.187 C 
HETATM   20  O1  UNL     1      28.516  -2.636  53.268  1.00  0.00    -0.388 OA
HETATM   21  C6  UNL     1      29.278  -1.444  53.237  1.00  0.00     0.187 C 
HETATM   22  C7  UNL     1      28.566  -0.325  54.019  1.00  0.00     0.144 C 
ENDBRANCH   3  17
TORSDOF 1
ENDMDL
MODEL 3
REMARK VINA RESULT:      -7.4      2.055      4.236
REMARK  1 active torsions:
REMARK  status: ('A' for Active; 'I' for Inactive)
REMARK    1  A    between atoms: C3_3  and  N1_4 
ROOT
HETATM    1  C1  UNL     1      21.148   0.628  53.992  1.00  0.00     0.001 C 
HETATM    2  C2  UNL     1      21.356   1.254  52.802  1.00  0.00     0.000 C 
HETATM    3  C3  UNL     1      22.113   2.446  52.204  1.00  0.00     0.131 C 
HETATM    4  C8  UNL     1      23.534   2.236  52.783  1.00  0.00    -0.048 C 
HETATM    5  C9  UNL     1      24.435   3.107  53.061  1.00  0.00     0.000 C 
HETATM    6  C10 UNL     1      25.687   2.477  53.608  1.00  0.00     0.175 C 
HETATM    7  N2  UNL     1      25.591   1.109  53.676  1.00  0.00    -0.300 NA
HETATM    8  C11 UNL     1      26.343   0.280  54.206  1.00  0.00     0.109 C 
HETATM    9  C12 UNL     1      25.434  -0.841  53.762  1.00  0.00     0.214 C 
HETATM   10  O2  UNL     1      24.114  -0.671  54.263  1.00  0.00    -0.378 OA
HETATM   11  C13 UNL     1      23.057  -0.374  53.357  1.00  0.00     0.078 C 
HETATM   12  C14 UNL     1      23.376   0.864  53.154  1.00  0.00     0.137 C 
HETATM   13  C15 UNL     1      22.173  -1.567  53.099  1.00  0.00     0.302 C 
HETATM   14  N3  UNL     1      21.266  -1.695  54.296  1.00  0.00     0.089 N 
HETATM   15  C16 UNL     1      20.281  -0.578  53.959  1.00  0.00     0.296 C 
HETATM   16  H21 UNL     1      21.846  -1.357  55.089  1.00  0.00     0.316 HD
ENDROOT
BRANCH   3  17
HETATM   17  N1  UNL     1      22.035   2.423  50.837  1.00  0.00    -0.397 N 
HETATM   18  C4  UNL     1      20.897   1.725  50.275  1.00  0.00     0.144 C 
HETATM   19  C5  UNL     1      21.402   1.037  49.008  1.00  0.00     0.187 C 
HETATM   20  O1  UNL     1      22.432   1.807  48.420  1.00  0.00    -0.388 OA
HETATM   21  C6  UNL     1      22.087   3.169  48.589  1.00  0.00     0.187 C 
HETATM   22  C7  UNL     1      22.251   3.591  50.061  1.00  0.00     0.144 C 
ENDBRANCH   3  17
TORSDOF 1
ENDMDL
MODEL 4
REMARK VINA RESULT:      -7.3      2.470      6.436
REMARK  1 active torsions:
REMARK  status: ('A' for Active; 'I' for Inactive)
REMARK    1  A    between atoms: C3_3  and  N1_4 
ROOT
HETATM    1  C1  UNL     1      22.770   2.684  51.012  1.00  0.00     0.001 C 
HETATM    2  C2  UNL     1      23.930   2.228  51.556  1.00  0.00     0.000 C 
HETATM    3  C3  UNL     1      25.380   1.916  51.169  1.00  0.00     0.131 C 
HETATM    4  C8  UNL     1      25.788   3.208  50.418  1.00  0.00    -0.048 C 
HETATM    5  C9  UNL     1      26.640   3.362  49.469  1.00  0.00     0.000 C 
HETATM    6  C10 UNL     1      26.739   4.793  49.018  1.00  0.00     0.175 C 
HETATM    7  N2  UNL     1      25.904   5.618  49.731  1.00  0.00    -0.300 NA
HETATM    8  C11 UNL     1      25.602   6.805  49.545  1.00  0.00     0.109 C 
HETATM    9  C12 UNL     1      24.709   6.778  50.762  1.00  0.00     0.214 C 
HETATM   10  O2  UNL     1      23.708   5.775  50.651  1.00  0.00    -0.378 OA
HETATM   11  C13 UNL     1      23.758   4.641  51.510  1.00  0.00     0.078 C 
HETATM   12  C14 UNL     1      24.737   4.042  50.911  1.00  0.00     0.137 C 
HETATM   13  C15 UNL     1      22.732   4.712  52.611  1.00  0.00     0.302 C 
HETATM   14  N3  UNL     1      21.413   4.328  51.993  1.00  0.00     0.089 N 
HETATM   15  C16 UNL     1      21.615   2.815  51.937  1.00  0.00     0.296 C 
HETATM   16  H21 UNL     1      21.481   4.678  51.017  1.00  0.00     0.316 HD
ENDROOT
BRANCH   3  17
HETATM   17  N1  UNL     1      26.123   1.636  52.285  1.00  0.00    -0.397 N 
HETATM   18  C4  UNL     1      26.137   0.251  52.710  1.00  0.00     0.144 C 
HETATM   19  C5  UNL     1      26.149   0.275  54.238  1.00  0.00     0.187 C 
HETATM   20  O1  UNL     1      26.843   1.418  54.696  1.00  0.00    -0.388 OA
HETATM   21  C6  UNL     1      27.930   1.631  53.816  1.00  0.00     0.187 C 
HETATM   22  C7  UNL     1      27.432   2.153  52.455  1.00  0.00     0.144 C 
ENDBRANCH   3  17
TORSDOF 1
ENDMDL
MODEL 5
REMARK VINA RESULT:      -7.2      2.428      5.043
REMARK  1 active torsions:
REMARK  status: ('A' for Active; 'I' for Inactive)
REMARK    1  A    between atoms: C3_3  and  N1_4 
ROOT
HETATM    1  C1  UNL     1      25.926   2.138  53.711  1.00  0.00     0.001 C 
HETATM    2  C2  UNL     1      24.620   1.991  53.361  1.00  0.00     0.000 C 
HETATM    3  C3  UNL     1      23.389   2.827  52.991  1.00  0.00     0.131 C 
HETATM    4  C8  UNL     1      23.970   3.783  51.921  1.00  0.00    -0.048 C 
HETATM    5  C9  UNL     1      23.610   4.978  51.616  1.00  0.00     0.000 C 
HETATM    6  C10 UNL     1      24.442   5.559  50.507  1.00  0.00     0.175 C 
HETATM    7  N2  UNL     1      25.394   4.677  50.058  1.00  0.00    -0.300 NA
HETATM    8  C11 UNL     1      26.343   4.851  49.282  1.00  0.00     0.109 C 
HETATM    9  C12 UNL     1      26.744   3.403  49.431  1.00  0.00     0.214 C 
HETATM   10  O2  UNL     1      27.001   3.072  50.790  1.00  0.00    -0.378 OA
HETATM   11  C13 UNL     1      26.120   2.187  51.471  1.00  0.00     0.078 C 
HETATM   12  C14 UNL     1      25.152   3.033  51.631  1.00  0.00     0.137 C 
HETATM   13  C15 UNL     1      26.707   0.810  51.638  1.00  0.00     0.302 C 
HETATM   14  N3  UNL     1      27.686   0.897  52.780  1.00  0.00     0.089 N 
HETATM   15  C16 UNL     1      26.692   0.885  53.939  1.00  0.00     0.296 C 
HETATM   16  H21 UNL     1      28.063   1.863  52.715  1.00  0.00     0.316 HD
ENDROOT
BRANCH   3  17
HETATM   17  N1  UNL     1      22.375   2.016  52.555  1.00  0.00    -0.397 N 
HETATM   18  C4  UNL     1      22.181   0.785  53.293  1.00  0.00     0.144 C 
HETATM   19  C5  UNL     1      21.784  -0.272  52.263  1.00  0.00     0.187 C 
HETATM   20  O1  UNL     1      21.059   0.332  51.210  1.00  0.00    -0.388 OA
HETATM   21  C6  UNL     1      20.242   1.335  51.784  1.00  0.00     0.187 C 
HETATM   22  C7  UNL     1      21.094   2.535  52.236  1.00  0.00     0.144 C 
ENDBRANCH   3  17
TORSDOF 1
ENDMDL
MODEL 6
REMARK VINA RESULT:      -7.1      2.304      4.993
REMARK  1 active torsions:
REMARK  status: ('A' for Active; 'I' for Inactive)
REMARK    1  A    between atoms: C3_3  and  N1_4 
ROOT
HETATM    1  C1  UNL     1      21.992  -1.130  52.882  1.00  0.00     0.001 C 
HETATM    2  C2  UNL     1      23.213  -0.536  52.963  1.00  0.00     0.000 C 
HETATM    3  C3  UNL     1      24.207   0.255  52.105  1.00  0.00     0.131 C 
HETATM    4  C8  UNL     1      23.291   1.340  51.486  1.00  0.00    -0.048 C 
HETATM    5  C9  UNL     1      23.398   1.949  50.361  1.00  0.00     0.000 C 
HETATM    6  C10 UNL     1      22.289   2.941  50.141  1.00  0.00     0.175 C 
HETATM    7  N2  UNL     1      21.415   2.982  51.200  1.00  0.00    -0.300 NA
HETATM    8  C11 UNL     1      20.319   3.548  51.311  1.00  0.00     0.109 C 
HETATM    9  C12 UNL     1      20.183   3.027  52.721  1.00  0.00     0.214 C 
HETATM   10  O2  UNL     1      20.245   1.607  52.760  1.00  0.00    -0.378 OA
HETATM   11  C13 UNL     1      21.367   0.975  53.365  1.00  0.00     0.078 C 
HETATM   12  C14 UNL     1      22.205   1.205  52.406  1.00  0.00     0.137 C 
HETATM   13  C15 UNL     1      21.041   0.410  54.724  1.00  0.00     0.302 C 
HETATM   14  N3  UNL     1      20.298  -0.879  54.485  1.00  0.00     0.089 N 
HETATM   15  C16 UNL     1      21.486  -1.768  54.125  1.00  0.00     0.296 C 
HETATM   16  H21 UNL     1      19.771  -0.707  53.606  1.00  0.00     0.316 HD
ENDROOT
BRANCH   3  17
HETATM   17  N1  UNL     1      25.230   0.734  52.879  1.00  0.00    -0.397 N 
HETATM   18  C4  UNL     1      26.104  -0.261  53.467  1.00  0.00     0.144 C 
HETATM   19  C5  UNL     1      26.479   0.266  54.852  1.00  0.00     0.187 C 
HETATM   20  O1  UNL     1      26.523   1.679  54.832  1.00  0.00    -0.388 OA
HETATM   21  C6  UNL     1      27.059   2.066  53.581  1.00  0.00     0.187 C 
HETATM   22  C7  UNL     1      26.038   1.820  52.454  1.00  0.00     0.144 C 
ENDBRANCH   3  17
TORSDOF 1
ENDMDL
MODEL 7
REMARK VINA RESULT:      -7.0      2.278      3.087
REMARK  1 active torsions:
REMARK  status: ('A' for Active; 'I' for Inactive)
REMARK    1  A    between atoms: C3_3  and  N1_4 
ROOT
HETATM    1  C1  UNL     1      26.133   1.874  51.208  1.00  0.00     0.001 C 
HETATM    2  C2  UNL     1      25.427   2.939  50.741  1.00  0.00     0.000 C 
HETATM    3  C3  UNL     1      24.292   3.276  49.768  1.00  0.00     0.131 C 
HETATM    4  C8  UNL     1      23.210   2.248  50.181  1.00  0.00    -0.048 C 
HETATM    5  C9  UNL     1      22.291   1.704  49.468  1.00  0.00     0.000 C 
HETATM    6  C10 UNL     1      21.440   0.752  50.264  1.00  0.00     0.175 C 
HETATM    7  N2  UNL     1      21.829   0.688  51.579  1.00  0.00    -0.300 NA
HETATM    8  C11 UNL     1      21.475  -0.085  52.481  1.00  0.00     0.109 C 
HETATM    9  C12 UNL     1      22.398   0.612  53.452  1.00  0.00     0.214 C 
HETATM   10  O2  UNL     1      23.745   0.589  52.998  1.00  0.00    -0.378 OA
HETATM   11  C13 UNL     1      24.366   1.804  52.597  1.00  0.00     0.078 C 
HETATM   12  C14 UNL     1      23.754   1.919  51.462  1.00  0.00     0.137 C 
HETATM   13  C15 UNL     1      25.341   2.316  53.626  1.00  0.00     0.302 C 
HETATM   14  N3  UNL     1      26.594   1.492  53.476  1.00  0.00     0.089 N 
HETATM   15  C16 UNL     1      27.168   2.168  52.233  1.00  0.00     0.296 C 
HETATM   16  H21 UNL     1      26.247   0.558  53.180  1.00  0.00     0.316 HD
ENDROOT
BRANCH   3  17
HETATM   17  N1  UNL     1      23.924   4.589  49.900  1.00  0.00    -0.397 N 
HETATM   18  C4  UNL     1      24.922   5.478  50.458  1.00  0.00     0.144 C 
HETATM   19  C5  UNL     1      24.163   6.479  51.327  1.00  0.00     0.187 C 
HETATM   20  O1  UNL     1      22.879   6.711  50.783  1.00  0.00    -0.388 OA
HETATM   21  C6  UNL     1      23.013   6.712  49.374  1.00  0.00     0.187 C 
HETATM   22  C7  UNL     1      23.264   5.284  48.854  1.00  0.00     0.144 C 
ENDBRANCH   3  17
TORSDOF 1
ENDMDL
MODEL 8
REMARK VINA RESULT:      -6.5      2.622      6.431
REMARK  1 active torsions:
REMARK  status: ('A' for Active; 'I' for Inactive)
REMARK    1  A    between atoms: C3_3  and  N1_4 
ROOT
HETATM    1  C1  UNL     1      20.568   1.651  49.671  1.00  0.00     0.001 C 
HETATM    2  C2  UNL     1      20.970   0.962  50.773  1.00  0.00     0.000 C 
HETATM    3  C3  UNL     1      22.247   0.471  51.464  1.00  0.00     0.131 C 
HETATM    4  C8  UNL     1      23.112   1.756  51.476  1.00  0.00    -0.048 C 
HETATM    5  C9  UNL     1      24.390   1.876  51.449  1.00  0.00     0.000 C 
HETATM    6  C10 UNL     1      24.828   3.314  51.477  1.00  0.00     0.175 C 
HETATM    7  N2  UNL     1      23.762   4.178  51.537  1.00  0.00    -0.300 NA
HETATM    8  C11 UNL     1      23.724   5.411  51.419  1.00  0.00     0.109 C 
HETATM    9  C12 UNL     1      22.229   5.393  51.625  1.00  0.00     0.214 C 
HETATM   10  O2  UNL     1      21.579   4.577  50.659  1.00  0.00    -0.378 OA
HETATM   11  C13 UNL     1      20.962   3.363  51.073  1.00  0.00     0.078 C 
HETATM   12  C14 UNL     1      22.053   2.687  51.235  1.00  0.00     0.137 C 
HETATM   13  C15 UNL     1      19.460   3.475  51.125  1.00  0.00     0.302 C 
HETATM   14  N3  UNL     1      18.973   3.371  49.702  1.00  0.00     0.089 N 
HETATM   15  C16 UNL     1      19.105   1.860  49.522  1.00  0.00     0.296 C 
HETATM   16  H21 UNL     1      19.732   3.809  49.144  1.00  0.00     0.316 HD
ENDROOT
BRANCH   3  17
HETATM   17  N1  UNL     1      21.953  -0.041  52.701  1.00  0.00    -0.397 N 
HETATM   18  C4  UNL     1      20.549  -0.090  53.053  1.00  0.00     0.144 C 
HETATM   19  C5  UNL     1      20.474   0.223  54.547  1.00  0.00     0.187 C 
HETATM   20  O1  UNL     1      21.635  -0.253  55.197  1.00  0.00    -0.388 OA
HETATM   21  C6  UNL     1      21.989  -1.478  54.583  1.00  0.00     0.187 C 
HETATM   22  C7  UNL     1      22.558  -1.234  53.173  1.00  0.00     0.144 C 
ENDBRANCH   3  17
TORSDOF 1
ENDMDL
MODEL 9
REMARK VINA RESULT:      -6.4      2.344      5.823
REMARK  1 active torsions:
REMARK  status: ('A' for Active; 'I' for Inactive)
REMARK    1  A    between atoms: C3_3  and  N1_4 
ROOT
HETATM    1  C1  UNL     1      22.085   0.986  51.176  1.00  0.00     0.001 C 
HETATM    2  C2  UNL     1      23.364   1.110  51.623  1.00  0.00     0.000 C 
HETATM    3  C3  UNL     1      24.741   1.599  51.160  1.00  0.00     0.131 C 
HETATM    4  C8  UNL     1      24.400   2.992  50.578  1.00  0.00    -0.048 C 
HETATM    5  C9  UNL     1      24.980   3.644  49.636  1.00  0.00     0.000 C 
HETATM    6  C10 UNL     1      24.328   4.975  49.377  1.00  0.00     0.175 C 
HETATM    7  N2  UNL     1      23.264   5.200  50.215  1.00  0.00    -0.300 NA
HETATM    8  C11 UNL     1      22.407   6.094  50.197  1.00  0.00     0.109 C 
HETATM    9  C12 UNL     1      21.752   5.504  51.422  1.00  0.00     0.214 C 
HETATM   10  O2  UNL     1      21.362   4.154  51.205  1.00  0.00    -0.378 OA
HETATM   11  C13 UNL     1      22.034   3.112  51.903  1.00  0.00     0.078 C 
HETATM   12  C14 UNL     1      23.123   3.141  51.205  1.00  0.00     0.137 C 
HETATM   13  C15 UNL     1      21.206   2.552  53.031  1.00  0.00     0.302 C 
HETATM   14  N3  UNL     1      20.192   1.631  52.402  1.00  0.00     0.089 N 
HETATM   15  C16 UNL     1      21.101   0.432  52.140  1.00  0.00     0.296 C 
HETATM   16  H21 UNL     1      19.995   2.068  51.480  1.00  0.00     0.316 HD
ENDROOT
BRANCH   3  17
HETATM   17  N1  UNL     1      25.622   1.609  52.210  1.00  0.00    -0.397 N 
HETATM   18  C4  UNL     1      25.835   0.341  52.876  1.00  0.00     0.144 C 
HETATM   19  C5  UNL     1      26.002   0.661  54.361  1.00  0.00     0.187 C 
HETATM   20  O1  UNL     1      26.606   1.930  54.513  1.00  0.00    -0.388 OA
HETATM   21  C6  UNL     1      27.567   2.065  53.483  1.00  0.00     0.187 C 
HETATM   22  C7  UNL     1      26.875   2.266  52.121  1.00  0.00     0.144 C 
ENDBRANCH   3  17
TORSDOF 1
ENDMDL
