MODEL 1
REMARK VINA RESULT:      -7.9      0.000      0.000
REMARK  4 active torsions:
REMARK  status: ('A' for Active; 'I' for Inactive)
REMARK    1  A    between atoms: N1_1  and  C1_2 
REMARK    2  A    between atoms: C6_7  and  O1_8 
REMARK    3  A    between atoms: O1_8  and  C7_9 
REMARK    4  A    between atoms: N2_10  and  C8_11 
ROOT
HETATM    1  C8  UNL     1      27.027   2.019  52.395  1.00  0.00     0.169 C 
HETATM    2  C9  UNL     1      26.300   2.071  53.825  1.00  0.00     0.113 C 
HETATM    3  N3  UNL     1      26.204   0.810  54.283  1.00  0.00    -0.290 NA
HETATM    4  C10 UNL     1      25.846  -0.342  53.554  1.00  0.00     0.165 A 
HETATM    5  C11 UNL     1      25.600   0.084  52.179  1.00  0.00    -0.002 A 
HETATM    6  C12 UNL     1      26.821   0.515  52.405  1.00  0.00     0.057 A 
HETATM    7  C13 UNL     1      27.847  -0.323  53.036  1.00  0.00    -0.036 C 
HETATM    8  C14 UNL     1      27.001  -1.327  53.205  1.00  0.00     0.036 C 
HETATM    9  N4  UNL     1      27.557  -2.635  53.040  1.00  0.00    -0.391 N 
HETATM   10  C15 UNL     1      28.987  -2.338  53.012  1.00  0.00     0.124 C 
HETATM   11  C16 UNL     1      29.112  -0.931  53.616  1.00  0.00     0.057 C 
HETATM   12  H12 UNL     1      27.016  -3.526  52.977  1.00  0.00     0.159 HD
ENDROOT
BRANCH   1  13
HETATM   13  N2  UNL     1      26.322   2.771  51.464  1.00  0.00    -0.266 NA
HETATM   14  C7  UNL     1      26.634   2.761  50.201  1.00  0.00     0.253 C 
BRANCH  14  15
HETATM   15  O1  UNL     1      25.628   3.647  49.843  1.00  0.00    -0.302 OA
BRANCH  15  16
HETATM   16  C6  UNL     1      25.830   5.003  49.730  1.00  0.00     0.102 A 
HETATM   17  C1  UNL     1      25.257   6.069  50.420  1.00  0.00     0.060 A 
HETATM   18  C2  UNL     1      25.639   7.357  50.111  1.00  0.00     0.032 A 
HETATM   19  C3  UNL     1      26.563   7.621  49.146  1.00  0.00     0.002 A 
HETATM   20  C4  UNL     1      27.154   6.584  48.437  1.00  0.00     0.003 A 
HETATM   21  C5  UNL     1      26.770   5.297  48.750  1.00  0.00     0.039 A 
BRANCH  17  22
HETATM   22  N1  UNL     1      24.312   5.636  51.397  1.00  0.00    -0.397 N 
HETATM   23  H1  UNL     1      23.634   6.144  52.003  1.00  0.00     0.156 HD
HETATM   24  H2  UNL     1      24.079   4.674  51.736  1.00  0.00     0.156 HD
ENDBRANCH  17  22
ENDBRANCH  15  16
ENDBRANCH  14  15
ENDBRANCH   1  13
TORSDOF 4
ENDMDL
MODEL 2
REMARK VINA RESULT:      -7.5      3.540      6.952
REMARK  4 active torsions:
REMARK  status: ('A' for Active; 'I' for Inactive)
REMARK    1  A    between atoms: N1_1  and  C1_2 
REMARK    2  A    between atoms: C6_7  and  O1_8 
REMARK    3  A    between atoms: O1_8  and  C7_9 
REMARK    4  A    between atoms: N2_10  and  C8_11 
ROOT
HETATM    1  C8  UNL     1      24.056   2.984  52.834  1.00  0.00     0.169 C 
HETATM    2  C9  UNL     1      24.483   3.281  51.315  1.00  0.00     0.113 C 
HETATM    3  N3  UNL     1      23.482   2.867  50.518  1.00  0.00    -0.290 NA
HETATM    4  C10 UNL     1      22.732   1.678  50.630  1.00  0.00     0.165 A 
HETATM    5  C11 UNL     1      23.242   0.962  51.796  1.00  0.00    -0.002 A 
HETATM    6  C12 UNL     1      22.920   2.136  52.291  1.00  0.00     0.057 A 
HETATM    7  C13 UNL     1      21.644   2.796  51.987  1.00  0.00    -0.036 C 
HETATM    8  C14 UNL     1      21.277   1.825  51.164  1.00  0.00     0.036 C 
HETATM    9  N4  UNL     1      19.883   1.503  51.175  1.00  0.00    -0.391 N 
HETATM   10  C15 UNL     1      19.336   2.621  51.941  1.00  0.00     0.124 C 
HETATM   11  C16 UNL     1      20.428   3.701  51.902  1.00  0.00     0.057 C 
HETATM   12  H12 UNL     1      19.443   0.673  50.720  1.00  0.00     0.159 HD
ENDROOT
BRANCH   1  13
HETATM   13  N2  UNL     1      25.086   2.344  53.512  1.00  0.00    -0.266 NA
HETATM   14  C7  UNL     1      26.333   2.534  53.195  1.00  0.00     0.253 C 
BRANCH  14  15
HETATM   15  O1  UNL     1      26.816   1.675  54.172  1.00  0.00    -0.302 OA
BRANCH  15  16
HETATM   16  C6  UNL     1      27.803   0.748  53.932  1.00  0.00     0.102 A 
HETATM   17  C1  UNL     1      29.185   0.831  54.091  1.00  0.00     0.060 A 
HETATM   18  C2  UNL     1      29.967  -0.259  53.774  1.00  0.00     0.032 A 
HETATM   19  C3  UNL     1      29.429  -1.419  53.306  1.00  0.00     0.002 A 
HETATM   20  C4  UNL     1      28.056  -1.537  53.134  1.00  0.00     0.003 A 
HETATM   21  C5  UNL     1      27.277  -0.444  53.454  1.00  0.00     0.039 A 
BRANCH  17  22
HETATM   22  N1  UNL     1      29.598   2.102  54.589  1.00  0.00    -0.397 N 
HETATM   23  H1  UNL     1      30.525   2.490  54.865  1.00  0.00     0.156 HD
HETATM   24  H2  UNL     1      29.041   2.963  54.796  1.00  0.00     0.156 HD
ENDBRANCH  17  22
ENDBRANCH  15  16
ENDBRANCH  14  15
ENDBRANCH   1  13
TORSDOF 4
ENDMDL
MODEL 3
REMARK VINA RESULT:      -7.2      2.079      2.806
REMARK  4 active torsions:
REMARK  status: ('A' for Active; 'I' for Inactive)
REMARK    1  A    between atoms: N1_1  and  C1_2 
REMARK    2  A    between atoms: C6_7  and  O1_8 
REMARK    3  A    between atoms: O1_8  and  C7_9 
REMARK    4  A    between atoms: N2_10  and  C8_11 
ROOT
HETATM    1  C8  UNL     1      26.977   2.027  52.467  1.00  0.00     0.169 C 
HETATM    2  C9  UNL     1      26.371   2.067  53.954  1.00  0.00     0.113 C 
HETATM    3  N3  UNL     1      26.295   0.801  54.401  1.00  0.00    -0.290 NA
HETATM    4  C10 UNL     1      25.862  -0.336  53.689  1.00  0.00     0.165 A 
HETATM    5  C11 UNL     1      25.508   0.114  52.345  1.00  0.00    -0.002 A 
HETATM    6  C12 UNL     1      26.750   0.525  52.475  1.00  0.00     0.057 A 
HETATM    7  C13 UNL     1      27.813  -0.335  53.007  1.00  0.00    -0.036 C 
HETATM    8  C14 UNL     1      26.969  -1.330  53.232  1.00  0.00     0.036 C 
HETATM    9  N4  UNL     1      27.490  -2.643  53.004  1.00  0.00    -0.391 N 
HETATM   10  C15 UNL     1      28.917  -2.365  52.861  1.00  0.00     0.124 C 
HETATM   11  C16 UNL     1      29.113  -0.968  53.471  1.00  0.00     0.057 C 
HETATM   12  H12 UNL     1      26.934  -3.525  52.974  1.00  0.00     0.159 HD
ENDROOT
BRANCH   1  13
HETATM   13  N2  UNL     1      26.207   2.801  51.608  1.00  0.00    -0.266 NA
HETATM   14  C7  UNL     1      26.493   2.907  50.343  1.00  0.00     0.253 C 
BRANCH  14  15
HETATM   15  O1  UNL     1      25.427   3.753  50.071  1.00  0.00    -0.302 OA
BRANCH  15  16
HETATM   16  C6  UNL     1      24.127   3.446  50.396  1.00  0.00     0.102 A 
HETATM   17  C1  UNL     1      23.324   3.885  51.446  1.00  0.00     0.060 A 
HETATM   18  C2  UNL     1      22.031   3.418  51.550  1.00  0.00     0.032 A 
HETATM   19  C3  UNL     1      21.511   2.535  50.653  1.00  0.00     0.002 A 
HETATM   20  C4  UNL     1      22.283   2.074  49.594  1.00  0.00     0.003 A 
HETATM   21  C5  UNL     1      23.575   2.546  49.494  1.00  0.00     0.039 A 
BRANCH  17  22
HETATM   22  N1  UNL     1      24.003   4.805  52.299  1.00  0.00    -0.397 N 
HETATM   23  H1  UNL     1      25.006   4.930  52.554  1.00  0.00     0.156 HD
HETATM   24  H2  UNL     1      23.632   5.590  52.883  1.00  0.00     0.156 HD
ENDBRANCH  17  22
ENDBRANCH  15  16
ENDBRANCH  14  15
ENDBRANCH   1  13
TORSDOF 4
ENDMDL
MODEL 4
REMARK VINA RESULT:      -7.2      2.696      6.934
REMARK  4 active torsions:
REMARK  status: ('A' for Active; 'I' for Inactive)
REMARK    1  A    between atoms: N1_1  and  C1_2 
REMARK    2  A    between atoms: C6_7  and  O1_8 
REMARK    3  A    between atoms: O1_8  and  C7_9 
REMARK    4  A    between atoms: N2_10  and  C8_11 
ROOT
HETATM    1  C8  UNL     1      24.084   1.773  51.562  1.00  0.00     0.169 C 
HETATM    2  C9  UNL     1      22.530   1.645  51.947  1.00  0.00     0.113 C 
HETATM    3  N3  UNL     1      21.936   2.816  51.653  1.00  0.00    -0.290 NA
HETATM    4  C10 UNL     1      22.432   4.114  51.894  1.00  0.00     0.165 A 
HETATM    5  C11 UNL     1      23.738   3.959  52.527  1.00  0.00    -0.002 A 
HETATM    6  C12 UNL     1      23.869   3.269  51.417  1.00  0.00     0.057 A 
HETATM    7  C13 UNL     1      23.431   3.784  50.114  1.00  0.00    -0.036 C 
HETATM    8  C14 UNL     1      22.955   4.896  50.653  1.00  0.00     0.036 C 
HETATM    9  N4  UNL     1      23.119   6.081  49.867  1.00  0.00    -0.391 N 
HETATM   10  C15 UNL     1      23.532   5.519  48.584  1.00  0.00     0.124 C 
HETATM   11  C16 UNL     1      23.126   4.039  48.648  1.00  0.00     0.057 C 
HETATM   12  H12 UNL     1      22.954   7.058  50.193  1.00  0.00     0.159 HD
ENDROOT
BRANCH   1  13
HETATM   13  N2  UNL     1      24.882   1.324  52.607  1.00  0.00    -0.266 NA
HETATM   14  C7  UNL     1      24.991   0.059  52.887  1.00  0.00     0.253 C 
BRANCH  14  15
HETATM   15  O1  UNL     1      25.861   0.267  53.948  1.00  0.00    -0.302 OA
BRANCH  15  16
HETATM   16  C6  UNL     1      27.229   0.268  53.805  1.00  0.00     0.102 A 
HETATM   17  C1  UNL     1      28.148   1.313  53.866  1.00  0.00     0.060 A 
HETATM   18  C2  UNL     1      29.488   1.045  53.686  1.00  0.00     0.032 A 
HETATM   19  C3  UNL     1      29.944  -0.216  53.448  1.00  0.00     0.002 A 
HETATM   20  C4  UNL     1      29.056  -1.282  53.379  1.00  0.00     0.003 A 
HETATM   21  C5  UNL     1      27.716  -1.009  53.561  1.00  0.00     0.039 A 
BRANCH  17  22
HETATM   22  N1  UNL     1      27.524   2.570  54.122  1.00  0.00    -0.397 N 
HETATM   23  H1  UNL     1      27.126   3.004  54.983  1.00  0.00     0.156 HD
HETATM   24  H2  UNL     1      27.317   3.369  53.478  1.00  0.00     0.156 HD
ENDBRANCH  17  22
ENDBRANCH  15  16
ENDBRANCH  14  15
ENDBRANCH   1  13
TORSDOF 4
ENDMDL
MODEL 5
REMARK VINA RESULT:      -7.1      3.646      5.246
REMARK  4 active torsions:
REMARK  status: ('A' for Active; 'I' for Inactive)
REMARK    1  A    between atoms: N1_1  and  C1_2 
REMARK    2  A    between atoms: C6_7  and  O1_8 
REMARK    3  A    between atoms: O1_8  and  C7_9 
REMARK    4  A    between atoms: N2_10  and  C8_11 
ROOT
HETATM    1  C8  UNL     1      25.644   1.694  52.140  1.00  0.00     0.169 C 
HETATM    2  C9  UNL     1      25.289   2.357  53.559  1.00  0.00     0.113 C 
HETATM    3  N3  UNL     1      26.029   1.739  54.498  1.00  0.00    -0.290 NA
HETATM    4  C10 UNL     1      26.289   0.358  54.613  1.00  0.00     0.165 A 
HETATM    5  C11 UNL     1      25.603  -0.297  53.504  1.00  0.00    -0.002 A 
HETATM    6  C12 UNL     1      26.359   0.589  52.897  1.00  0.00     0.057 A 
HETATM    7  C13 UNL     1      27.773   0.784  53.238  1.00  0.00    -0.036 C 
HETATM    8  C14 UNL     1      27.717  -0.113  54.211  1.00  0.00     0.036 C 
HETATM    9  N4  UNL     1      28.892  -0.913  54.379  1.00  0.00    -0.391 N 
HETATM   10  C15 UNL     1      29.848  -0.201  53.534  1.00  0.00     0.124 C 
HETATM   11  C16 UNL     1      29.233   1.192  53.326  1.00  0.00     0.057 C 
HETATM   12  H12 UNL     1      28.971  -1.765  54.978  1.00  0.00     0.159 HD
ENDROOT
BRANCH   1  13
HETATM   13  N2  UNL     1      24.482   1.371  51.451  1.00  0.00    -0.266 NA
HETATM   14  C7  UNL     1      23.458   2.174  51.425  1.00  0.00     0.253 C 
BRANCH  14  15
HETATM   15  O1  UNL     1      22.691   1.330  50.634  1.00  0.00    -0.302 OA
BRANCH  15  16
HETATM   16  C6  UNL     1      21.412   0.950  50.968  1.00  0.00     0.102 A 
HETATM   17  C1  UNL     1      20.240   0.945  50.215  1.00  0.00     0.060 A 
HETATM   18  C2  UNL     1      19.067   0.508  50.795  1.00  0.00     0.032 A 
HETATM   19  C3  UNL     1      19.019   0.079  52.086  1.00  0.00     0.002 A 
HETATM   20  C4  UNL     1      20.168   0.070  52.866  1.00  0.00     0.003 A 
HETATM   21  C5  UNL     1      21.339   0.508  52.282  1.00  0.00     0.039 A 
BRANCH  17  22
HETATM   22  N1  UNL     1      20.447   1.420  48.887  1.00  0.00    -0.397 N 
HETATM   23  H1  UNL     1      20.521   0.940  47.964  1.00  0.00     0.156 HD
HETATM   24  H2  UNL     1      20.576   2.394  48.526  1.00  0.00     0.156 HD
ENDBRANCH  17  22
ENDBRANCH  15  16
ENDBRANCH  14  15
ENDBRANCH   1  13
TORSDOF 4
ENDMDL
MODEL 6
REMARK VINA RESULT:      -7.0      2.411      3.106
REMARK  4 active torsions:
REMARK  status: ('A' for Active; 'I' for Inactive)
REMARK    1  A    between atoms: N1_1  and  C1_2 
REMARK    2  A    between atoms: C6_7  and  O1_8 
REMARK    3  A    between atoms: O1_8  and  C7_9 
REMARK    4  A    between atoms: N2_10  and  C8_11 
ROOT
HETATM    1  C8  UNL     1      25.525   1.207  53.245  1.00  0.00     0.169 C 
HETATM    2  C9  UNL     1      24.830  -0.103  53.861  1.00  0.00     0.113 C 
HETATM    3  N3  UNL     1      25.751  -1.083  53.889  1.00  0.00    -0.290 NA
HETATM    4  C10 UNL     1      26.688  -1.407  52.886  1.00  0.00     0.165 A 
HETATM    5  C11 UNL     1      26.481  -0.465  51.790  1.00  0.00    -0.002 A 
HETATM    6  C12 UNL     1      26.685   0.325  52.820  1.00  0.00     0.057 A 
HETATM    7  C13 UNL     1      27.778   0.108  53.775  1.00  0.00    -0.036 C 
HETATM    8  C14 UNL     1      28.165  -1.001  53.162  1.00  0.00     0.036 C 
HETATM    9  N4  UNL     1      29.579  -1.225  53.129  1.00  0.00    -0.391 N 
HETATM   10  C15 UNL     1      30.051  -0.217  54.075  1.00  0.00     0.124 C 
HETATM   11  C16 UNL     1      28.809   0.179  54.888  1.00  0.00     0.057 C 
HETATM   12  H12 UNL     1      30.070  -1.949  52.560  1.00  0.00     0.159 HD
ENDROOT
BRANCH   1  13
HETATM   13  N2  UNL     1      24.724   1.760  52.254  1.00  0.00    -0.266 NA
HETATM   14  C7  UNL     1      23.426   1.731  52.329  1.00  0.00     0.253 C 
BRANCH  14  15
HETATM   15  O1  UNL     1      23.241   2.395  51.125  1.00  0.00    -0.302 OA
BRANCH  15  16
HETATM   16  C6  UNL     1      22.899   3.724  51.049  1.00  0.00     0.102 A 
HETATM   17  C1  UNL     1      23.694   4.866  50.969  1.00  0.00     0.060 A 
HETATM   18  C2  UNL     1      23.094   6.105  50.902  1.00  0.00     0.032 A 
HETATM   19  C3  UNL     1      21.740   6.249  50.911  1.00  0.00     0.002 A 
HETATM   20  C4  UNL     1      20.915   5.134  50.990  1.00  0.00     0.003 A 
HETATM   21  C5  UNL     1      21.521   3.896  51.056  1.00  0.00     0.039 A 
BRANCH  17  22
HETATM   22  N1  UNL     1      25.087   4.556  50.969  1.00  0.00    -0.397 N 
HETATM   23  H1  UNL     1      25.625   3.703  50.707  1.00  0.00     0.156 HD
HETATM   24  H2  UNL     1      25.912   5.140  51.241  1.00  0.00     0.156 HD
ENDBRANCH  17  22
ENDBRANCH  15  16
ENDBRANCH  14  15
ENDBRANCH   1  13
TORSDOF 4
ENDMDL
MODEL 7
REMARK VINA RESULT:      -6.9      2.143      2.377
REMARK  4 active torsions:
REMARK  status: ('A' for Active; 'I' for Inactive)
REMARK    1  A    between atoms: N1_1  and  C1_2 
REMARK    2  A    between atoms: C6_7  and  O1_8 
REMARK    3  A    between atoms: O1_8  and  C7_9 
REMARK    4  A    between atoms: N2_10  and  C8_11 
ROOT
HETATM    1  C8  UNL     1      26.576   2.093  52.163  1.00  0.00     0.169 C 
HETATM    2  C9  UNL     1      25.831   2.104  53.586  1.00  0.00     0.113 C 
HETATM    3  N3  UNL     1      26.202   0.997  54.253  1.00  0.00    -0.290 NA
HETATM    4  C10 UNL     1      26.335  -0.310  53.739  1.00  0.00     0.165 A 
HETATM    5  C11 UNL     1      25.997  -0.245  52.320  1.00  0.00    -0.002 A 
HETATM    6  C12 UNL     1      26.954   0.648  52.434  1.00  0.00     0.057 A 
HETATM    7  C13 UNL     1      28.197   0.381  53.166  1.00  0.00    -0.036 C 
HETATM    8  C14 UNL     1      27.788  -0.826  53.527  1.00  0.00     0.036 C 
HETATM    9  N4  UNL     1      28.804  -1.833  53.569  1.00  0.00    -0.391 N 
HETATM   10  C15 UNL     1      30.015  -1.025  53.448  1.00  0.00     0.124 C 
HETATM   11  C16 UNL     1      29.576   0.404  53.802  1.00  0.00     0.057 C 
HETATM   12  H12 UNL     1      28.644  -2.859  53.673  1.00  0.00     0.159 HD
ENDROOT
BRANCH   1  13
HETATM   13  N2  UNL     1      25.673   2.354  51.140  1.00  0.00    -0.266 NA
HETATM   14  C7  UNL     1      25.422   3.568  50.745  1.00  0.00     0.253 C 
BRANCH  14  15
HETATM   15  O1  UNL     1      24.510   3.171  49.777  1.00  0.00    -0.302 OA
BRANCH  15  16
HETATM   16  C6  UNL     1      23.860   4.058  48.953  1.00  0.00     0.102 A 
HETATM   17  C1  UNL     1      22.735   3.893  48.146  1.00  0.00     0.060 A 
HETATM   18  C2  UNL     1      22.275   4.960  47.403  1.00  0.00     0.032 A 
HETATM   19  C3  UNL     1      22.890   6.175  47.432  1.00  0.00     0.002 A 
HETATM   20  C4  UNL     1      24.013   6.375  48.223  1.00  0.00     0.003 A 
HETATM   21  C5  UNL     1      24.469   5.305  48.965  1.00  0.00     0.039 A 
BRANCH  17  22
HETATM   22  N1  UNL     1      22.204   2.572  48.221  1.00  0.00    -0.397 N 
HETATM   23  H1  UNL     1      21.294   2.190  48.558  1.00  0.00     0.156 HD
HETATM   24  H2  UNL     1      22.624   1.655  47.944  1.00  0.00     0.156 HD
ENDBRANCH  17  22
ENDBRANCH  15  16
ENDBRANCH  14  15
ENDBRANCH   1  13
TORSDOF 4
ENDMDL
MODEL 8
REMARK VINA RESULT:      -6.9      4.192      7.245
REMARK  4 active torsions:
REMARK  status: ('A' for Active; 'I' for Inactive)
REMARK    1  A    between atoms: N1_1  and  C1_2 
REMARK    2  A    between atoms: C6_7  and  O1_8 
REMARK    3  A    between atoms: O1_8  and  C7_9 
REMARK    4  A    between atoms: N2_10  and  C8_11 
ROOT
HETATM    1  C8  UNL     1      23.021   2.409  51.877  1.00  0.00     0.169 C 
HETATM    2  C9  UNL     1      23.230   2.130  50.310  1.00  0.00     0.113 C 
HETATM    3  N3  UNL     1      22.053   1.719  49.805  1.00  0.00    -0.290 NA
HETATM    4  C10 UNL     1      21.142   0.811  50.384  1.00  0.00     0.165 A 
HETATM    5  C11 UNL     1      21.713   0.392  51.660  1.00  0.00    -0.002 A 
HETATM    6  C12 UNL     1      21.682   1.701  51.769  1.00  0.00     0.057 A 
HETATM    7  C13 UNL     1      20.505   2.495  51.399  1.00  0.00    -0.036 C 
HETATM    8  C14 UNL     1      19.844   1.423  50.988  1.00  0.00     0.036 C 
HETATM    9  N4  UNL     1      18.438   1.428  51.251  1.00  0.00    -0.391 N 
HETATM   10  C15 UNL     1      18.226   2.816  51.656  1.00  0.00     0.124 C 
HETATM   11  C16 UNL     1      19.463   3.571  51.147  1.00  0.00     0.057 C 
HETATM   12  H12 UNL     1      17.793   0.614  51.147  1.00  0.00     0.159 HD
ENDROOT
BRANCH   1  13
HETATM   13  N2  UNL     1      24.027   1.800  52.617  1.00  0.00    -0.266 NA
HETATM   14  C7  UNL     1      25.158   1.453  52.076  1.00  0.00     0.253 C 
BRANCH  14  15
HETATM   15  O1  UNL     1      25.679   0.941  53.256  1.00  0.00    -0.302 OA
BRANCH  15  16
HETATM   16  C6  UNL     1      26.988   0.537  53.382  1.00  0.00     0.102 A 
HETATM   17  C1  UNL     1      28.126   1.248  53.757  1.00  0.00     0.060 A 
HETATM   18  C2  UNL     1      29.341   0.599  53.806  1.00  0.00     0.032 A 
HETATM   19  C3  UNL     1      29.465  -0.721  53.498  1.00  0.00     0.002 A 
HETATM   20  C4  UNL     1      28.352  -1.461  53.119  1.00  0.00     0.003 A 
HETATM   21  C5  UNL     1      27.138  -0.808  53.072  1.00  0.00     0.039 A 
BRANCH  17  22
HETATM   22  N1  UNL     1      27.840   2.614  54.049  1.00  0.00    -0.397 N 
HETATM   23  H1  UNL     1      28.325   3.335  54.625  1.00  0.00     0.156 HD
HETATM   24  H2  UNL     1      27.047   3.223  53.739  1.00  0.00     0.156 HD
ENDBRANCH  17  22
ENDBRANCH  15  16
ENDBRANCH  14  15
ENDBRANCH   1  13
TORSDOF 4
ENDMDL
MODEL 9
REMARK VINA RESULT:      -6.8      5.390      7.643
REMARK  4 active torsions:
REMARK  status: ('A' for Active; 'I' for Inactive)
REMARK    1  A    between atoms: N1_1  and  C1_2 
REMARK    2  A    between atoms: C6_7  and  O1_8 
REMARK    3  A    between atoms: O1_8  and  C7_9 
REMARK    4  A    between atoms: N2_10  and  C8_11 
ROOT
HETATM    1  C8  UNL     1      22.732   0.954  51.422  1.00  0.00     0.169 C 
HETATM    2  C9  UNL     1      23.003   2.032  50.264  1.00  0.00     0.113 C 
HETATM    3  N3  UNL     1      24.111   2.720  50.594  1.00  0.00    -0.290 NA
HETATM    4  C10 UNL     1      24.466   3.215  51.866  1.00  0.00     0.165 A 
HETATM    5  C11 UNL     1      23.397   2.833  52.784  1.00  0.00    -0.002 A 
HETATM    6  C12 UNL     1      23.763   1.682  52.266  1.00  0.00     0.057 A 
HETATM    7  C13 UNL     1      25.171   1.290  52.134  1.00  0.00    -0.036 C 
HETATM    8  C14 UNL     1      25.595   2.449  52.616  1.00  0.00     0.036 C 
HETATM    9  N4  UNL     1      26.763   2.382  53.440  1.00  0.00    -0.391 N 
HETATM   10  C15 UNL     1      27.213   1.015  53.191  1.00  0.00     0.124 C 
HETATM   11  C16 UNL     1      26.498   0.590  51.899  1.00  0.00     0.057 C 
HETATM   12  H12 UNL     1      27.141   3.157  54.028  1.00  0.00     0.159 HD
ENDROOT
BRANCH   1  13
HETATM   13  N2  UNL     1      21.404   0.999  51.826  1.00  0.00    -0.266 NA
HETATM   14  C7  UNL     1      20.427   0.881  50.975  1.00  0.00     0.253 C 
BRANCH  14  15
HETATM   15  O1  UNL     1      19.439   1.002  51.941  1.00  0.00    -0.302 OA
BRANCH  15  16
HETATM   16  C6  UNL     1      18.614  -0.037  52.303  1.00  0.00     0.102 A 
HETATM   17  C1  UNL     1      18.762  -1.016  53.284  1.00  0.00     0.060 A 
HETATM   18  C2  UNL     1      17.772  -1.962  53.448  1.00  0.00     0.032 A 
HETATM   19  C3  UNL     1      16.650  -1.971  52.677  1.00  0.00     0.002 A 
HETATM   20  C4  UNL     1      16.470  -1.011  51.689  1.00  0.00     0.003 A 
HETATM   21  C5  UNL     1      17.462  -0.066  51.529  1.00  0.00     0.039 A 
BRANCH  17  22
HETATM   22  N1  UNL     1      19.982  -0.877  54.008  1.00  0.00    -0.397 N 
HETATM   23  H1  UNL     1      20.344  -0.147  54.658  1.00  0.00     0.156 HD
HETATM   24  H2  UNL     1      20.821  -1.502  54.050  1.00  0.00     0.156 HD
ENDBRANCH  17  22
ENDBRANCH  15  16
ENDBRANCH  14  15
ENDBRANCH   1  13
TORSDOF 4
ENDMDL
