MODEL 1
REMARK VINA RESULT:     -10.0      0.000      0.000
REMARK  4 active torsions:
REMARK  status: ('A' for Active; 'I' for Inactive)
REMARK    1  A    between atoms: C3_3  and  N1_4 
REMARK    2  A    between atoms: C9_11  and  N3_12 
REMARK    3  A    between atoms: N3_12  and  C10_13 
REMARK    4  A    between atoms: C15_20  and  C16_21 
ROOT
HETATM    1  C10 UNL     1      23.330   3.564  52.184  1.00  0.00     0.139 A 
HETATM    2  N4  UNL     1      22.064   3.986  52.115  1.00  0.00    -0.224 NA
HETATM    3  C11 UNL     1      21.004   3.196  52.357  1.00  0.00     0.235 A 
HETATM    4  N5  UNL     1      21.151   1.881  52.696  1.00  0.00    -0.241 NA
HETATM    5  C12 UNL     1      22.406   1.378  52.785  1.00  0.00     0.072 A 
HETATM    6  C13 UNL     1      22.545   0.060  53.129  1.00  0.00     0.033 A 
HETATM    7  C14 UNL     1      23.826  -0.447  53.222  1.00  0.00     0.014 A 
HETATM    8  C15 UNL     1      24.939   0.364  52.973  1.00  0.00    -0.022 A 
HETATM    9  C20 UNL     1      24.710   1.679  52.633  1.00  0.00     0.030 A 
HETATM   10  C21 UNL     1      23.454   2.235  52.527  1.00  0.00     0.039 A 
ENDROOT
BRANCH   1  11
HETATM   11  N3  UNL     1      24.435   4.416  51.918  1.00  0.00    -0.350 N 
HETATM   12  H12 UNL     1      25.117   4.762  52.589  1.00  0.00     0.163 HD
BRANCH  11  13
HETATM   13  C9  UNL     1      24.600   4.841  50.508  1.00  0.00     0.201 A 
HETATM   14  C2  UNL     1      24.842   6.301  50.464  1.00  0.00    -0.017 A 
HETATM   15  C1  UNL     1      23.694   6.918  51.215  1.00  0.00     0.050 C 
HETATM   16  C3  UNL     1      25.590   7.351  50.076  1.00  0.00     0.031 A 
HETATM   17  C4  UNL     1      26.803   7.705  49.354  1.00  0.00     0.029 A 
HETATM   18  C5  UNL     1      27.833   7.224  48.689  1.00  0.00     0.002 A 
HETATM   19  C6  UNL     1      28.361   5.954  48.278  1.00  0.00    -0.002 A 
HETATM   20  C7  UNL     1      27.848   4.764  48.512  1.00  0.00     0.002 A 
HETATM   21  C8  UNL     1      26.599   4.497  49.260  1.00  0.00     0.319 A 
HETATM   22  N2  UNL     1      25.590   4.087  49.853  1.00  0.00    -0.414 NA
BRANCH  16  23
HETATM   23  N1  UNL     1      24.883   8.507  50.594  1.00  0.00    -0.399 N 
HETATM   24  H4  UNL     1      24.398   9.357  50.896  1.00  0.00     0.156 HD
HETATM   25  H5  UNL     1      24.394   9.394  50.868  1.00  0.00     0.156 HD
ENDBRANCH  16  23
ENDBRANCH  11  13
ENDBRANCH   1  11
BRANCH   8  26
HETATM   26  C16 UNL     1      26.264  -0.235  53.094  1.00  0.00     0.010 A 
HETATM   27  C17 UNL     1      26.568  -1.571  52.845  1.00  0.00     0.152 A 
HETATM   28  N6  UNL     1      27.900  -1.678  53.079  1.00  0.00    -0.185 NA
HETATM   29  N7  UNL     1      28.372  -0.491  53.444  1.00  0.00    -0.285 N 
HETATM   30  C18 UNL     1      29.752  -0.181  53.781  1.00  0.00     0.179 C 
HETATM   31  C19 UNL     1      27.418   0.457  53.477  1.00  0.00     0.125 A 
ENDBRANCH   8  26
TORSDOF 4
ENDMDL
MODEL 2
REMARK VINA RESULT:      -9.6      1.544      2.609
REMARK  4 active torsions:
REMARK  status: ('A' for Active; 'I' for Inactive)
REMARK    1  A    between atoms: C3_3  and  N1_4 
REMARK    2  A    between atoms: C9_11  and  N3_12 
REMARK    3  A    between atoms: N3_12  and  C10_13 
REMARK    4  A    between atoms: C15_20  and  C16_21 
ROOT
HETATM    1  C10 UNL     1      22.807   2.009  50.853  1.00  0.00     0.139 A 
HETATM    2  N4  UNL     1      21.506   2.116  50.567  1.00  0.00    -0.224 NA
HETATM    3  C11 UNL     1      20.544   1.442  51.220  1.00  0.00     0.235 A 
HETATM    4  N5  UNL     1      20.836   0.583  52.242  1.00  0.00    -0.241 NA
HETATM    5  C12 UNL     1      22.135   0.421  52.591  1.00  0.00     0.072 A 
HETATM    6  C13 UNL     1      22.419  -0.439  53.619  1.00  0.00     0.033 A 
HETATM    7  C14 UNL     1      23.743  -0.599  53.973  1.00  0.00     0.014 A 
HETATM    8  C15 UNL     1      24.756   0.097  53.302  1.00  0.00    -0.022 A 
HETATM    9  C20 UNL     1      24.383   0.941  52.281  1.00  0.00     0.030 A 
HETATM   10  C21 UNL     1      23.077   1.138  51.887  1.00  0.00     0.039 A 
ENDROOT
BRANCH   1  11
HETATM   11  N3  UNL     1      23.807   2.727  50.146  1.00  0.00    -0.350 N 
HETATM   12  H12 UNL     1      24.135   2.550  49.200  1.00  0.00     0.163 HD
BRANCH  11  13
HETATM   13  C9  UNL     1      24.433   3.855  50.877  1.00  0.00     0.201 A 
HETATM   14  C2  UNL     1      25.581   4.366  50.094  1.00  0.00    -0.017 A 
HETATM   15  C1  UNL     1      26.456   3.168  49.842  1.00  0.00     0.050 C 
HETATM   16  C3  UNL     1      26.229   5.385  49.497  1.00  0.00     0.031 A 
HETATM   17  C4  UNL     1      26.146   6.814  49.236  1.00  0.00     0.029 A 
HETATM   18  C5  UNL     1      25.421   7.897  49.422  1.00  0.00     0.002 A 
HETATM   19  C6  UNL     1      24.191   8.283  50.053  1.00  0.00    -0.002 A 
HETATM   20  C7  UNL     1      23.353   7.507  50.708  1.00  0.00     0.002 A 
HETATM   21  C8  UNL     1      23.520   6.053  50.927  1.00  0.00     0.319 A 
HETATM   22  N2  UNL     1      23.491   4.845  51.205  1.00  0.00    -0.414 NA
BRANCH  16  23
HETATM   23  N1  UNL     1      27.418   4.773  48.934  1.00  0.00    -0.399 N 
HETATM   24  H4  UNL     1      28.229   4.356  48.470  1.00  0.00     0.156 HD
HETATM   25  H5  UNL     1      28.232   4.355  48.423  1.00  0.00     0.156 HD
ENDBRANCH  16  23
ENDBRANCH  11  13
ENDBRANCH   1  11
BRANCH   8  26
HETATM   26  C16 UNL     1      26.134  -0.116  53.731  1.00  0.00     0.010 A 
HETATM   27  C17 UNL     1      26.646   0.214  54.984  1.00  0.00     0.152 A 
HETATM   28  N6  UNL     1      27.950  -0.158  54.940  1.00  0.00    -0.185 NA
HETATM   29  N7  UNL     1      28.212  -0.677  53.746  1.00  0.00    -0.285 N 
HETATM   30  C18 UNL     1      29.493  -1.196  53.297  1.00  0.00     0.179 C 
HETATM   31  C19 UNL     1      27.136  -0.686  52.938  1.00  0.00     0.125 A 
ENDBRANCH   8  26
TORSDOF 4
ENDMDL
MODEL 3
REMARK VINA RESULT:      -9.2      1.783      4.966
REMARK  4 active torsions:
REMARK  status: ('A' for Active; 'I' for Inactive)
REMARK    1  A    between atoms: C3_3  and  N1_4 
REMARK    2  A    between atoms: C9_11  and  N3_12 
REMARK    3  A    between atoms: N3_12  and  C10_13 
REMARK    4  A    between atoms: C15_20  and  C16_21 
ROOT
HETATM    1  C10 UNL     1      25.053   1.869  53.310  1.00  0.00     0.139 A 
HETATM    2  N4  UNL     1      26.172   1.286  53.749  1.00  0.00    -0.224 NA
HETATM    3  C11 UNL     1      26.235   0.003  54.144  1.00  0.00     0.235 A 
HETATM    4  N5  UNL     1      25.137  -0.810  54.122  1.00  0.00    -0.241 NA
HETATM    5  C12 UNL     1      23.963  -0.290  53.688  1.00  0.00     0.072 A 
HETATM    6  C13 UNL     1      22.868  -1.112  53.666  1.00  0.00     0.033 A 
HETATM    7  C14 UNL     1      21.676  -0.579  53.221  1.00  0.00     0.014 A 
HETATM    8  C15 UNL     1      21.595   0.756  52.807  1.00  0.00    -0.022 A 
HETATM    9  C20 UNL     1      22.744   1.513  52.861  1.00  0.00     0.030 A 
HETATM   10  C21 UNL     1      23.960   1.031  53.297  1.00  0.00     0.039 A 
ENDROOT
BRANCH   1  11
HETATM   11  N3  UNL     1      25.010   3.230  52.903  1.00  0.00    -0.350 N 
HETATM   12  H12 UNL     1      25.125   4.049  53.493  1.00  0.00     0.163 HD
BRANCH  11  13
HETATM   13  C9  UNL     1      24.767   3.465  51.459  1.00  0.00     0.201 A 
HETATM   14  C2  UNL     1      24.312   4.861  51.263  1.00  0.00    -0.017 A 
HETATM   15  C1  UNL     1      23.125   5.025  52.173  1.00  0.00     0.050 C 
HETATM   16  C3  UNL     1      24.442   6.059  50.663  1.00  0.00     0.031 A 
HETATM   17  C4  UNL     1      25.251   6.790  49.699  1.00  0.00     0.029 A 
HETATM   18  C5  UNL     1      26.284   6.708  48.886  1.00  0.00     0.002 A 
HETATM   19  C6  UNL     1      27.267   5.747  48.477  1.00  0.00    -0.002 A 
HETATM   20  C7  UNL     1      27.387   4.503  48.891  1.00  0.00     0.002 A 
HETATM   21  C8  UNL     1      26.512   3.838  49.881  1.00  0.00     0.319 A 
HETATM   22  N2  UNL     1      25.890   3.126  50.685  1.00  0.00    -0.414 NA
BRANCH  16  23
HETATM   23  N1  UNL     1      23.367   6.858  51.221  1.00  0.00    -0.399 N 
HETATM   24  H4  UNL     1      22.608   7.461  51.553  1.00  0.00     0.156 HD
HETATM   25  H5  UNL     1      22.592   7.495  51.526  1.00  0.00     0.156 HD
ENDBRANCH  16  23
ENDBRANCH  11  13
ENDBRANCH   1  11
BRANCH   8  26
HETATM   26  C16 UNL     1      20.304   1.254  52.343  1.00  0.00     0.010 A 
HETATM   27  C17 UNL     1      19.197   0.462  52.047  1.00  0.00     0.152 A 
HETATM   28  N6  UNL     1      18.234   1.336  51.661  1.00  0.00    -0.185 NA
HETATM   29  N7  UNL     1      18.721   2.570  51.718  1.00  0.00    -0.285 N 
HETATM   30  C18 UNL     1      18.007   3.792  51.387  1.00  0.00     0.179 C 
HETATM   31  C19 UNL     1      20.000   2.603  52.133  1.00  0.00     0.125 A 
ENDBRANCH   8  26
TORSDOF 4
ENDMDL
MODEL 4
REMARK VINA RESULT:      -9.1      2.122      2.624
REMARK  4 active torsions:
REMARK  status: ('A' for Active; 'I' for Inactive)
REMARK    1  A    between atoms: C3_3  and  N1_4 
REMARK    2  A    between atoms: C9_11  and  N3_12 
REMARK    3  A    between atoms: N3_12  and  C10_13 
REMARK    4  A    between atoms: C15_20  and  C16_21 
ROOT
HETATM    1  C10 UNL     1      22.031   1.844  51.769  1.00  0.00     0.139 A 
HETATM    2  N4  UNL     1      20.702   1.863  51.644  1.00  0.00    -0.224 NA
HETATM    3  C11 UNL     1      19.881   1.038  52.317  1.00  0.00     0.235 A 
HETATM    4  N5  UNL     1      20.360   0.105  53.192  1.00  0.00    -0.241 NA
HETATM    5  C12 UNL     1      21.701   0.024  53.372  1.00  0.00     0.072 A 
HETATM    6  C13 UNL     1      22.174  -0.912  54.253  1.00  0.00     0.033 A 
HETATM    7  C14 UNL     1      23.539  -0.989  54.436  1.00  0.00     0.014 A 
HETATM    8  C15 UNL     1      24.406  -0.136  53.741  1.00  0.00    -0.022 A 
HETATM    9  C20 UNL     1      23.848   0.776  52.875  1.00  0.00     0.030 A 
HETATM   10  C21 UNL     1      22.492   0.895  52.655  1.00  0.00     0.039 A 
ENDROOT
BRANCH   1  11
HETATM   11  N3  UNL     1      22.880   2.722  51.043  1.00  0.00    -0.350 N 
HETATM   12  H12 UNL     1      23.841   2.550  50.759  1.00  0.00     0.163 HD
BRANCH  11  13
HETATM   13  C9  UNL     1      22.287   4.028  50.666  1.00  0.00     0.201 A 
HETATM   14  C2  UNL     1      23.153   5.119  51.170  1.00  0.00    -0.017 A 
HETATM   15  C1  UNL     1      23.306   4.857  52.644  1.00  0.00     0.050 C 
HETATM   16  C3  UNL     1      23.871   6.237  50.953  1.00  0.00     0.031 A 
HETATM   17  C4  UNL     1      24.277   7.168  49.910  1.00  0.00     0.029 A 
HETATM   18  C5  UNL     1      24.182   7.447  48.627  1.00  0.00     0.002 A 
HETATM   19  C6  UNL     1      23.559   6.921  47.446  1.00  0.00    -0.002 A 
HETATM   20  C7  UNL     1      22.802   5.847  47.355  1.00  0.00     0.002 A 
HETATM   21  C8  UNL     1      22.439   4.953  48.477  1.00  0.00     0.319 A 
HETATM   22  N2  UNL     1      22.036   4.102  49.285  1.00  0.00    -0.414 NA
BRANCH  16  23
HETATM   23  N1  UNL     1      24.403   6.581  52.258  1.00  0.00    -0.399 N 
HETATM   24  H4  UNL     1      24.748   6.891  53.171  1.00  0.00     0.156 HD
HETATM   25  H5  UNL     1      24.738   6.933  53.187  1.00  0.00     0.156 HD
ENDBRANCH  16  23
ENDBRANCH  11  13
ENDBRANCH   1  11
BRANCH   8  26
HETATM   26  C16 UNL     1      25.839  -0.268  53.986  1.00  0.00     0.010 A 
HETATM   27  C17 UNL     1      26.515   0.239  55.092  1.00  0.00     0.152 A 
HETATM   28  N6  UNL     1      27.811  -0.117  54.905  1.00  0.00    -0.185 NA
HETATM   29  N7  UNL     1      27.914  -0.792  53.766  1.00  0.00    -0.285 N 
HETATM   30  C18 UNL     1      29.133  -1.351  53.205  1.00  0.00     0.179 C 
HETATM   31  C19 UNL     1      26.733  -0.929  53.136  1.00  0.00     0.125 A 
ENDBRANCH   8  26
TORSDOF 4
ENDMDL
MODEL 5
REMARK VINA RESULT:      -9.0      2.517      5.820
REMARK  4 active torsions:
REMARK  status: ('A' for Active; 'I' for Inactive)
REMARK    1  A    between atoms: C3_3  and  N1_4 
REMARK    2  A    between atoms: C9_11  and  N3_12 
REMARK    3  A    between atoms: N3_12  and  C10_13 
REMARK    4  A    between atoms: C15_20  and  C16_21 
ROOT
HETATM    1  C10 UNL     1      24.629   0.665  52.891  1.00  0.00     0.139 A 
HETATM    2  N4  UNL     1      25.791   0.435  53.507  1.00  0.00    -0.224 NA
HETATM    3  C11 UNL     1      25.921  -0.378  54.570  1.00  0.00     0.235 A 
HETATM    4  N5  UNL     1      24.850  -1.038  55.104  1.00  0.00    -0.241 NA
HETATM    5  C12 UNL     1      23.634  -0.854  54.533  1.00  0.00     0.072 A 
HETATM    6  C13 UNL     1      22.567  -1.522  55.071  1.00  0.00     0.033 A 
HETATM    7  C14 UNL     1      21.332  -1.335  54.484  1.00  0.00     0.014 A 
HETATM    8  C15 UNL     1      21.182  -0.492  53.377  1.00  0.00    -0.022 A 
HETATM    9  C20 UNL     1      22.308   0.141  52.899  1.00  0.00     0.030 A 
HETATM   10  C21 UNL     1      23.564  -0.010  53.446  1.00  0.00     0.039 A 
ENDROOT
BRANCH   1  11
HETATM   11  N3  UNL     1      24.515   1.533  51.773  1.00  0.00    -0.350 N 
HETATM   12  H12 UNL     1      24.355   1.267  50.804  1.00  0.00     0.163 HD
BRANCH  11  13
HETATM   13  C9  UNL     1      24.648   2.981  52.062  1.00  0.00     0.201 A 
HETATM   14  C2  UNL     1      25.394   3.632  50.960  1.00  0.00    -0.017 A 
HETATM   15  C1  UNL     1      26.678   2.857  50.836  1.00  0.00     0.050 C 
HETATM   16  C3  UNL     1      25.486   4.584  50.012  1.00  0.00     0.031 A 
HETATM   17  C4  UNL     1      24.772   5.710  49.430  1.00  0.00     0.029 A 
HETATM   18  C5  UNL     1      23.667   6.424  49.488  1.00  0.00     0.002 A 
HETATM   19  C6  UNL     1      22.447   6.473  50.241  1.00  0.00    -0.002 A 
HETATM   20  C7  UNL     1      22.083   5.675  51.224  1.00  0.00     0.002 A 
HETATM   21  C8  UNL     1      22.880   4.547  51.755  1.00  0.00     0.319 A 
HETATM   22  N2  UNL     1      23.400   3.573  52.321  1.00  0.00    -0.414 NA
BRANCH  16  23
HETATM   23  N1  UNL     1      26.773   4.344  49.386  1.00  0.00    -0.399 N 
HETATM   24  H4  UNL     1      27.695   4.246  48.953  1.00  0.00     0.156 HD
HETATM   25  H5  UNL     1      27.724   4.283  48.949  1.00  0.00     0.156 HD
ENDBRANCH  16  23
ENDBRANCH  11  13
ENDBRANCH   1  11
BRANCH   8  26
HETATM   26  C16 UNL     1      19.849  -0.343  52.804  1.00  0.00     0.010 A 
HETATM   27  C17 UNL     1      19.532   0.445  51.700  1.00  0.00     0.152 A 
HETATM   28  N6  UNL     1      18.197   0.281  51.523  1.00  0.00    -0.185 NA
HETATM   29  N7  UNL     1      17.736  -0.548  52.453  1.00  0.00    -0.285 N 
HETATM   30  C18 UNL     1      16.358  -0.983  52.609  1.00  0.00     0.179 C 
HETATM   31  C19 UNL     1      18.700  -0.979  53.286  1.00  0.00     0.125 A 
ENDBRANCH   8  26
TORSDOF 4
ENDMDL
MODEL 6
REMARK VINA RESULT:      -8.7      1.970      7.158
REMARK  4 active torsions:
REMARK  status: ('A' for Active; 'I' for Inactive)
REMARK    1  A    between atoms: C3_3  and  N1_4 
REMARK    2  A    between atoms: C9_11  and  N3_12 
REMARK    3  A    between atoms: N3_12  and  C10_13 
REMARK    4  A    between atoms: C15_20  and  C16_21 
ROOT
HETATM    1  C10 UNL     1      23.544   5.208  51.189  1.00  0.00     0.139 A 
HETATM    2  N4  UNL     1      22.273   5.533  51.441  1.00  0.00    -0.224 NA
HETATM    3  C11 UNL     1      21.605   6.490  50.775  1.00  0.00     0.235 A 
HETATM    4  N5  UNL     1      22.192   7.211  49.773  1.00  0.00    -0.241 NA
HETATM    5  C12 UNL     1      23.482   6.939  49.460  1.00  0.00     0.072 A 
HETATM    6  C13 UNL     1      24.062   7.664  48.453  1.00  0.00     0.033 A 
HETATM    7  C14 UNL     1      25.375   7.381  48.134  1.00  0.00     0.014 A 
HETATM    8  C15 UNL     1      26.083   6.387  48.820  1.00  0.00    -0.022 A 
HETATM    9  C20 UNL     1      25.424   5.706  49.819  1.00  0.00     0.030 A 
HETATM   10  C21 UNL     1      24.115   5.948  50.177  1.00  0.00     0.039 A 
ENDROOT
BRANCH   1  11
HETATM   11  N3  UNL     1      24.231   4.196  51.911  1.00  0.00    -0.350 N 
HETATM   12  H12 UNL     1      24.924   4.329  52.643  1.00  0.00     0.163 HD
BRANCH  11  13
HETATM   13  C9  UNL     1      23.894   2.799  51.546  1.00  0.00     0.201 A 
HETATM   14  C2  UNL     1      25.030   1.916  51.897  1.00  0.00    -0.017 A 
HETATM   15  C1  UNL     1      26.227   2.514  51.208  1.00  0.00     0.050 C 
HETATM   16  C3  UNL     1      25.516   0.833  52.532  1.00  0.00     0.031 A 
HETATM   17  C4  UNL     1      25.129  -0.277  53.389  1.00  0.00     0.029 A 
HETATM   18  C5  UNL     1      24.120  -0.845  54.017  1.00  0.00     0.002 A 
HETATM   19  C6  UNL     1      22.712  -0.645  54.209  1.00  0.00    -0.002 A 
HETATM   20  C7  UNL     1      21.969   0.322  53.713  1.00  0.00     0.002 A 
HETATM   21  C8  UNL     1      22.451   1.417  52.842  1.00  0.00     0.319 A 
HETATM   22  N2  UNL     1      22.673   2.397  52.114  1.00  0.00    -0.414 NA
BRANCH  16  23
HETATM   23  N1  UNL     1      26.930   0.832  52.208  1.00  0.00    -0.399 N 
HETATM   24  H4  UNL     1      27.910   0.842  51.909  1.00  0.00     0.156 HD
HETATM   25  H5  UNL     1      27.921   0.849  51.864  1.00  0.00     0.156 HD
ENDBRANCH  16  23
ENDBRANCH  11  13
ENDBRANCH   1  11
BRANCH   8  26
HETATM   26  C16 UNL     1      27.466   6.137  48.429  1.00  0.00     0.010 A 
HETATM   27  C17 UNL     1      28.139   4.927  48.584  1.00  0.00     0.152 A 
HETATM   28  N6  UNL     1      29.382   5.150  48.088  1.00  0.00    -0.185 NA
HETATM   29  N7  UNL     1      29.458   6.406  47.661  1.00  0.00    -0.285 N 
HETATM   30  C18 UNL     1      30.620   7.040  47.059  1.00  0.00     0.179 C 
HETATM   31  C19 UNL     1      28.310   7.083  47.837  1.00  0.00     0.125 A 
ENDBRANCH   8  26
TORSDOF 4
ENDMDL
MODEL 7
REMARK VINA RESULT:      -8.7      1.906      2.754
REMARK  4 active torsions:
REMARK  status: ('A' for Active; 'I' for Inactive)
REMARK    1  A    between atoms: C3_3  and  N1_4 
REMARK    2  A    between atoms: C9_11  and  N3_12 
REMARK    3  A    between atoms: N3_12  and  C10_13 
REMARK    4  A    between atoms: C15_20  and  C16_21 
ROOT
HETATM    1  C10 UNL     1      24.485   5.547  50.217  1.00  0.00     0.139 A 
HETATM    2  N4  UNL     1      23.405   6.117  49.676  1.00  0.00    -0.224 NA
HETATM    3  C11 UNL     1      22.234   5.479  49.505  1.00  0.00     0.235 A 
HETATM    4  N5  UNL     1      22.065   4.176  49.880  1.00  0.00    -0.241 NA
HETATM    5  C12 UNL     1      23.118   3.528  50.437  1.00  0.00     0.072 A 
HETATM    6  C13 UNL     1      22.940   2.223  50.814  1.00  0.00     0.033 A 
HETATM    7  C14 UNL     1      24.012   1.569  51.384  1.00  0.00     0.014 A 
HETATM    8  C15 UNL     1      25.237   2.221  51.568  1.00  0.00    -0.022 A 
HETATM    9  C20 UNL     1      25.331   3.533  51.161  1.00  0.00     0.030 A 
HETATM   10  C21 UNL     1      24.291   4.234  50.587  1.00  0.00     0.039 A 
ENDROOT
BRANCH   1  11
HETATM   11  N3  UNL     1      25.713   6.240  50.383  1.00  0.00    -0.350 N 
HETATM   12  H12 UNL     1      26.170   6.475  51.260  1.00  0.00     0.163 HD
BRANCH  11  13
HETATM   13  C9  UNL     1      26.391   6.662  49.134  1.00  0.00     0.201 A 
HETATM   14  C2  UNL     1      27.127   7.924  49.381  1.00  0.00    -0.017 A 
HETATM   15  C1  UNL     1      26.105   8.877  49.939  1.00  0.00     0.050 C 
HETATM   16  C3  UNL     1      28.268   8.638  49.347  1.00  0.00     0.031 A 
HETATM   17  C4  UNL     1      29.675   8.554  48.988  1.00  0.00     0.029 A 
HETATM   18  C5  UNL     1      30.614   7.765  48.507  1.00  0.00     0.002 A 
HETATM   19  C6  UNL     1      30.759   6.419  48.030  1.00  0.00    -0.002 A 
HETATM   20  C7  UNL     1      29.822   5.498  47.947  1.00  0.00     0.002 A 
HETATM   21  C8  UNL     1      28.406   5.673  48.337  1.00  0.00     0.319 A 
HETATM   22  N2  UNL     1      27.196   5.635  48.610  1.00  0.00    -0.414 NA
BRANCH  16  23
HETATM   23  N1  UNL     1      27.892   9.938  49.868  1.00  0.00    -0.399 N 
HETATM   24  H4  UNL     1      27.685  10.885  50.200  1.00  0.00     0.156 HD
HETATM   25  H5  UNL     1      27.712  10.921  50.187  1.00  0.00     0.156 HD
ENDBRANCH  16  23
ENDBRANCH  11  13
ENDBRANCH   1  11
BRANCH   8  26
HETATM   26  C16 UNL     1      26.328   1.471  52.181  1.00  0.00     0.010 A 
HETATM   27  C17 UNL     1      26.548   0.104  52.030  1.00  0.00     0.152 A 
HETATM   28  N6  UNL     1      27.658  -0.157  52.765  1.00  0.00    -0.185 NA
HETATM   29  N7  UNL     1      28.083   0.972  53.322  1.00  0.00    -0.285 N 
HETATM   30  C18 UNL     1      29.244   1.121  54.184  1.00  0.00     0.179 C 
HETATM   31  C19 UNL     1      27.310   2.027  53.008  1.00  0.00     0.125 A 
ENDBRANCH   8  26
TORSDOF 4
ENDMDL
MODEL 8
REMARK VINA RESULT:      -8.5      2.353      6.795
REMARK  4 active torsions:
REMARK  status: ('A' for Active; 'I' for Inactive)
REMARK    1  A    between atoms: C3_3  and  N1_4 
REMARK    2  A    between atoms: C9_11  and  N3_12 
REMARK    3  A    between atoms: N3_12  and  C10_13 
REMARK    4  A    between atoms: C15_20  and  C16_21 
ROOT
HETATM    1  C10 UNL     1      22.114   3.716  50.532  1.00  0.00     0.139 A 
HETATM    2  N4  UNL     1      20.810   3.930  50.727  1.00  0.00    -0.224 NA
HETATM    3  C11 UNL     1      20.182   5.065  50.373  1.00  0.00     0.235 A 
HETATM    4  N5  UNL     1      20.849   6.099  49.779  1.00  0.00    -0.241 NA
HETATM    5  C12 UNL     1      22.177   5.957  49.549  1.00  0.00     0.072 A 
HETATM    6  C13 UNL     1      22.838   6.996  48.949  1.00  0.00     0.033 A 
HETATM    7  C14 UNL     1      24.189   6.846  48.713  1.00  0.00     0.014 A 
HETATM    8  C15 UNL     1      24.856   5.670  49.076  1.00  0.00    -0.022 A 
HETATM    9  C20 UNL     1      24.116   4.674  49.674  1.00  0.00     0.030 A 
HETATM   10  C21 UNL     1      22.766   4.771  49.932  1.00  0.00     0.039 A 
ENDROOT
BRANCH   1  11
HETATM   11  N3  UNL     1      22.757   2.510  50.919  1.00  0.00    -0.350 N 
HETATM   12  H12 UNL     1      23.052   1.751  50.310  1.00  0.00     0.163 HD
BRANCH  11  13
HETATM   13  C9  UNL     1      23.018   2.353  52.370  1.00  0.00     0.201 A 
HETATM   14  C2  UNL     1      22.904   0.922  52.733  1.00  0.00    -0.017 A 
HETATM   15  C1  UNL     1      21.543   0.496  52.252  1.00  0.00     0.050 C 
HETATM   16  C3  UNL     1      23.424  -0.189  53.289  1.00  0.00     0.031 A 
HETATM   17  C4  UNL     1      24.608  -0.700  53.964  1.00  0.00     0.029 A 
HETATM   18  C5  UNL     1      25.809  -0.387  54.404  1.00  0.00     0.002 A 
HETATM   19  C6  UNL     1      26.683   0.750  54.457  1.00  0.00    -0.002 A 
HETATM   20  C7  UNL     1      26.444   1.960  53.997  1.00  0.00     0.002 A 
HETATM   21  C8  UNL     1      25.202   2.394  53.320  1.00  0.00     0.319 A 
HETATM   22  N2  UNL     1      24.246   2.930  52.739  1.00  0.00    -0.414 NA
BRANCH  16  23
HETATM   23  N1  UNL     1      22.391  -1.193  53.121  1.00  0.00    -0.399 N 
HETATM   24  H4  UNL     1      21.619  -1.862  53.048  1.00  0.00     0.156 HD
HETATM   25  H5  UNL     1      21.579  -1.854  53.071  1.00  0.00     0.156 HD
ENDBRANCH  16  23
ENDBRANCH  11  13
ENDBRANCH   1  11
BRANCH   8  26
HETATM   26  C16 UNL     1      26.284   5.576  48.793  1.00  0.00     0.010 A 
HETATM   27  C17 UNL     1      27.069   4.442  48.985  1.00  0.00     0.152 A 
HETATM   28  N6  UNL     1      28.315   4.806  48.593  1.00  0.00    -0.185 NA
HETATM   29  N7  UNL     1      28.290   6.072  48.191  1.00  0.00    -0.285 N 
HETATM   30  C18 UNL     1      29.420   6.838  47.693  1.00  0.00     0.179 C 
HETATM   31  C19 UNL     1      27.065   6.620  48.285  1.00  0.00     0.125 A 
ENDBRANCH   8  26
TORSDOF 4
ENDMDL
MODEL 9
REMARK VINA RESULT:      -8.5      2.225      8.259
REMARK  4 active torsions:
REMARK  status: ('A' for Active; 'I' for Inactive)
REMARK    1  A    between atoms: C3_3  and  N1_4 
REMARK    2  A    between atoms: C9_11  and  N3_12 
REMARK    3  A    between atoms: N3_12  and  C10_13 
REMARK    4  A    between atoms: C15_20  and  C16_21 
ROOT
HETATM    1  C10 UNL     1      26.463   4.612  49.154  1.00  0.00     0.139 A 
HETATM    2  N4  UNL     1      27.735   4.383  48.816  1.00  0.00    -0.224 NA
HETATM    3  C11 UNL     1      28.554   5.329  48.325  1.00  0.00     0.235 A 
HETATM    4  N5  UNL     1      28.134   6.615  48.135  1.00  0.00    -0.241 NA
HETATM    5  C12 UNL     1      26.854   6.925  48.455  1.00  0.00     0.072 A 
HETATM    6  C13 UNL     1      26.441   8.217  48.264  1.00  0.00     0.033 A 
HETATM    7  C14 UNL     1      25.138   8.529  48.595  1.00  0.00     0.014 A 
HETATM    8  C15 UNL     1      24.274   7.554  49.106  1.00  0.00    -0.022 A 
HETATM    9  C20 UNL     1      24.770   6.279  49.267  1.00  0.00     0.030 A 
HETATM   10  C21 UNL     1      26.061   5.914  48.953  1.00  0.00     0.039 A 
ENDROOT
BRANCH   1  11
HETATM   11  N3  UNL     1      25.613   3.595  49.665  1.00  0.00    -0.350 N 
HETATM   12  H12 UNL     1      24.885   3.094  49.162  1.00  0.00     0.163 HD
BRANCH  11  13
HETATM   13  C9  UNL     1      25.820   3.235  51.089  1.00  0.00     0.201 A 
HETATM   14  C2  UNL     1      24.532   2.795  51.672  1.00  0.00    -0.017 A 
HETATM   15  C1  UNL     1      23.568   3.918  51.402  1.00  0.00     0.050 C 
HETATM   16  C3  UNL     1      23.800   1.877  52.331  1.00  0.00     0.031 A 
HETATM   17  C4  UNL     1      23.876   0.562  52.949  1.00  0.00     0.029 A 
HETATM   18  C5  UNL     1      24.672  -0.454  53.212  1.00  0.00     0.002 A 
HETATM   19  C6  UNL     1      26.038  -0.844  53.004  1.00  0.00    -0.002 A 
HETATM   20  C7  UNL     1      26.979  -0.154  52.395  1.00  0.00     0.002 A 
HETATM   21  C8  UNL     1      26.811   1.187  51.793  1.00  0.00     0.319 A 
HETATM   22  N2  UNL     1      26.856   2.296  51.239  1.00  0.00    -0.414 NA
BRANCH  16  23
HETATM   23  N1  UNL     1      22.479   2.469  52.422  1.00  0.00    -0.399 N 
HETATM   24  H4  UNL     1      21.560   2.899  52.558  1.00  0.00     0.156 HD
HETATM   25  H5  UNL     1      21.547   2.916  52.600  1.00  0.00     0.156 HD
ENDBRANCH  16  23
ENDBRANCH  11  13
ENDBRANCH   1  11
BRANCH   8  26
HETATM   26  C16 UNL     1      22.910   7.953  49.439  1.00  0.00     0.010 A 
HETATM   27  C17 UNL     1      22.063   7.273  50.311  1.00  0.00     0.152 A 
HETATM   28  N6  UNL     1      20.914   7.995  50.318  1.00  0.00    -0.185 NA
HETATM   29  N7  UNL     1      21.053   9.038  49.509  1.00  0.00    -0.285 N 
HETATM   30  C18 UNL     1      20.051  10.056  49.240  1.00  0.00     0.179 C 
HETATM   31  C19 UNL     1      22.264   9.083  48.925  1.00  0.00     0.125 A 
ENDBRANCH   8  26
TORSDOF 4
ENDMDL
