MODEL 1
REMARK VINA RESULT:      -7.6      0.000      0.000
REMARK  7 active torsions:
REMARK  status: ('A' for Active; 'I' for Inactive)
REMARK    1  A    between atoms: C7_7  and  N1_8 
REMARK    2  A    between atoms: N1_8  and  C8_9 
REMARK    3  A    between atoms: C12_15  and  C13_16 
REMARK    4  A    between atoms: C16_21  and  C17_22 
REMARK    5  A    between atoms: C17_22  and  O3_23 
REMARK    6  A    between atoms: O3_23  and  C18_24 
REMARK    7  A    between atoms: C18_24  and  C20_26 
ROOT
HETATM    1  C1  UNL     1      28.003  -2.762  52.747  1.00  0.00     0.018 C 
HETATM    2  C2  UNL     1      27.982  -1.575  52.969  1.00  0.00    -0.078 C 
HETATM    3  C3  UNL     1      27.980  -0.172  53.233  1.00  0.00     0.019 A 
HETATM    4  C4  UNL     1      29.064   0.525  53.712  1.00  0.00     0.021 A 
HETATM    5  C5  UNL     1      29.037   1.872  53.955  1.00  0.00     0.004 A 
HETATM    6  C6  UNL     1      27.806   2.477  53.670  1.00  0.00     0.029 A 
HETATM    7  C7  UNL     1      26.639   1.874  53.183  1.00  0.00     0.035 A 
HETATM    8  C22 UNL     1      26.784   0.502  52.973  1.00  0.00     0.050 A 
ENDROOT
BRANCH   7   9
HETATM    9  N1  UNL     1      25.460   2.688  53.010  1.00  0.00    -0.340 N 
HETATM   10  H5  UNL     1      25.404   2.536  54.028  1.00  0.00     0.167 HD
BRANCH   9  11
HETATM   11  C8  UNL     1      25.559   2.884  51.606  1.00  0.00     0.144 A 
HETATM   12  N2  UNL     1      26.706   2.951  50.940  1.00  0.00    -0.223 NA
HETATM   13  C9  UNL     1      26.737   3.278  49.622  1.00  0.00     0.235 A 
HETATM   14  N3  UNL     1      25.547   3.514  49.099  1.00  0.00    -0.245 NA
HETATM   15  C10 UNL     1      24.432   3.438  49.784  1.00  0.00     0.053 A 
HETATM   16  C11 UNL     1      23.413   3.735  48.954  1.00  0.00     0.066 C 
HETATM   17  C12 UNL     1      24.294   3.104  51.148  1.00  0.00     0.071 A 
BRANCH  17  18
HETATM   18  C13 UNL     1      23.011   2.995  51.320  1.00  0.00     0.120 C 
HETATM   19  O1  UNL     1      21.993   3.932  51.297  1.00  0.00    -0.345 OA
HETATM   20  C14 UNL     1      21.073   4.062  52.366  1.00  0.00     0.202 C 
HETATM   21  C15 UNL     1      20.127   2.890  52.250  1.00  0.00     0.202 C 
HETATM   22  O2  UNL     1      20.841   1.805  51.741  1.00  0.00    -0.344 OA
HETATM   23  C16 UNL     1      22.200   1.832  51.578  1.00  0.00     0.125 C 
BRANCH  23  24
HETATM   24  C17 UNL     1      22.733   0.646  51.664  1.00  0.00     0.174 C 
BRANCH  24  25
HETATM   25  O3  UNL     1      23.400   0.106  52.695  1.00  0.00    -0.355 OA
BRANCH  25  26
HETATM   26  C18 UNL     1      23.174  -0.002  54.050  1.00  0.00     0.123 C 
HETATM   27  C19 UNL     1      24.146  -0.940  54.724  1.00  0.00     0.040 C 
BRANCH  26  28
HETATM   28  C20 UNL     1      21.758  -0.289  54.371  1.00  0.00     0.027 C 
HETATM   29  C21 UNL     1      21.428  -1.774  54.274  1.00  0.00     0.007 C 
ENDBRANCH  26  28
ENDBRANCH  25  26
ENDBRANCH  24  25
ENDBRANCH  23  24
ENDBRANCH  17  18
ENDBRANCH   9  11
ENDBRANCH   7   9
TORSDOF 7
ENDMDL
MODEL 2
REMARK VINA RESULT:      -7.5      1.797      4.199
REMARK  7 active torsions:
REMARK  status: ('A' for Active; 'I' for Inactive)
REMARK    1  A    between atoms: C7_7  and  N1_8 
REMARK    2  A    between atoms: N1_8  and  C8_9 
REMARK    3  A    between atoms: C12_15  and  C13_16 
REMARK    4  A    between atoms: C16_21  and  C17_22 
REMARK    5  A    between atoms: C17_22  and  O3_23 
REMARK    6  A    between atoms: O3_23  and  C18_24 
REMARK    7  A    between atoms: C18_24  and  C20_26 
ROOT
HETATM    1  C1  UNL     1      29.674  -0.893  53.486  1.00  0.00     0.018 C 
HETATM    2  C2  UNL     1      28.512  -0.568  53.432  1.00  0.00    -0.078 C 
HETATM    3  C3  UNL     1      27.132  -0.204  53.375  1.00  0.00     0.019 A 
HETATM    4  C4  UNL     1      26.094  -1.104  53.424  1.00  0.00     0.021 A 
HETATM    5  C5  UNL     1      24.779  -0.730  53.370  1.00  0.00     0.004 A 
HETATM    6  C6  UNL     1      24.585   0.654  53.261  1.00  0.00     0.029 A 
HETATM    7  C7  UNL     1      25.558   1.661  53.201  1.00  0.00     0.035 A 
HETATM    8  C22 UNL     1      26.860   1.161  53.265  1.00  0.00     0.050 A 
ENDROOT
BRANCH   7   9
HETATM    9  N1  UNL     1      25.129   3.028  53.035  1.00  0.00    -0.340 N 
HETATM   10  H5  UNL     1      25.077   2.965  54.063  1.00  0.00     0.167 HD
BRANCH   9  11
HETATM   11  C8  UNL     1      25.210   3.091  51.618  1.00  0.00     0.144 A 
HETATM   12  N2  UNL     1      26.348   3.129  50.936  1.00  0.00    -0.223 NA
HETATM   13  C9  UNL     1      26.358   3.328  49.592  1.00  0.00     0.235 A 
HETATM   14  N3  UNL     1      25.157   3.476  49.063  1.00  0.00    -0.245 NA
HETATM   15  C10 UNL     1      24.050   3.432  49.764  1.00  0.00     0.053 A 
HETATM   16  C11 UNL     1      23.016   3.616  48.921  1.00  0.00     0.066 C 
HETATM   17  C12 UNL     1      23.934   3.227  51.155  1.00  0.00     0.071 A 
BRANCH  17  18
HETATM   18  C13 UNL     1      22.658   3.096  51.351  1.00  0.00     0.120 C 
HETATM   19  O1  UNL     1      21.822   1.994  51.292  1.00  0.00    -0.345 OA
HETATM   20  C14 UNL     1      20.645   1.991  50.504  1.00  0.00     0.202 C 
HETATM   21  C15 UNL     1      19.638   2.834  51.251  1.00  0.00     0.202 C 
HETATM   22  O2  UNL     1      20.329   3.846  51.916  1.00  0.00    -0.344 OA
HETATM   23  C16 UNL     1      21.665   4.073  51.723  1.00  0.00     0.125 C 
BRANCH  23  24
HETATM   24  C17 UNL     1      21.992   5.318  51.931  1.00  0.00     0.174 C 
BRANCH  24  25
HETATM   25  O3  UNL     1      22.052   6.322  51.044  1.00  0.00    -0.355 OA
BRANCH  25  26
HETATM   26  C18 UNL     1      23.021   7.227  50.664  1.00  0.00     0.123 C 
HETATM   27  C19 UNL     1      23.058   7.437  49.169  1.00  0.00     0.040 C 
BRANCH  26  28
HETATM   28  C20 UNL     1      24.345   6.926  51.251  1.00  0.00     0.027 C 
HETATM   29  C21 UNL     1      25.453   6.898  50.205  1.00  0.00     0.007 C 
ENDBRANCH  26  28
ENDBRANCH  25  26
ENDBRANCH  24  25
ENDBRANCH  23  24
ENDBRANCH  17  18
ENDBRANCH   9  11
ENDBRANCH   7   9
TORSDOF 7
ENDMDL
MODEL 3
REMARK VINA RESULT:      -7.4      2.688      5.380
REMARK  7 active torsions:
REMARK  status: ('A' for Active; 'I' for Inactive)
REMARK    1  A    between atoms: C7_7  and  N1_8 
REMARK    2  A    between atoms: N1_8  and  C8_9 
REMARK    3  A    between atoms: C12_15  and  C13_16 
REMARK    4  A    between atoms: C16_21  and  C17_22 
REMARK    5  A    between atoms: C17_22  and  O3_23 
REMARK    6  A    between atoms: O3_23  and  C18_24 
REMARK    7  A    between atoms: C18_24  and  C20_26 
ROOT
HETATM    1  C1  UNL     1      26.961   0.883  52.754  1.00  0.00     0.018 C 
HETATM    2  C2  UNL     1      25.767   0.731  52.849  1.00  0.00    -0.078 C 
HETATM    3  C3  UNL     1      24.358   0.533  52.976  1.00  0.00     0.019 A 
HETATM    4  C4  UNL     1      23.781  -0.607  53.485  1.00  0.00     0.021 A 
HETATM    5  C5  UNL     1      22.427  -0.771  53.597  1.00  0.00     0.004 A 
HETATM    6  C6  UNL     1      21.681   0.327  53.148  1.00  0.00     0.029 A 
HETATM    7  C7  UNL     1      22.154   1.532  52.613  1.00  0.00     0.035 A 
HETATM    8  C22 UNL     1      23.547   1.586  52.546  1.00  0.00     0.050 A 
ENDROOT
BRANCH   7   9
HETATM    9  N1  UNL     1      21.196   2.512  52.163  1.00  0.00    -0.340 N 
HETATM   10  H5  UNL     1      21.085   2.633  53.181  1.00  0.00     0.167 HD
BRANCH   9  11
HETATM   11  C8  UNL     1      21.367   2.329  50.765  1.00  0.00     0.144 A 
HETATM   12  N2  UNL     1      21.277   1.157  50.147  1.00  0.00    -0.223 NA
HETATM   13  C9  UNL     1      21.587   1.028  48.831  1.00  0.00     0.235 A 
HETATM   14  N3  UNL     1      21.974   2.153  48.258  1.00  0.00    -0.245 NA
HETATM   15  C10 UNL     1      22.051   3.297  48.895  1.00  0.00     0.053 A 
HETATM   16  C11 UNL     1      22.473   4.231  48.022  1.00  0.00     0.066 C 
HETATM   17  C12 UNL     1      21.749   3.535  50.252  1.00  0.00     0.071 A 
BRANCH  17  18
HETATM   18  C13 UNL     1      21.811   4.826  50.370  1.00  0.00     0.120 C 
HETATM   19  O1  UNL     1      20.877   5.821  50.140  1.00  0.00    -0.345 OA
HETATM   20  C14 UNL     1      21.156   6.928  49.302  1.00  0.00     0.202 C 
HETATM   21  C15 UNL     1      22.068   7.835  50.094  1.00  0.00     0.202 C 
HETATM   22  O2  UNL     1      22.872   7.037  50.907  1.00  0.00    -0.344 OA
HETATM   23  C16 UNL     1      22.893   5.673  50.807  1.00  0.00     0.125 C 
BRANCH  23  24
HETATM   24  C17 UNL     1      24.036   5.165  51.177  1.00  0.00     0.174 C 
BRANCH  24  25
HETATM   25  O3  UNL     1      25.222   5.244  50.555  1.00  0.00    -0.355 OA
BRANCH  25  26
HETATM   26  C18 UNL     1      25.742   4.732  49.385  1.00  0.00     0.123 C 
HETATM   27  C19 UNL     1      26.307   3.343  49.566  1.00  0.00     0.040 C 
BRANCH  26  28
HETATM   28  C20 UNL     1      26.675   5.667  48.719  1.00  0.00     0.027 C 
HETATM   29  C21 UNL     1      28.065   5.069  48.534  1.00  0.00     0.007 C 
ENDBRANCH  26  28
ENDBRANCH  25  26
ENDBRANCH  24  25
ENDBRANCH  23  24
ENDBRANCH  17  18
ENDBRANCH   9  11
ENDBRANCH   7   9
TORSDOF 7
ENDMDL
MODEL 4
REMARK VINA RESULT:      -7.3      1.891      4.492
REMARK  7 active torsions:
REMARK  status: ('A' for Active; 'I' for Inactive)
REMARK    1  A    between atoms: C7_7  and  N1_8 
REMARK    2  A    between atoms: N1_8  and  C8_9 
REMARK    3  A    between atoms: C12_15  and  C13_16 
REMARK    4  A    between atoms: C16_21  and  C17_22 
REMARK    5  A    between atoms: C17_22  and  O3_23 
REMARK    6  A    between atoms: O3_23  and  C18_24 
REMARK    7  A    between atoms: C18_24  and  C20_26 
ROOT
HETATM    1  C1  UNL     1      29.004  -2.747  53.251  1.00  0.00     0.018 C 
HETATM    2  C2  UNL     1      28.692  -1.582  53.204  1.00  0.00    -0.078 C 
HETATM    3  C3  UNL     1      28.344  -0.197  53.160  1.00  0.00     0.019 A 
HETATM    4  C4  UNL     1      28.971   0.781  53.895  1.00  0.00     0.021 A 
HETATM    5  C5  UNL     1      28.620   2.102  53.833  1.00  0.00     0.004 A 
HETATM    6  C6  UNL     1      27.563   2.369  52.951  1.00  0.00     0.029 A 
HETATM    7  C7  UNL     1      26.851   1.461  52.156  1.00  0.00     0.035 A 
HETATM    8  C22 UNL     1      27.297   0.147  52.302  1.00  0.00     0.050 A 
ENDROOT
BRANCH   7   9
HETATM    9  N1  UNL     1      25.757   1.954  51.355  1.00  0.00    -0.340 N 
HETATM   10  H5  UNL     1      26.540   2.398  50.851  1.00  0.00     0.167 HD
BRANCH   9  11
HETATM   11  C8  UNL     1      24.696   1.330  52.064  1.00  0.00     0.144 A 
HETATM   12  N2  UNL     1      24.855   0.617  53.173  1.00  0.00    -0.223 NA
HETATM   13  C9  UNL     1      23.820  -0.068  53.726  1.00  0.00     0.235 A 
HETATM   14  N3  UNL     1      22.684   0.049  53.061  1.00  0.00    -0.245 NA
HETATM   15  C10 UNL     1      22.558   0.762  51.969  1.00  0.00     0.053 A 
HETATM   16  C11 UNL     1      21.280   0.667  51.555  1.00  0.00     0.066 C 
HETATM   17  C12 UNL     1      23.566   1.509  51.322  1.00  0.00     0.071 A 
BRANCH  17  18
HETATM   18  C13 UNL     1      22.930   2.167  50.400  1.00  0.00     0.120 C 
HETATM   19  O1  UNL     1      22.296   1.755  49.241  1.00  0.00    -0.345 OA
HETATM   20  C14 UNL     1      22.595   2.330  47.982  1.00  0.00     0.202 C 
HETATM   21  C15 UNL     1      21.935   3.689  47.973  1.00  0.00     0.202 C 
HETATM   22  O2  UNL     1      21.962   4.191  49.273  1.00  0.00    -0.344 OA
HETATM   23  C16 UNL     1      22.650   3.577  50.284  1.00  0.00     0.125 C 
BRANCH  23  24
HETATM   24  C17 UNL     1      23.042   4.417  51.200  1.00  0.00     0.174 C 
BRANCH  24  25
HETATM   25  O3  UNL     1      24.172   5.140  51.239  1.00  0.00    -0.355 OA
BRANCH  25  26
HETATM   26  C18 UNL     1      24.626   6.269  50.591  1.00  0.00     0.123 C 
HETATM   27  C19 UNL     1      23.626   7.400  50.638  1.00  0.00     0.040 C 
BRANCH  26  28
HETATM   28  C20 UNL     1      25.130   5.983  49.230  1.00  0.00     0.027 C 
HETATM   29  C21 UNL     1      26.191   4.889  49.220  1.00  0.00     0.007 C 
ENDBRANCH  26  28
ENDBRANCH  25  26
ENDBRANCH  24  25
ENDBRANCH  23  24
ENDBRANCH  17  18
ENDBRANCH   9  11
ENDBRANCH   7   9
TORSDOF 7
ENDMDL
MODEL 5
REMARK VINA RESULT:      -7.2      3.003      6.117
REMARK  7 active torsions:
REMARK  status: ('A' for Active; 'I' for Inactive)
REMARK    1  A    between atoms: C7_7  and  N1_8 
REMARK    2  A    between atoms: N1_8  and  C8_9 
REMARK    3  A    between atoms: C12_15  and  C13_16 
REMARK    4  A    between atoms: C16_21  and  C17_22 
REMARK    5  A    between atoms: C17_22  and  O3_23 
REMARK    6  A    between atoms: O3_23  and  C18_24 
REMARK    7  A    between atoms: C18_24  and  C20_26 
ROOT
HETATM    1  C1  UNL     1      22.162  -1.388  53.952  1.00  0.00     0.018 C 
HETATM    2  C2  UNL     1      23.020  -0.616  53.598  1.00  0.00    -0.078 C 
HETATM    3  C3  UNL     1      24.048   0.279  53.171  1.00  0.00     0.019 A 
HETATM    4  C4  UNL     1      25.297  -0.120  52.759  1.00  0.00     0.021 A 
HETATM    5  C5  UNL     1      26.264   0.758  52.352  1.00  0.00     0.004 A 
HETATM    6  C6  UNL     1      25.867   2.102  52.392  1.00  0.00     0.029 A 
HETATM    7  C7  UNL     1      24.630   2.625  52.792  1.00  0.00     0.035 A 
HETATM    8  C22 UNL     1      23.725   1.638  53.184  1.00  0.00     0.050 A 
ENDROOT
BRANCH   7   9
HETATM    9  N1  UNL     1      24.456   4.057  52.802  1.00  0.00    -0.340 N 
HETATM   10  H5  UNL     1      25.248   3.986  53.458  1.00  0.00     0.167 HD
BRANCH   9  11
HETATM   11  C8  UNL     1      23.365   4.131  51.894  1.00  0.00     0.144 A 
HETATM   12  N2  UNL     1      22.105   3.868  52.217  1.00  0.00    -0.223 NA
HETATM   13  C9  UNL     1      21.129   3.822  51.273  1.00  0.00     0.235 A 
HETATM   14  N3  UNL     1      21.560   4.056  50.046  1.00  0.00    -0.245 NA
HETATM   15  C10 UNL     1      22.813   4.313  49.759  1.00  0.00     0.053 A 
HETATM   16  C11 UNL     1      22.904   4.503  48.428  1.00  0.00     0.066 C 
HETATM   17  C12 UNL     1      23.893   4.388  50.663  1.00  0.00     0.071 A 
BRANCH  17  18
HETATM   18  C13 UNL     1      24.879   4.830  49.943  1.00  0.00     0.120 C 
HETATM   19  O1  UNL     1      25.697   4.209  49.014  1.00  0.00    -0.345 OA
HETATM   20  C14 UNL     1      27.109   4.263  49.108  1.00  0.00     0.202 C 
HETATM   21  C15 UNL     1      27.506   5.653  48.670  1.00  0.00     0.202 C 
HETATM   22  O2  UNL     1      26.497   6.534  49.058  1.00  0.00    -0.344 OA
HETATM   23  C16 UNL     1      25.453   6.150  49.855  1.00  0.00     0.125 C 
BRANCH  23  24
HETATM   24  C17 UNL     1      24.977   7.137  50.560  1.00  0.00     0.174 C 
BRANCH  24  25
HETATM   25  O3  UNL     1      24.290   8.208  50.136  1.00  0.00    -0.355 OA
BRANCH  25  26
HETATM   26  C18 UNL     1      23.028   8.411  49.617  1.00  0.00     0.123 C 
HETATM   27  C19 UNL     1      21.955   7.728  50.431  1.00  0.00     0.040 C 
BRANCH  26  28
HETATM   28  C20 UNL     1      22.952   8.112  48.170  1.00  0.00     0.027 C 
HETATM   29  C21 UNL     1      24.092   8.747  47.383  1.00  0.00     0.007 C 
ENDBRANCH  26  28
ENDBRANCH  25  26
ENDBRANCH  24  25
ENDBRANCH  23  24
ENDBRANCH  17  18
ENDBRANCH   9  11
ENDBRANCH   7   9
TORSDOF 7
ENDMDL
MODEL 6
REMARK VINA RESULT:      -7.2      2.368      4.972
REMARK  7 active torsions:
REMARK  status: ('A' for Active; 'I' for Inactive)
REMARK    1  A    between atoms: C7_7  and  N1_8 
REMARK    2  A    between atoms: N1_8  and  C8_9 
REMARK    3  A    between atoms: C12_15  and  C13_16 
REMARK    4  A    between atoms: C16_21  and  C17_22 
REMARK    5  A    between atoms: C17_22  and  O3_23 
REMARK    6  A    between atoms: O3_23  and  C18_24 
REMARK    7  A    between atoms: C18_24  and  C20_26 
ROOT
HETATM    1  C1  UNL     1      25.629  -0.822  53.988  1.00  0.00     0.018 C 
HETATM    2  C2  UNL     1      24.437  -0.644  53.917  1.00  0.00    -0.078 C 
HETATM    3  C3  UNL     1      23.024  -0.453  53.847  1.00  0.00     0.019 A 
HETATM    4  C4  UNL     1      22.097  -1.370  54.283  1.00  0.00     0.021 A 
HETATM    5  C5  UNL     1      20.747  -1.161  54.206  1.00  0.00     0.004 A 
HETATM    6  C6  UNL     1      20.393   0.073  53.644  1.00  0.00     0.029 A 
HETATM    7  C7  UNL     1      21.242   1.080  53.167  1.00  0.00     0.035 A 
HETATM    8  C22 UNL     1      22.593   0.757  53.297  1.00  0.00     0.050 A 
ENDROOT
BRANCH   7   9
HETATM    9  N1  UNL     1      20.654   2.258  52.577  1.00  0.00    -0.340 N 
HETATM   10  H5  UNL     1      20.406   2.430  53.563  1.00  0.00     0.167 HD
BRANCH   9  11
HETATM   11  C8  UNL     1      21.008   2.000  51.226  1.00  0.00     0.144 A 
HETATM   12  N2  UNL     1      20.634   0.922  50.547  1.00  0.00    -0.223 NA
HETATM   13  C9  UNL     1      21.120   0.667  49.304  1.00  0.00     0.235 A 
HETATM   14  N3  UNL     1      21.973   1.575  48.866  1.00  0.00    -0.245 NA
HETATM   15  C10 UNL     1      22.322   2.631  49.560  1.00  0.00     0.053 A 
HETATM   16  C11 UNL     1      23.198   3.342  48.823  1.00  0.00     0.066 C 
HETATM   17  C12 UNL     1      21.874   2.986  50.849  1.00  0.00     0.071 A 
BRANCH  17  18
HETATM   18  C13 UNL     1      22.358   4.175  51.038  1.00  0.00     0.120 C 
HETATM   19  O1  UNL     1      21.883   5.431  50.699  1.00  0.00    -0.345 OA
HETATM   20  C14 UNL     1      22.673   6.358  49.976  1.00  0.00     0.202 C 
HETATM   21  C15 UNL     1      23.686   6.901  50.956  1.00  0.00     0.202 C 
HETATM   22  O2  UNL     1      24.005   5.885  51.856  1.00  0.00    -0.344 OA
HETATM   23  C16 UNL     1      23.570   4.597  51.695  1.00  0.00     0.125 C 
BRANCH  23  24
HETATM   24  C17 UNL     1      24.381   3.728  52.231  1.00  0.00     0.174 C 
BRANCH  24  25
HETATM   25  O3  UNL     1      25.218   2.880  51.615  1.00  0.00    -0.355 OA
BRANCH  25  26
HETATM   26  C18 UNL     1      26.470   2.375  51.895  1.00  0.00     0.123 C 
HETATM   27  C19 UNL     1      26.660   0.977  51.355  1.00  0.00     0.040 C 
BRANCH  26  28
HETATM   28  C20 UNL     1      26.834   2.511  53.323  1.00  0.00     0.027 C 
HETATM   29  C21 UNL     1      28.310   2.230  53.577  1.00  0.00     0.007 C 
ENDBRANCH  26  28
ENDBRANCH  25  26
ENDBRANCH  24  25
ENDBRANCH  23  24
ENDBRANCH  17  18
ENDBRANCH   9  11
ENDBRANCH   7   9
TORSDOF 7
ENDMDL
MODEL 7
REMARK VINA RESULT:      -7.0      2.933      5.874
REMARK  7 active torsions:
REMARK  status: ('A' for Active; 'I' for Inactive)
REMARK    1  A    between atoms: C7_7  and  N1_8 
REMARK    2  A    between atoms: N1_8  and  C8_9 
REMARK    3  A    between atoms: C12_15  and  C13_16 
REMARK    4  A    between atoms: C16_21  and  C17_22 
REMARK    5  A    between atoms: C17_22  and  O3_23 
REMARK    6  A    between atoms: O3_23  and  C18_24 
REMARK    7  A    between atoms: C18_24  and  C20_26 
ROOT
HETATM    1  C1  UNL     1      27.184  -0.393  52.714  1.00  0.00     0.018 C 
HETATM    2  C2  UNL     1      26.013  -0.132  52.849  1.00  0.00    -0.078 C 
HETATM    3  C3  UNL     1      24.626   0.159  53.024  1.00  0.00     0.019 A 
HETATM    4  C4  UNL     1      23.728  -0.693  53.623  1.00  0.00     0.021 A 
HETATM    5  C5  UNL     1      22.403  -0.389  53.780  1.00  0.00     0.004 A 
HETATM    6  C6  UNL     1      22.043   0.869  53.277  1.00  0.00     0.029 A 
HETATM    7  C7  UNL     1      22.864   1.815  52.651  1.00  0.00     0.035 A 
HETATM    8  C22 UNL     1      24.192   1.398  52.546  1.00  0.00     0.050 A 
ENDROOT
BRANCH   7   9
HETATM    9  N1  UNL     1      22.266   3.033  52.161  1.00  0.00    -0.340 N 
HETATM   10  H5  UNL     1      22.676   3.395  53.035  1.00  0.00     0.167 HD
BRANCH   9  11
HETATM   11  C8  UNL     1      21.711   2.513  50.961  1.00  0.00     0.144 A 
HETATM   12  N2  UNL     1      20.584   1.815  50.900  1.00  0.00    -0.223 NA
HETATM   13  C9  UNL     1      20.179   1.228  49.744  1.00  0.00     0.235 A 
HETATM   14  N3  UNL     1      21.002   1.420  48.728  1.00  0.00    -0.245 NA
HETATM   15  C10 UNL     1      22.109   2.116  48.820  1.00  0.00     0.053 A 
HETATM   16  C11 UNL     1      22.702   2.115  47.610  1.00  0.00     0.066 C 
HETATM   17  C12 UNL     1      22.611   2.765  49.967  1.00  0.00     0.071 A 
BRANCH  17  18
HETATM   18  C13 UNL     1      23.622   3.451  49.527  1.00  0.00     0.120 C 
HETATM   19  O1  UNL     1      24.953   3.119  49.341  1.00  0.00    -0.345 OA
HETATM   20  C14 UNL     1      26.001   3.896  49.892  1.00  0.00     0.202 C 
HETATM   21  C15 UNL     1      26.093   5.141  49.041  1.00  0.00     0.202 C 
HETATM   22  O2  UNL     1      24.809   5.460  48.600  1.00  0.00    -0.344 OA
HETATM   23  C16 UNL     1      23.694   4.812  49.056  1.00  0.00     0.125 C 
BRANCH  23  24
HETATM   24  C17 UNL     1      22.630   5.565  49.014  1.00  0.00     0.174 C 
BRANCH  24  25
HETATM   25  O3  UNL     1      22.167   6.406  49.951  1.00  0.00    -0.355 OA
BRANCH  25  26
HETATM   26  C18 UNL     1      22.494   7.681  50.359  1.00  0.00     0.123 C 
HETATM   27  C19 UNL     1      22.261   8.709  49.277  1.00  0.00     0.040 C 
BRANCH  26  28
HETATM   28  C20 UNL     1      23.841   7.759  50.966  1.00  0.00     0.027 C 
HETATM   29  C21 UNL     1      24.827   8.535  50.100  1.00  0.00     0.007 C 
ENDBRANCH  26  28
ENDBRANCH  25  26
ENDBRANCH  24  25
ENDBRANCH  23  24
ENDBRANCH  17  18
ENDBRANCH   9  11
ENDBRANCH   7   9
TORSDOF 7
ENDMDL
MODEL 8
REMARK VINA RESULT:      -6.9      2.400      5.500
REMARK  7 active torsions:
REMARK  status: ('A' for Active; 'I' for Inactive)
REMARK    1  A    between atoms: C7_7  and  N1_8 
REMARK    2  A    between atoms: N1_8  and  C8_9 
REMARK    3  A    between atoms: C12_15  and  C13_16 
REMARK    4  A    between atoms: C16_21  and  C17_22 
REMARK    5  A    between atoms: C17_22  and  O3_23 
REMARK    6  A    between atoms: O3_23  and  C18_24 
REMARK    7  A    between atoms: C18_24  and  C20_26 
ROOT
HETATM    1  C1  UNL     1      21.845  -0.933  54.384  1.00  0.00     0.018 C 
HETATM    2  C2  UNL     1      22.840  -0.527  53.835  1.00  0.00    -0.078 C 
HETATM    3  C3  UNL     1      24.030  -0.067  53.194  1.00  0.00     0.019 A 
HETATM    4  C4  UNL     1      25.285  -0.574  53.436  1.00  0.00     0.021 A 
HETATM    5  C5  UNL     1      26.410  -0.116  52.806  1.00  0.00     0.004 A 
HETATM    6  C6  UNL     1      26.169   0.916  51.889  1.00  0.00     0.029 A 
HETATM    7  C7  UNL     1      24.943   1.511  51.561  1.00  0.00     0.035 A 
HETATM    8  C22 UNL     1      23.869   0.964  52.265  1.00  0.00     0.050 A 
ENDROOT
BRANCH   7   9
HETATM    9  N1  UNL     1      24.935   2.603  50.619  1.00  0.00    -0.340 N 
HETATM   10  H5  UNL     1      25.522   1.939  50.092  1.00  0.00     0.167 HD
BRANCH   9  11
HETATM   11  C8  UNL     1      24.123   3.501  51.363  1.00  0.00     0.144 A 
HETATM   12  N2  UNL     1      24.352   3.845  52.625  1.00  0.00    -0.223 NA
HETATM   13  C9  UNL     1      23.463   4.598  53.323  1.00  0.00     0.235 A 
HETATM   14  N3  UNL     1      22.388   4.935  52.633  1.00  0.00    -0.245 NA
HETATM   15  C10 UNL     1      22.191   4.581  51.387  1.00  0.00     0.053 A 
HETATM   16  C11 UNL     1      21.008   5.089  50.991  1.00  0.00     0.066 C 
HETATM   17  C12 UNL     1      23.051   3.808  50.578  1.00  0.00     0.071 A 
BRANCH  17  18
HETATM   18  C13 UNL     1      22.517   3.870  49.396  1.00  0.00     0.120 C 
HETATM   19  O1  UNL     1      21.437   3.211  48.834  1.00  0.00    -0.345 OA
HETATM   20  C14 UNL     1      21.545   2.513  47.607  1.00  0.00     0.202 C 
HETATM   21  C15 UNL     1      21.585   3.567  46.526  1.00  0.00     0.202 C 
HETATM   22  O2  UNL     1      22.239   4.688  47.038  1.00  0.00    -0.344 OA
HETATM   23  C16 UNL     1      22.865   4.680  48.255  1.00  0.00     0.125 C 
BRANCH  23  24
HETATM   24  C17 UNL     1      23.853   5.528  48.310  1.00  0.00     0.174 C 
BRANCH  24  25
HETATM   25  O3  UNL     1      25.106   5.320  48.744  1.00  0.00    -0.355 OA
BRANCH  25  26
HETATM   26  C18 UNL     1      26.069   6.103  49.344  1.00  0.00     0.123 C 
HETATM   27  C19 UNL     1      25.484   7.064  50.352  1.00  0.00     0.040 C 
BRANCH  26  28
HETATM   28  C20 UNL     1      26.969   6.751  48.364  1.00  0.00     0.027 C 
HETATM   29  C21 UNL     1      28.325   6.062  48.274  1.00  0.00     0.007 C 
ENDBRANCH  26  28
ENDBRANCH  25  26
ENDBRANCH  24  25
ENDBRANCH  23  24
ENDBRANCH  17  18
ENDBRANCH   9  11
ENDBRANCH   7   9
TORSDOF 7
ENDMDL
MODEL 9
REMARK VINA RESULT:      -6.9      2.427      4.559
REMARK  7 active torsions:
REMARK  status: ('A' for Active; 'I' for Inactive)
REMARK    1  A    between atoms: C7_7  and  N1_8 
REMARK    2  A    between atoms: N1_8  and  C8_9 
REMARK    3  A    between atoms: C12_15  and  C13_16 
REMARK    4  A    between atoms: C16_21  and  C17_22 
REMARK    5  A    between atoms: C17_22  and  O3_23 
REMARK    6  A    between atoms: O3_23  and  C18_24 
REMARK    7  A    between atoms: C18_24  and  C20_26 
ROOT
HETATM    1  C1  UNL     1      20.234  -0.863  53.806  1.00  0.00     0.018 C 
HETATM    2  C2  UNL     1      21.390  -0.553  53.645  1.00  0.00    -0.078 C 
HETATM    3  C3  UNL     1      22.764  -0.205  53.471  1.00  0.00     0.019 A 
HETATM    4  C4  UNL     1      23.785  -0.670  54.264  1.00  0.00     0.021 A 
HETATM    5  C5  UNL     1      25.095  -0.323  54.074  1.00  0.00     0.004 A 
HETATM    6  C6  UNL     1      25.302   0.550  52.997  1.00  0.00     0.029 A 
HETATM    7  C7  UNL     1      24.347   1.088  52.126  1.00  0.00     0.035 A 
HETATM    8  C22 UNL     1      23.049   0.664  52.415  1.00  0.00     0.050 A 
ENDROOT
BRANCH   7   9
HETATM    9  N1  UNL     1      24.782   2.015  51.110  1.00  0.00    -0.340 N 
HETATM   10  H5  UNL     1      25.325   1.189  50.818  1.00  0.00     0.167 HD
BRANCH   9  11
HETATM   11  C8  UNL     1      24.023   3.140  51.530  1.00  0.00     0.144 A 
HETATM   12  N2  UNL     1      24.063   3.655  52.753  1.00  0.00    -0.223 NA
HETATM   13  C9  UNL     1      23.212   4.644  53.131  1.00  0.00     0.235 A 
HETATM   14  N3  UNL     1      22.371   5.019  52.183  1.00  0.00    -0.245 NA
HETATM   15  C10 UNL     1      22.357   4.492  50.983  1.00  0.00     0.053 A 
HETATM   16  C11 UNL     1      21.387   5.101  50.274  1.00  0.00     0.066 C 
HETATM   17  C12 UNL     1      23.198   3.470  50.494  1.00  0.00     0.071 A 
BRANCH  17  18
HETATM   18  C13 UNL     1      22.922   3.411  49.227  1.00  0.00     0.120 C 
HETATM   19  O1  UNL     1      23.276   4.226  48.165  1.00  0.00    -0.345 OA
HETATM   20  C14 UNL     1      22.308   4.770  47.287  1.00  0.00     0.202 C 
HETATM   21  C15 UNL     1      21.867   3.635  46.392  1.00  0.00     0.202 C 
HETATM   22  O2  UNL     1      21.915   2.455  47.135  1.00  0.00    -0.344 OA
HETATM   23  C16 UNL     1      22.153   2.445  48.483  1.00  0.00     0.125 C 
BRANCH  23  24
HETATM   24  C17 UNL     1      21.610   1.419  49.075  1.00  0.00     0.174 C 
BRANCH  24  25
HETATM   25  O3  UNL     1      20.327   1.244  49.427  1.00  0.00    -0.355 OA
BRANCH  25  26
HETATM   26  C18 UNL     1      19.673   0.961  50.607  1.00  0.00     0.123 C 
HETATM   27  C19 UNL     1      18.269   0.454  50.380  1.00  0.00     0.040 C 
BRANCH  26  28
HETATM   28  C20 UNL     1      19.748   2.072  51.581  1.00  0.00     0.027 C 
HETATM   29  C21 UNL     1      18.492   2.936  51.579  1.00  0.00     0.007 C 
ENDBRANCH  26  28
ENDBRANCH  25  26
ENDBRANCH  24  25
ENDBRANCH  23  24
ENDBRANCH  17  18
ENDBRANCH   9  11
ENDBRANCH   7   9
TORSDOF 7
ENDMDL
