MODEL 1
REMARK VINA RESULT:      -8.2      0.000      0.000
REMARK  0 active torsions:
REMARK  status: ('A' for Active; 'I' for Inactive)
ROOT
HETATM    1  F1  UNL     1      30.268  -1.526  53.732  1.00  0.00    -0.206 F 
HETATM    2  C1  UNL     1      29.036  -1.061  53.401  1.00  0.00     0.117 A 
HETATM    3  C2  UNL     1      28.040  -1.924  52.975  1.00  0.00     0.045 A 
HETATM    4  C3  UNL     1      26.803  -1.412  52.649  1.00  0.00     0.040 A 
HETATM    5  C4  UNL     1      26.498  -0.048  52.728  1.00  0.00     0.078 A 
HETATM    6  C5  UNL     1      27.537   0.749  53.158  1.00  0.00     0.006 A 
HETATM    7  C6  UNL     1      28.789   0.280  53.495  1.00  0.00     0.054 A 
HETATM    8  C7  UNL     1      27.450   2.245  53.323  1.00  0.00     0.312 C 
HETATM    9  N1  UNL     1      26.169   2.461  53.970  1.00  0.00     0.098 N 
HETATM   10  C8  UNL     1      25.119   2.588  53.003  1.00  0.00     0.278 C 
HETATM   11  C9  UNL     1      24.211   3.691  53.439  1.00  0.00     0.011 C 
HETATM   12  C10 UNL     1      23.409   4.561  52.813  1.00  0.00    -0.001 C 
HETATM   13  C11 UNL     1      23.005   4.891  51.458  1.00  0.00     0.017 C 
HETATM   14  C12 UNL     1      23.232   4.496  50.220  1.00  0.00     0.084 C 
HETATM   15  N2  UNL     1      23.911   3.617  49.368  1.00  0.00    -0.381 N 
HETATM   16  C13 UNL     1      23.472   2.276  49.696  1.00  0.00     0.268 C 
HETATM   17  N3  UNL     1      23.769   1.866  50.975  1.00  0.00    -0.284 NA
HETATM   18  C14 UNL     1      23.166   1.446  51.968  1.00  0.00     0.120 C 
HETATM   19  C15 UNL     1      24.384   1.287  52.860  1.00  0.00     0.206 C 
HETATM   20  O1  UNL     1      25.237   0.312  52.374  1.00  0.00    -0.338 OA
HETATM   21  H6  UNL     1      26.185   3.188  54.707  1.00  0.00     0.317 HD
HETATM   22  H12 UNL     1      24.613   3.836  48.632  1.00  0.00     0.160 HD
ENDROOT
TORSDOF 0
ENDMDL
MODEL 2
REMARK VINA RESULT:      -7.5      1.909      2.687
REMARK  0 active torsions:
REMARK  status: ('A' for Active; 'I' for Inactive)
ROOT
HETATM    1  F1  UNL     1      28.287  -0.571  54.202  1.00  0.00    -0.206 F 
HETATM    2  C1  UNL     1      27.167  -0.069  53.621  1.00  0.00     0.117 A 
HETATM    3  C2  UNL     1      25.909  -0.499  54.013  1.00  0.00     0.045 A 
HETATM    4  C3  UNL     1      24.797   0.035  53.400  1.00  0.00     0.040 A 
HETATM    5  C4  UNL     1      24.875   1.001  52.389  1.00  0.00     0.078 A 
HETATM    6  C5  UNL     1      26.156   1.378  52.052  1.00  0.00     0.006 A 
HETATM    7  C6  UNL     1      27.296   0.871  52.639  1.00  0.00     0.054 A 
HETATM    8  C7  UNL     1      26.493   2.400  50.996  1.00  0.00     0.312 C 
HETATM    9  N1  UNL     1      25.549   3.478  51.225  1.00  0.00     0.098 N 
HETATM   10  C8  UNL     1      24.329   3.257  50.507  1.00  0.00     0.278 C 
HETATM   11  C9  UNL     1      23.888   4.557  49.920  1.00  0.00     0.011 C 
HETATM   12  C10 UNL     1      23.179   4.918  48.843  1.00  0.00    -0.001 C 
HETATM   13  C11 UNL     1      22.493   4.289  47.728  1.00  0.00     0.017 C 
HETATM   14  C12 UNL     1      22.247   3.083  47.254  1.00  0.00     0.084 C 
HETATM   15  N2  UNL     1      22.411   1.700  47.404  1.00  0.00    -0.381 N 
HETATM   16  C13 UNL     1      21.769   1.324  48.647  1.00  0.00     0.268 C 
HETATM   17  N3  UNL     1      22.314   1.892  49.774  1.00  0.00    -0.284 NA
HETATM   18  C14 UNL     1      21.941   2.592  50.722  1.00  0.00     0.120 C 
HETATM   19  C15 UNL     1      23.286   2.677  51.419  1.00  0.00     0.206 C 
HETATM   20  O1  UNL     1      23.694   1.435  51.876  1.00  0.00    -0.338 OA
HETATM   21  H6  UNL     1      25.957   4.425  51.127  1.00  0.00     0.317 HD
HETATM   22  H12 UNL     1      22.901   1.032  46.775  1.00  0.00     0.160 HD
ENDROOT
TORSDOF 0
ENDMDL
MODEL 3
REMARK VINA RESULT:      -7.5      2.353      3.907
REMARK  0 active torsions:
REMARK  status: ('A' for Active; 'I' for Inactive)
ROOT
HETATM    1  F1  UNL     1      25.766  -1.222  53.930  1.00  0.00    -0.206 F 
HETATM    2  C1  UNL     1      25.650  -0.143  53.112  1.00  0.00     0.117 A 
HETATM    3  C2  UNL     1      26.715   0.272  52.328  1.00  0.00     0.045 A 
HETATM    4  C3  UNL     1      26.557   1.370  51.511  1.00  0.00     0.040 A 
HETATM    5  C4  UNL     1      25.362   2.095  51.432  1.00  0.00     0.078 A 
HETATM    6  C5  UNL     1      24.349   1.625  52.240  1.00  0.00     0.006 A 
HETATM    7  C6  UNL     1      24.463   0.531  53.071  1.00  0.00     0.054 A 
HETATM    8  C7  UNL     1      22.975   2.238  52.326  1.00  0.00     0.312 C 
HETATM    9  N1  UNL     1      22.617   2.512  50.946  1.00  0.00     0.098 N 
HETATM   10  C8  UNL     1      23.080   3.806  50.541  1.00  0.00     0.278 C 
HETATM   11  C9  UNL     1      22.009   4.455  49.728  1.00  0.00     0.011 C 
HETATM   12  C10 UNL     1      21.635   5.717  49.488  1.00  0.00    -0.001 C 
HETATM   13  C11 UNL     1      22.036   7.063  49.860  1.00  0.00     0.017 C 
HETATM   14  C12 UNL     1      22.946   7.670  50.598  1.00  0.00     0.084 C 
HETATM   15  N2  UNL     1      24.046   7.543  51.455  1.00  0.00    -0.381 N 
HETATM   16  C13 UNL     1      25.107   6.907  50.701  1.00  0.00     0.268 C 
HETATM   17  N3  UNL     1      24.823   5.635  50.263  1.00  0.00    -0.284 NA
HETATM   18  C14 UNL     1      24.781   5.021  49.192  1.00  0.00     0.120 C 
HETATM   19  C15 UNL     1      24.363   3.682  49.771  1.00  0.00     0.206 C 
HETATM   20  O1  UNL     1      25.354   3.156  50.584  1.00  0.00    -0.338 OA
HETATM   21  H6  UNL     1      21.630   2.302  50.716  1.00  0.00     0.317 HD
HETATM   22  H12 UNL     1      24.129   7.827  52.452  1.00  0.00     0.160 HD
ENDROOT
TORSDOF 0
ENDMDL
MODEL 4
REMARK VINA RESULT:      -7.3      3.396      4.797
REMARK  0 active torsions:
REMARK  status: ('A' for Active; 'I' for Inactive)
ROOT
HETATM    1  F1  UNL     1      21.917  -2.031  54.047  1.00  0.00    -0.206 F 
HETATM    2  C1  UNL     1      22.485  -0.949  53.454  1.00  0.00     0.117 A 
HETATM    3  C2  UNL     1      23.749  -0.518  53.822  1.00  0.00     0.045 A 
HETATM    4  C3  UNL     1      24.290   0.583  53.196  1.00  0.00     0.040 A 
HETATM    5  C4  UNL     1      23.620   1.298  52.196  1.00  0.00     0.078 A 
HETATM    6  C5  UNL     1      22.368   0.812  51.884  1.00  0.00     0.006 A 
HETATM    7  C6  UNL     1      21.788  -0.286  52.484  1.00  0.00     0.054 A 
HETATM    8  C7  UNL     1      21.458   1.411  50.842  1.00  0.00     0.312 C 
HETATM    9  N1  UNL     1      22.333   1.691  49.719  1.00  0.00     0.098 N 
HETATM   10  C8  UNL     1      22.922   2.991  49.835  1.00  0.00     0.278 C 
HETATM   11  C9  UNL     1      22.910   3.634  48.488  1.00  0.00     0.011 C 
HETATM   12  C10 UNL     1      22.860   4.895  48.040  1.00  0.00    -0.001 C 
HETATM   13  C11 UNL     1      22.794   6.242  48.579  1.00  0.00     0.017 C 
HETATM   14  C12 UNL     1      22.754   6.853  49.748  1.00  0.00     0.084 C 
HETATM   15  N2  UNL     1      22.743   6.732  51.143  1.00  0.00    -0.381 N 
HETATM   16  C13 UNL     1      23.993   6.111  51.530  1.00  0.00     0.268 C 
HETATM   17  N3  UNL     1      24.182   4.839  51.043  1.00  0.00    -0.284 NA
HETATM   18  C14 UNL     1      25.014   4.231  50.362  1.00  0.00     0.120 C 
HETATM   19  C15 UNL     1      24.315   2.884  50.388  1.00  0.00     0.206 C 
HETATM   20  O1  UNL     1      24.277   2.363  51.670  1.00  0.00    -0.338 OA
HETATM   21  H6  UNL     1      21.919   1.472  48.795  1.00  0.00     0.317 HD
HETATM   22  H12 UNL     1      21.997   7.011  51.814  1.00  0.00     0.160 HD
ENDROOT
TORSDOF 0
ENDMDL
MODEL 5
REMARK VINA RESULT:      -7.1      4.052      6.794
REMARK  0 active torsions:
REMARK  status: ('A' for Active; 'I' for Inactive)
ROOT
HETATM    1  F1  UNL     1      22.334   8.046  50.469  1.00  0.00    -0.206 F 
HETATM    2  C1  UNL     1      22.140   6.711  50.632  1.00  0.00     0.117 A 
HETATM    3  C2  UNL     1      21.167   6.040  49.910  1.00  0.00     0.045 A 
HETATM    4  C3  UNL     1      21.002   4.686  50.104  1.00  0.00     0.040 A 
HETATM    5  C4  UNL     1      21.777   3.946  51.005  1.00  0.00     0.078 A 
HETATM    6  C5  UNL     1      22.724   4.679  51.687  1.00  0.00     0.006 A 
HETATM    7  C6  UNL     1      22.923   6.035  51.523  1.00  0.00     0.054 A 
HETATM    8  C7  UNL     1      23.675   4.105  52.705  1.00  0.00     0.312 C 
HETATM    9  N1  UNL     1      24.137   2.866  52.106  1.00  0.00     0.098 N 
HETATM   10  C8  UNL     1      23.262   1.779  52.430  1.00  0.00     0.278 C 
HETATM   11  C9  UNL     1      24.097   0.581  52.741  1.00  0.00     0.011 C 
HETATM   12  C10 UNL     1      23.948  -0.503  53.513  1.00  0.00    -0.001 C 
HETATM   13  C11 UNL     1      22.961  -1.074  54.412  1.00  0.00     0.017 C 
HETATM   14  C12 UNL     1      21.761  -0.801  54.888  1.00  0.00     0.084 C 
HETATM   15  N2  UNL     1      20.675   0.083  54.913  1.00  0.00    -0.381 N 
HETATM   16  C13 UNL     1      20.136   0.140  53.569  1.00  0.00     0.268 C 
HETATM   17  N3  UNL     1      21.001   0.633  52.620  1.00  0.00    -0.284 NA
HETATM   18  C14 UNL     1      21.494   0.266  51.548  1.00  0.00     0.120 C 
HETATM   19  C15 UNL     1      22.315   1.517  51.294  1.00  0.00     0.206 C 
HETATM   20  O1  UNL     1      21.502   2.619  51.091  1.00  0.00    -0.338 OA
HETATM   21  H6  UNL     1      25.146   2.680  52.244  1.00  0.00     0.317 HD
HETATM   22  H12 UNL     1      20.296   0.625  55.716  1.00  0.00     0.160 HD
ENDROOT
TORSDOF 0
ENDMDL
MODEL 6
REMARK VINA RESULT:      -7.1      3.425      4.442
REMARK  0 active torsions:
REMARK  status: ('A' for Active; 'I' for Inactive)
ROOT
HETATM    1  F1  UNL     1      22.748  -2.185  55.366  1.00  0.00    -0.206 F 
HETATM    2  C1  UNL     1      22.429  -1.085  54.635  1.00  0.00     0.117 A 
HETATM    3  C2  UNL     1      21.156  -0.540  54.688  1.00  0.00     0.045 A 
HETATM    4  C3  UNL     1      20.873   0.576  53.933  1.00  0.00     0.040 A 
HETATM    5  C4  UNL     1      21.817   1.196  53.105  1.00  0.00     0.078 A 
HETATM    6  C5  UNL     1      23.059   0.599  53.103  1.00  0.00     0.006 A 
HETATM    7  C6  UNL     1      23.386  -0.518  53.843  1.00  0.00     0.054 A 
HETATM    8  C7  UNL     1      24.235   1.084  52.294  1.00  0.00     0.312 C 
HETATM    9  N1  UNL     1      24.219   2.525  52.465  1.00  0.00     0.098 N 
HETATM   10  C8  UNL     1      23.387   3.152  51.482  1.00  0.00     0.278 C 
HETATM   11  C9  UNL     1      24.078   4.384  50.999  1.00  0.00     0.011 C 
HETATM   12  C10 UNL     1      24.082   5.083  49.857  1.00  0.00    -0.001 C 
HETATM   13  C11 UNL     1      23.460   5.033  48.546  1.00  0.00     0.017 C 
HETATM   14  C12 UNL     1      22.609   4.287  47.868  1.00  0.00     0.084 C 
HETATM   15  N2  UNL     1      21.777   3.161  47.857  1.00  0.00    -0.381 N 
HETATM   16  C13 UNL     1      20.762   3.366  48.871  1.00  0.00     0.268 C 
HETATM   17  N3  UNL     1      21.242   3.467  50.156  1.00  0.00    -0.284 NA
HETATM   18  C14 UNL     1      21.202   4.274  51.090  1.00  0.00     0.120 C 
HETATM   19  C15 UNL     1      22.038   3.462  52.062  1.00  0.00     0.206 C 
HETATM   20  O1  UNL     1      21.394   2.289  52.418  1.00  0.00    -0.338 OA
HETATM   21  H6  UNL     1      25.157   2.947  52.588  1.00  0.00     0.317 HD
HETATM   22  H12 UNL     1      21.840   2.311  47.259  1.00  0.00     0.160 HD
ENDROOT
TORSDOF 0
ENDMDL
MODEL 7
REMARK VINA RESULT:      -7.0      3.356      6.512
REMARK  0 active torsions:
REMARK  status: ('A' for Active; 'I' for Inactive)
ROOT
HETATM    1  F1  UNL     1      22.538   5.764  46.692  1.00  0.00    -0.206 F 
HETATM    2  C1  UNL     1      23.043   5.248  47.843  1.00  0.00     0.117 A 
HETATM    3  C2  UNL     1      23.923   5.979  48.624  1.00  0.00     0.045 A 
HETATM    4  C3  UNL     1      24.411   5.421  49.785  1.00  0.00     0.040 A 
HETATM    5  C4  UNL     1      24.059   4.137  50.220  1.00  0.00     0.078 A 
HETATM    6  C5  UNL     1      23.181   3.471  49.393  1.00  0.00     0.006 A 
HETATM    7  C6  UNL     1      22.667   3.991  48.223  1.00  0.00     0.054 A 
HETATM    8  C7  UNL     1      22.657   2.081  49.651  1.00  0.00     0.312 C 
HETATM    9  N1  UNL     1      22.331   2.076  51.065  1.00  0.00     0.098 N 
HETATM   10  C8  UNL     1      23.467   1.707  51.855  1.00  0.00     0.278 C 
HETATM   11  C9  UNL     1      23.007   0.785  52.936  1.00  0.00     0.011 C 
HETATM   12  C10 UNL     1      23.568  -0.208  53.637  1.00  0.00    -0.001 C 
HETATM   13  C11 UNL     1      24.846  -0.892  53.726  1.00  0.00     0.017 C 
HETATM   14  C12 UNL     1      26.042  -0.860  53.170  1.00  0.00     0.084 C 
HETATM   15  N2  UNL     1      26.889  -0.263  52.228  1.00  0.00    -0.381 N 
HETATM   16  C13 UNL     1      27.050   1.124  52.613  1.00  0.00     0.268 C 
HETATM   17  N3  UNL     1      25.892   1.865  52.601  1.00  0.00    -0.284 NA
HETATM   18  C14 UNL     1      25.234   2.555  53.387  1.00  0.00     0.120 C 
HETATM   19  C15 UNL     1      24.132   2.932  52.414  1.00  0.00     0.206 C 
HETATM   20  O1  UNL     1      24.619   3.718  51.384  1.00  0.00    -0.338 OA
HETATM   21  H6  UNL     1      21.450   1.581  51.294  1.00  0.00     0.317 HD
HETATM   22  H12 UNL     1      27.334  -0.691  51.391  1.00  0.00     0.160 HD
ENDROOT
TORSDOF 0
ENDMDL
MODEL 8
REMARK VINA RESULT:      -7.0      3.994      5.474
REMARK  0 active torsions:
REMARK  status: ('A' for Active; 'I' for Inactive)
ROOT
HETATM    1  F1  UNL     1      19.267  -2.299  54.187  1.00  0.00    -0.206 F 
HETATM    2  C1  UNL     1      20.218  -1.396  53.833  1.00  0.00     0.117 A 
HETATM    3  C2  UNL     1      21.366  -1.237  54.592  1.00  0.00     0.045 A 
HETATM    4  C3  UNL     1      22.308  -0.312  54.198  1.00  0.00     0.040 A 
HETATM    5  C4  UNL     1      22.161   0.485  53.056  1.00  0.00     0.078 A 
HETATM    6  C5  UNL     1      20.996   0.272  52.352  1.00  0.00     0.006 A 
HETATM    7  C6  UNL     1      20.028  -0.643  52.709  1.00  0.00     0.054 A 
HETATM    8  C7  UNL     1      20.617   1.007  51.092  1.00  0.00     0.312 C 
HETATM    9  N1  UNL     1      21.840   1.034  50.310  1.00  0.00     0.098 N 
HETATM   10  C8  UNL     1      22.636   2.178  50.641  1.00  0.00     0.278 C 
HETATM   11  C9  UNL     1      23.191   2.744  49.375  1.00  0.00     0.011 C 
HETATM   12  C10 UNL     1      23.567   3.963  48.967  1.00  0.00    -0.001 C 
HETATM   13  C11 UNL     1      23.638   5.315  49.492  1.00  0.00     0.017 C 
HETATM   14  C12 UNL     1      23.370   5.974  50.604  1.00  0.00     0.084 C 
HETATM   15  N2  UNL     1      22.895   5.924  51.920  1.00  0.00    -0.381 N 
HETATM   16  C13 UNL     1      23.789   5.062  52.667  1.00  0.00     0.268 C 
HETATM   17  N3  UNL     1      23.833   3.758  52.232  1.00  0.00    -0.284 NA
HETATM   18  C14 UNL     1      24.679   2.951  51.833  1.00  0.00     0.120 C 
HETATM   19  C15 UNL     1      23.724   1.794  51.602  1.00  0.00     0.206 C 
HETATM   20  O1  UNL     1      23.171   1.354  52.792  1.00  0.00    -0.338 OA
HETATM   21  H6  UNL     1      21.698   0.869  49.298  1.00  0.00     0.317 HD
HETATM   22  H12 UNL     1      22.059   6.390  52.328  1.00  0.00     0.160 HD
ENDROOT
TORSDOF 0
ENDMDL
MODEL 9
REMARK VINA RESULT:      -6.7      8.539      9.191
REMARK  0 active torsions:
REMARK  status: ('A' for Active; 'I' for Inactive)
ROOT
HETATM    1  F1  UNL     1      35.645   2.865  46.522  1.00  0.00    -0.206 F 
HETATM    2  C1  UNL     1      34.480   3.513  46.785  1.00  0.00     0.117 A 
HETATM    3  C2  UNL     1      33.265   2.852  46.703  1.00  0.00     0.045 A 
HETATM    4  C3  UNL     1      32.105   3.545  46.977  1.00  0.00     0.040 A 
HETATM    5  C4  UNL     1      32.094   4.897  47.339  1.00  0.00     0.078 A 
HETATM    6  C5  UNL     1      33.338   5.487  47.400  1.00  0.00     0.006 A 
HETATM    7  C6  UNL     1      34.522   4.832  47.134  1.00  0.00     0.054 A 
HETATM    8  C7  UNL     1      33.579   6.929  47.767  1.00  0.00     0.312 C 
HETATM    9  N1  UNL     1      32.706   7.162  48.903  1.00  0.00     0.098 N 
HETATM   10  C8  UNL     1      31.403   7.573  48.475  1.00  0.00     0.278 C 
HETATM   11  C9  UNL     1      30.938   8.670  49.375  1.00  0.00     0.011 C 
HETATM   12  C10 UNL     1      30.118   9.720  49.245  1.00  0.00    -0.001 C 
HETATM   13  C11 UNL     1      29.283  10.331  48.225  1.00  0.00     0.017 C 
HETATM   14  C12 UNL     1      28.941  10.144  46.964  1.00  0.00     0.084 C 
HETATM   15  N2  UNL     1      29.076   9.365  45.809  1.00  0.00    -0.381 N 
HETATM   16  C13 UNL     1      28.575   8.042  46.122  1.00  0.00     0.268 C 
HETATM   17  N3  UNL     1      29.270   7.379  47.107  1.00  0.00    -0.284 NA
HETATM   18  C14 UNL     1      29.037   6.854  48.200  1.00  0.00     0.120 C 
HETATM   19  C15 UNL     1      30.458   6.406  48.488  1.00  0.00     0.206 C 
HETATM   20  O1  UNL     1      30.876   5.448  47.580  1.00  0.00    -0.338 OA
HETATM   21  H6  UNL     1      33.131   7.738  49.651  1.00  0.00     0.317 HD
HETATM   22  H12 UNL     1      29.464   9.637  44.883  1.00  0.00     0.160 HD
ENDROOT
TORSDOF 0
ENDMDL
