MODEL 1
REMARK VINA RESULT:      -6.5      0.000      0.000
REMARK  9 active torsions:
REMARK  status: ('A' for Active; 'I' for Inactive)
REMARK    1  A    between atoms: C2_2  and  C3_3 
REMARK    2  A    between atoms: C3_3  and  N1_4 
REMARK    3  A    between atoms: N1_4  and  C4_5 
REMARK    4  A    between atoms: N1_4  and  C6_7 
REMARK    5  A    between atoms: C6_7  and  C7_8 
REMARK    6  A    between atoms: C7_8  and  C8_9 
REMARK    7  A    between atoms: C8_9  and  C9_10 
REMARK    8  A    between atoms: C9_10  and  N2_12 
REMARK    9  A    between atoms: N2_12  and  C11_13 
ROOT
HETATM    1  C9  UNL     1      26.068   3.447  50.295  1.00  0.00     0.077 C 
HETATM    2  C10 UNL     1      26.914   4.061  49.225  1.00  0.00     0.032 C 
ENDROOT
BRANCH   1   3
HETATM    3  C8  UNL     1      24.832   4.148  50.686  1.00  0.00     0.026 C 
BRANCH   3   4
HETATM    4  C7  UNL     1      23.698   3.384  51.270  1.00  0.00     0.021 C 
BRANCH   4   5
HETATM    5  C6  UNL     1      23.476   1.995  50.759  1.00  0.00     0.117 C 
BRANCH   5   6
HETATM    6  N1  UNL     1      22.634   1.215  51.621  1.00  0.00    -0.413 N 
BRANCH   6   7
HETATM    7  C3  UNL     1      23.105   0.910  52.884  1.00  0.00     0.116 C 
BRANCH   7   8
HETATM    8  C2  UNL     1      23.087  -0.516  53.338  1.00  0.00     0.015 C 
HETATM    9  C1  UNL     1      22.231  -0.803  54.522  1.00  0.00     0.006 C 
ENDBRANCH   7   8
ENDBRANCH   6   7
BRANCH   6  10
HETATM   10  C4  UNL     1      21.360   0.917  51.169  1.00  0.00     0.112 C 
HETATM   11  C5  UNL     1      21.361   0.811  49.644  1.00  0.00     0.026 C 
ENDBRANCH   6  10
ENDBRANCH   5   6
ENDBRANCH   4   5
ENDBRANCH   3   4
ENDBRANCH   1   3
BRANCH   1  12
HETATM   12  N2  UNL     1      26.890   3.133  51.471  1.00  0.00    -0.385 N 
HETATM   13  H23 UNL     1      27.529   3.864  51.908  1.00  0.00     0.160 HD
BRANCH  12  14
HETATM   14  C11 UNL     1      27.130   2.017  52.311  1.00  0.00     0.046 C 
HETATM   15  C12 UNL     1      26.687   0.840  51.828  1.00  0.00     0.032 C 
HETATM   16  C13 UNL     1      26.646  -0.586  52.218  1.00  0.00     0.022 C 
HETATM   17  C14 UNL     1      27.438  -1.275  53.055  1.00  0.00     0.118 C 
HETATM   18  N3  UNL     1      28.582  -0.965  53.878  1.00  0.00    -0.254 NA
HETATM   19  C15 UNL     1      28.988   0.151  54.389  1.00  0.00     0.232 C 
HETATM   20  N4  UNL     1      28.541   1.508  54.389  1.00  0.00    -0.252 NA
HETATM   21  C16 UNL     1      27.825   2.245  53.598  1.00  0.00     0.147 C 
ENDBRANCH  12  14
ENDBRANCH   1  12
TORSDOF 9
ENDMDL
MODEL 2
REMARK VINA RESULT:      -6.0      1.201      2.374
REMARK  9 active torsions:
REMARK  status: ('A' for Active; 'I' for Inactive)
REMARK    1  A    between atoms: C2_2  and  C3_3 
REMARK    2  A    between atoms: C3_3  and  N1_4 
REMARK    3  A    between atoms: N1_4  and  C4_5 
REMARK    4  A    between atoms: N1_4  and  C6_7 
REMARK    5  A    between atoms: C6_7  and  C7_8 
REMARK    6  A    between atoms: C7_8  and  C8_9 
REMARK    7  A    between atoms: C8_9  and  C9_10 
REMARK    8  A    between atoms: C9_10  and  N2_12 
REMARK    9  A    between atoms: N2_12  and  C11_13 
ROOT
HETATM    1  C9  UNL     1      25.705   2.472  51.104  1.00  0.00     0.077 C 
HETATM    2  C10 UNL     1      26.244   3.169  49.894  1.00  0.00     0.032 C 
ENDROOT
BRANCH   1   3
HETATM    3  C8  UNL     1      24.617   3.129  51.852  1.00  0.00     0.026 C 
BRANCH   3   4
HETATM    4  C7  UNL     1      23.925   2.399  52.947  1.00  0.00     0.021 C 
BRANCH   4   5
HETATM    5  C6  UNL     1      23.405   1.032  52.634  1.00  0.00     0.117 C 
BRANCH   5   6
HETATM    6  N1  UNL     1      21.977   0.942  52.747  1.00  0.00    -0.413 N 
BRANCH   6   7
HETATM    7  C3  UNL     1      21.216   1.295  51.649  1.00  0.00     0.116 C 
BRANCH   7   8
HETATM    8  C2  UNL     1      21.482   0.623  50.338  1.00  0.00     0.015 C 
HETATM    9  C1  UNL     1      21.788   1.532  49.200  1.00  0.00     0.006 C 
ENDBRANCH   7   8
ENDBRANCH   6   7
BRANCH   6  10
HETATM   10  C4  UNL     1      21.461   0.400  53.911  1.00  0.00     0.112 C 
HETATM   11  C5  UNL     1      21.565  -1.125  53.864  1.00  0.00     0.026 C 
ENDBRANCH   6  10
ENDBRANCH   5   6
ENDBRANCH   4   5
ENDBRANCH   3   4
ENDBRANCH   1   3
BRANCH   1  12
HETATM   12  N2  UNL     1      26.805   2.091  51.999  1.00  0.00    -0.385 N 
HETATM   13  H23 UNL     1      27.496   2.815  52.361  1.00  0.00     0.160 HD
BRANCH  12  14
HETATM   14  C11 UNL     1      27.297   0.909  52.607  1.00  0.00     0.046 C 
HETATM   15  C12 UNL     1      26.715  -0.230  52.180  1.00  0.00     0.032 C 
HETATM   16  C13 UNL     1      26.795  -1.686  52.424  1.00  0.00     0.022 C 
HETATM   17  C14 UNL     1      27.810  -2.429  52.893  1.00  0.00     0.118 C 
HETATM   18  N3  UNL     1      29.159  -2.166  53.333  1.00  0.00    -0.254 NA
HETATM   19  C15 UNL     1      29.713  -1.093  53.791  1.00  0.00     0.232 C 
HETATM   20  N4  UNL     1      29.297   0.246  54.065  1.00  0.00    -0.252 NA
HETATM   21  C16 UNL     1      28.368   1.035  53.620  1.00  0.00     0.147 C 
ENDBRANCH  12  14
ENDBRANCH   1  12
TORSDOF 9
ENDMDL
MODEL 3
REMARK VINA RESULT:      -6.0      1.356      1.892
REMARK  9 active torsions:
REMARK  status: ('A' for Active; 'I' for Inactive)
REMARK    1  A    between atoms: C2_2  and  C3_3 
REMARK    2  A    between atoms: C3_3  and  N1_4 
REMARK    3  A    between atoms: N1_4  and  C4_5 
REMARK    4  A    between atoms: N1_4  and  C6_7 
REMARK    5  A    between atoms: C6_7  and  C7_8 
REMARK    6  A    between atoms: C7_8  and  C8_9 
REMARK    7  A    between atoms: C8_9  and  C9_10 
REMARK    8  A    between atoms: C9_10  and  N2_12 
REMARK    9  A    between atoms: N2_12  and  C11_13 
ROOT
HETATM    1  C9  UNL     1      26.253   3.405  49.958  1.00  0.00     0.077 C 
HETATM    2  C10 UNL     1      27.145   4.258  49.114  1.00  0.00     0.032 C 
ENDROOT
BRANCH   1   3
HETATM    3  C8  UNL     1      24.840   3.805  50.093  1.00  0.00     0.026 C 
BRANCH   3   4
HETATM    4  C7  UNL     1      23.766   2.931  49.551  1.00  0.00     0.021 C 
BRANCH   4   5
HETATM    5  C6  UNL     1      22.356   3.277  49.913  1.00  0.00     0.117 C 
BRANCH   5   6
HETATM    6  N1  UNL     1      21.972   2.764  51.197  1.00  0.00    -0.413 N 
BRANCH   6   7
HETATM    7  C3  UNL     1      22.225   1.431  51.465  1.00  0.00     0.116 C 
BRANCH   7   8
HETATM    8  C2  UNL     1      21.333   0.390  50.864  1.00  0.00     0.015 C 
HETATM    9  C1  UNL     1      19.920   0.408  51.329  1.00  0.00     0.006 C 
ENDBRANCH   7   8
ENDBRANCH   6   7
BRANCH   6  10
HETATM   10  C4  UNL     1      21.477   3.665  52.123  1.00  0.00     0.112 C 
HETATM   11  C5  UNL     1      21.638   5.092  51.597  1.00  0.00     0.026 C 
ENDBRANCH   6  10
ENDBRANCH   5   6
ENDBRANCH   4   5
ENDBRANCH   3   4
ENDBRANCH   1   3
BRANCH   1  12
HETATM   12  N2  UNL     1      26.864   3.180  51.274  1.00  0.00    -0.385 N 
HETATM   13  H23 UNL     1      27.319   3.977  51.813  1.00  0.00     0.160 HD
BRANCH  12  14
HETATM   14  C11 UNL     1      27.066   2.094  52.161  1.00  0.00     0.046 C 
HETATM   15  C12 UNL     1      26.608   0.907  51.716  1.00  0.00     0.032 C 
HETATM   16  C13 UNL     1      26.531  -0.501  52.160  1.00  0.00     0.022 C 
HETATM   17  C14 UNL     1      27.293  -1.172  53.038  1.00  0.00     0.118 C 
HETATM   18  N3  UNL     1      28.428  -0.852  53.871  1.00  0.00    -0.254 NA
HETATM   19  C15 UNL     1      28.847   0.274  54.345  1.00  0.00     0.232 C 
HETATM   20  N4  UNL     1      28.428   1.639  54.284  1.00  0.00    -0.252 NA
HETATM   21  C16 UNL     1      27.741   2.358  53.452  1.00  0.00     0.147 C 
ENDBRANCH  12  14
ENDBRANCH   1  12
TORSDOF 9
ENDMDL
MODEL 4
REMARK VINA RESULT:      -5.9      2.212      2.605
REMARK  9 active torsions:
REMARK  status: ('A' for Active; 'I' for Inactive)
REMARK    1  A    between atoms: C2_2  and  C3_3 
REMARK    2  A    between atoms: C3_3  and  N1_4 
REMARK    3  A    between atoms: N1_4  and  C4_5 
REMARK    4  A    between atoms: N1_4  and  C6_7 
REMARK    5  A    between atoms: C6_7  and  C7_8 
REMARK    6  A    between atoms: C7_8  and  C8_9 
REMARK    7  A    between atoms: C8_9  and  C9_10 
REMARK    8  A    between atoms: C9_10  and  N2_12 
REMARK    9  A    between atoms: N2_12  and  C11_13 
ROOT
HETATM    1  C9  UNL     1      24.276   1.727  52.264  1.00  0.00     0.077 C 
HETATM    2  C10 UNL     1      24.340   3.040  52.979  1.00  0.00     0.032 C 
ENDROOT
BRANCH   1   3
HETATM    3  C8  UNL     1      23.019   1.374  51.579  1.00  0.00     0.026 C 
BRANCH   3   4
HETATM    4  C7  UNL     1      21.842   2.277  51.676  1.00  0.00     0.021 C 
BRANCH   4   5
HETATM    5  C6  UNL     1      20.825   1.961  52.728  1.00  0.00     0.117 C 
BRANCH   5   6
HETATM    6  N1  UNL     1      20.272   0.644  52.587  1.00  0.00    -0.413 N 
BRANCH   6   7
HETATM    7  C3  UNL     1      20.243  -0.170  53.704  1.00  0.00     0.116 C 
BRANCH   7   8
HETATM    8  C2  UNL     1      21.286  -1.233  53.852  1.00  0.00     0.015 C 
HETATM    9  C1  UNL     1      22.266  -1.022  54.952  1.00  0.00     0.006 C 
ENDBRANCH   7   8
ENDBRANCH   6   7
BRANCH   6  10
HETATM   10  C4  UNL     1      19.701   0.319  51.369  1.00  0.00     0.112 C 
HETATM   11  C5  UNL     1      18.307  -0.270  51.590  1.00  0.00     0.026 C 
ENDBRANCH   6  10
ENDBRANCH   5   6
ENDBRANCH   4   5
ENDBRANCH   3   4
ENDBRANCH   1   3
BRANCH   1  12
HETATM   12  N2  UNL     1      24.712   0.645  53.155  1.00  0.00    -0.385 N 
HETATM   13  H23 UNL     1      24.017   0.123  53.770  1.00  0.00     0.160 HD
BRANCH  12  14
HETATM   14  C11 UNL     1      25.926  -0.003  53.498  1.00  0.00     0.046 C 
HETATM   15  C12 UNL     1      26.210  -1.097  52.765  1.00  0.00     0.032 C 
HETATM   16  C13 UNL     1      27.263  -2.128  52.656  1.00  0.00     0.022 C 
HETATM   17  C14 UNL     1      28.556  -2.083  53.013  1.00  0.00     0.118 C 
HETATM   18  N3  UNL     1      29.424  -1.097  53.610  1.00  0.00    -0.254 NA
HETATM   19  C15 UNL     1      29.167  -0.075  54.357  1.00  0.00     0.232 C 
HETATM   20  N4  UNL     1      27.997   0.530  54.911  1.00  0.00    -0.252 NA
HETATM   21  C16 UNL     1      26.739   0.569  54.595  1.00  0.00     0.147 C 
ENDBRANCH  12  14
ENDBRANCH   1  12
TORSDOF 9
ENDMDL
MODEL 5
REMARK VINA RESULT:      -5.8      1.749      3.991
REMARK  9 active torsions:
REMARK  status: ('A' for Active; 'I' for Inactive)
REMARK    1  A    between atoms: C2_2  and  C3_3 
REMARK    2  A    between atoms: C3_3  and  N1_4 
REMARK    3  A    between atoms: N1_4  and  C4_5 
REMARK    4  A    between atoms: N1_4  and  C6_7 
REMARK    5  A    between atoms: C6_7  and  C7_8 
REMARK    6  A    between atoms: C7_8  and  C8_9 
REMARK    7  A    between atoms: C8_9  and  C9_10 
REMARK    8  A    between atoms: C9_10  and  N2_12 
REMARK    9  A    between atoms: N2_12  and  C11_13 
ROOT
HETATM    1  C9  UNL     1      23.720   0.423  53.041  1.00  0.00     0.077 C 
HETATM    2  C10 UNL     1      22.418  -0.194  53.444  1.00  0.00     0.032 C 
ENDROOT
BRANCH   1   3
HETATM    3  C8  UNL     1      23.775   1.144  51.756  1.00  0.00     0.026 C 
BRANCH   3   4
HETATM    4  C7  UNL     1      22.524   1.664  51.143  1.00  0.00     0.021 C 
BRANCH   4   5
HETATM    5  C6  UNL     1      22.664   2.746  50.120  1.00  0.00     0.117 C 
BRANCH   5   6
HETATM    6  N1  UNL     1      23.202   3.960  50.667  1.00  0.00    -0.413 N 
BRANCH   6   7
HETATM    7  C3  UNL     1      24.310   4.512  50.053  1.00  0.00     0.116 C 
BRANCH   7   8
HETATM    8  C2  UNL     1      25.315   3.602  49.419  1.00  0.00     0.015 C 
HETATM    9  C1  UNL     1      26.470   3.223  50.276  1.00  0.00     0.006 C 
ENDBRANCH   7   8
ENDBRANCH   6   7
BRANCH   6  10
HETATM   10  C4  UNL     1      22.504   4.557  51.702  1.00  0.00     0.112 C 
HETATM   11  C5  UNL     1      23.448   4.835  52.872  1.00  0.00     0.026 C 
ENDBRANCH   6  10
ENDBRANCH   5   6
ENDBRANCH   4   5
ENDBRANCH   3   4
ENDBRANCH   1   3
BRANCH   1  12
HETATM   12  N2  UNL     1      24.799  -0.568  53.135  1.00  0.00    -0.385 N 
HETATM   13  H23 UNL     1      24.645  -1.580  52.843  1.00  0.00     0.160 HD
BRANCH  12  14
HETATM   14  C11 UNL     1      26.155  -0.602  53.550  1.00  0.00     0.046 C 
HETATM   15  C12 UNL     1      26.911  -1.533  52.935  1.00  0.00     0.032 C 
HETATM   16  C13 UNL     1      28.306  -2.023  52.938  1.00  0.00     0.022 C 
HETATM   17  C14 UNL     1      29.439  -1.398  53.296  1.00  0.00     0.118 C 
HETATM   18  N3  UNL     1      29.778  -0.086  53.792  1.00  0.00    -0.254 NA
HETATM   19  C15 UNL     1      29.075   0.792  54.428  1.00  0.00     0.232 C 
HETATM   20  N4  UNL     1      27.734   0.888  54.910  1.00  0.00    -0.252 NA
HETATM   21  C16 UNL     1      26.595   0.359  54.586  1.00  0.00     0.147 C 
ENDBRANCH  12  14
ENDBRANCH   1  12
TORSDOF 9
ENDMDL
MODEL 6
REMARK VINA RESULT:      -5.7      2.232      3.548
REMARK  9 active torsions:
REMARK  status: ('A' for Active; 'I' for Inactive)
REMARK    1  A    between atoms: C2_2  and  C3_3 
REMARK    2  A    between atoms: C3_3  and  N1_4 
REMARK    3  A    between atoms: N1_4  and  C4_5 
REMARK    4  A    between atoms: N1_4  and  C6_7 
REMARK    5  A    between atoms: C6_7  and  C7_8 
REMARK    6  A    between atoms: C7_8  and  C8_9 
REMARK    7  A    between atoms: C8_9  and  C9_10 
REMARK    8  A    between atoms: C9_10  and  N2_12 
REMARK    9  A    between atoms: N2_12  and  C11_13 
ROOT
HETATM    1  C9  UNL     1      26.091   3.255  50.067  1.00  0.00     0.077 C 
HETATM    2  C10 UNL     1      26.810   4.272  49.237  1.00  0.00     0.032 C 
ENDROOT
BRANCH   1   3
HETATM    3  C8  UNL     1      24.644   3.437  50.284  1.00  0.00     0.026 C 
BRANCH   3   4
HETATM    4  C7  UNL     1      24.140   3.839  51.623  1.00  0.00     0.021 C 
BRANCH   4   5
HETATM    5  C6  UNL     1      23.553   5.210  51.748  1.00  0.00     0.117 C 
BRANCH   5   6
HETATM    6  N1  UNL     1      22.206   5.284  51.257  1.00  0.00    -0.413 N 
BRANCH   6   7
HETATM    7  C3  UNL     1      21.927   6.206  50.265  1.00  0.00     0.116 C 
BRANCH   7   8
HETATM    8  C2  UNL     1      23.053   6.740  49.436  1.00  0.00     0.015 C 
HETATM    9  C1  UNL     1      23.222   6.109  48.099  1.00  0.00     0.006 C 
ENDBRANCH   7   8
ENDBRANCH   6   7
BRANCH   6  10
HETATM   10  C4  UNL     1      21.303   4.348  51.728  1.00  0.00     0.112 C 
HETATM   11  C5  UNL     1      20.040   4.364  50.867  1.00  0.00     0.026 C 
ENDBRANCH   6  10
ENDBRANCH   5   6
ENDBRANCH   4   5
ENDBRANCH   3   4
ENDBRANCH   1   3
BRANCH   1  12
HETATM   12  N2  UNL     1      26.794   3.055  51.341  1.00  0.00    -0.385 N 
HETATM   13  H23 UNL     1      27.275   3.864  51.837  1.00  0.00     0.160 HD
BRANCH  12  14
HETATM   14  C11 UNL     1      27.067   1.984  52.228  1.00  0.00     0.046 C 
HETATM   15  C12 UNL     1      26.645   0.776  51.802  1.00  0.00     0.032 C 
HETATM   16  C13 UNL     1      26.640  -0.631  52.255  1.00  0.00     0.022 C 
HETATM   17  C14 UNL     1      27.455  -1.264  53.114  1.00  0.00     0.118 C 
HETATM   18  N3  UNL     1      28.599  -0.892  53.911  1.00  0.00    -0.254 NA
HETATM   19  C15 UNL     1      28.984   0.254  54.367  1.00  0.00     0.232 C 
HETATM   20  N4  UNL     1      28.508   1.599  54.312  1.00  0.00    -0.252 NA
HETATM   21  C16 UNL     1      27.767   2.284  53.496  1.00  0.00     0.147 C 
ENDBRANCH  12  14
ENDBRANCH   1  12
TORSDOF 9
ENDMDL
MODEL 7
REMARK VINA RESULT:      -5.6      1.899      6.768
REMARK  9 active torsions:
REMARK  status: ('A' for Active; 'I' for Inactive)
REMARK    1  A    between atoms: C2_2  and  C3_3 
REMARK    2  A    between atoms: C3_3  and  N1_4 
REMARK    3  A    between atoms: N1_4  and  C4_5 
REMARK    4  A    between atoms: N1_4  and  C6_7 
REMARK    5  A    between atoms: C6_7  and  C7_8 
REMARK    6  A    between atoms: C7_8  and  C8_9 
REMARK    7  A    between atoms: C8_9  and  C9_10 
REMARK    8  A    between atoms: C9_10  and  N2_12 
REMARK    9  A    between atoms: N2_12  and  C11_13 
ROOT
HETATM    1  C9  UNL     1      22.238  -1.257  53.471  1.00  0.00     0.077 C 
HETATM    2  C10 UNL     1      20.999  -1.501  54.273  1.00  0.00     0.032 C 
ENDROOT
BRANCH   1   3
HETATM    3  C8  UNL     1      23.436  -0.771  54.180  1.00  0.00     0.026 C 
BRANCH   3   4
HETATM    4  C7  UNL     1      24.695  -0.528  53.428  1.00  0.00     0.021 C 
BRANCH   4   5
HETATM    5  C6  UNL     1      25.289   0.842  53.516  1.00  0.00     0.117 C 
BRANCH   5   6
HETATM    6  N1  UNL     1      26.719   0.837  53.379  1.00  0.00    -0.413 N 
BRANCH   6   7
HETATM    7  C3  UNL     1      27.460   0.176  54.340  1.00  0.00     0.116 C 
BRANCH   7   8
HETATM    8  C2  UNL     1      28.954   0.246  54.277  1.00  0.00     0.015 C 
HETATM    9  C1  UNL     1      29.630  -0.959  53.723  1.00  0.00     0.006 C 
ENDBRANCH   7   8
ENDBRANCH   6   7
BRANCH   6  10
HETATM   10  C4  UNL     1      27.252   1.397  52.231  1.00  0.00     0.112 C 
HETATM   11  C5  UNL     1      26.236   2.347  51.596  1.00  0.00     0.026 C 
ENDBRANCH   6  10
ENDBRANCH   5   6
ENDBRANCH   4   5
ENDBRANCH   3   4
ENDBRANCH   1   3
BRANCH   1  12
HETATM   12  N2  UNL     1      21.931  -0.409  52.313  1.00  0.00    -0.385 N 
HETATM   13  H23 UNL     1      21.772  -0.829  51.348  1.00  0.00     0.160 HD
BRANCH  12  14
HETATM   14  C11 UNL     1      21.761   0.973  52.044  1.00  0.00     0.046 C 
HETATM   15  C12 UNL     1      22.509   1.447  51.029  1.00  0.00     0.032 C 
HETATM   16  C13 UNL     1      22.755   2.722  50.321  1.00  0.00     0.022 C 
HETATM   17  C14 UNL     1      21.971   3.804  50.195  1.00  0.00     0.118 C 
HETATM   18  N3  UNL     1      20.655   4.180  50.652  1.00  0.00    -0.254 NA
HETATM   19  C15 UNL     1      19.950   3.768  51.653  1.00  0.00     0.232 C 
HETATM   20  N4  UNL     1      20.113   2.820  52.709  1.00  0.00    -0.252 NA
HETATM   21  C16 UNL     1      20.807   1.737  52.879  1.00  0.00     0.147 C 
ENDBRANCH  12  14
ENDBRANCH   1  12
TORSDOF 9
ENDMDL
MODEL 8
REMARK VINA RESULT:      -5.5      1.957      4.481
REMARK  9 active torsions:
REMARK  status: ('A' for Active; 'I' for Inactive)
REMARK    1  A    between atoms: C2_2  and  C3_3 
REMARK    2  A    between atoms: C3_3  and  N1_4 
REMARK    3  A    between atoms: N1_4  and  C4_5 
REMARK    4  A    between atoms: N1_4  and  C6_7 
REMARK    5  A    between atoms: C6_7  and  C7_8 
REMARK    6  A    between atoms: C7_8  and  C8_9 
REMARK    7  A    between atoms: C8_9  and  C9_10 
REMARK    8  A    between atoms: C9_10  and  N2_12 
REMARK    9  A    between atoms: N2_12  and  C11_13 
ROOT
HETATM    1  C9  UNL     1      23.212   2.103  51.569  1.00  0.00     0.077 C 
HETATM    2  C10 UNL     1      22.296   1.037  51.057  1.00  0.00     0.032 C 
ENDROOT
BRANCH   1   3
HETATM    3  C8  UNL     1      24.185   2.688  50.628  1.00  0.00     0.026 C 
BRANCH   3   4
HETATM    4  C7  UNL     1      23.715   3.278  49.347  1.00  0.00     0.021 C 
BRANCH   4   5
HETATM    5  C6  UNL     1      23.163   4.668  49.397  1.00  0.00     0.117 C 
BRANCH   5   6
HETATM    6  N1  UNL     1      24.178   5.660  49.616  1.00  0.00    -0.413 N 
BRANCH   6   7
HETATM    7  C3  UNL     1      25.108   5.867  48.615  1.00  0.00     0.116 C 
BRANCH   7   8
HETATM    8  C2  UNL     1      26.565   5.812  48.957  1.00  0.00     0.015 C 
HETATM    9  C1  UNL     1      27.171   4.453  48.964  1.00  0.00     0.006 C 
ENDBRANCH   7   8
ENDBRANCH   6   7
BRANCH   6  10
HETATM   10  C4  UNL     1      24.088   6.422  50.767  1.00  0.00     0.112 C 
HETATM   11  C5  UNL     1      22.711   7.083  50.847  1.00  0.00     0.026 C 
ENDBRANCH   6  10
ENDBRANCH   5   6
ENDBRANCH   4   5
ENDBRANCH   3   4
ENDBRANCH   1   3
BRANCH   1  12
HETATM   12  N2  UNL     1      23.874   1.652  52.799  1.00  0.00    -0.385 N 
HETATM   13  H23 UNL     1      23.351   1.614  53.724  1.00  0.00     0.160 HD
BRANCH  12  14
HETATM   14  C11 UNL     1      25.159   1.195  53.187  1.00  0.00     0.046 C 
HETATM   15  C12 UNL     1      25.437  -0.076  52.837  1.00  0.00     0.032 C 
HETATM   16  C13 UNL     1      26.541  -1.053  52.954  1.00  0.00     0.022 C 
HETATM   17  C14 UNL     1      27.858  -0.852  53.112  1.00  0.00     0.118 C 
HETATM   18  N3  UNL     1      28.716   0.302  53.229  1.00  0.00    -0.254 NA
HETATM   19  C15 UNL     1      28.471   1.511  53.612  1.00  0.00     0.232 C 
HETATM   20  N4  UNL     1      27.328   2.237  54.069  1.00  0.00    -0.252 NA
HETATM   21  C16 UNL     1      26.044   2.130  53.917  1.00  0.00     0.147 C 
ENDBRANCH  12  14
ENDBRANCH   1  12
TORSDOF 9
ENDMDL
MODEL 9
REMARK VINA RESULT:      -5.3      2.070      3.687
REMARK  9 active torsions:
REMARK  status: ('A' for Active; 'I' for Inactive)
REMARK    1  A    between atoms: C2_2  and  C3_3 
REMARK    2  A    between atoms: C3_3  and  N1_4 
REMARK    3  A    between atoms: N1_4  and  C4_5 
REMARK    4  A    between atoms: N1_4  and  C6_7 
REMARK    5  A    between atoms: C6_7  and  C7_8 
REMARK    6  A    between atoms: C7_8  and  C8_9 
REMARK    7  A    between atoms: C8_9  and  C9_10 
REMARK    8  A    between atoms: C9_10  and  N2_12 
REMARK    9  A    between atoms: N2_12  and  C11_13 
ROOT
HETATM    1  C9  UNL     1      23.821   0.944  52.426  1.00  0.00     0.077 C 
HETATM    2  C10 UNL     1      23.931   2.327  52.986  1.00  0.00     0.032 C 
ENDROOT
BRANCH   1   3
HETATM    3  C8  UNL     1      22.482   0.455  52.050  1.00  0.00     0.026 C 
BRANCH   3   4
HETATM    4  C7  UNL     1      21.586   1.306  51.223  1.00  0.00     0.021 C 
BRANCH   4   5
HETATM    5  C6  UNL     1      21.369   0.889  49.802  1.00  0.00     0.117 C 
BRANCH   5   6
HETATM    6  N1  UNL     1      21.209   2.006  48.915  1.00  0.00    -0.413 N 
BRANCH   6   7
HETATM    7  C3  UNL     1      22.291   2.379  48.140  1.00  0.00     0.116 C 
BRANCH   7   8
HETATM    8  C2  UNL     1      23.114   3.556  48.563  1.00  0.00     0.015 C 
HETATM    9  C1  UNL     1      24.275   3.245  49.441  1.00  0.00     0.006 C 
ENDBRANCH   7   8
ENDBRANCH   6   7
BRANCH   6  10
HETATM   10  C4  UNL     1      19.946   2.563  48.811  1.00  0.00     0.112 C 
HETATM   11  C5  UNL     1      19.693   3.012  47.372  1.00  0.00     0.026 C 
ENDBRANCH   6  10
ENDBRANCH   5   6
ENDBRANCH   4   5
ENDBRANCH   3   4
ENDBRANCH   1   3
BRANCH   1  12
HETATM   12  N2  UNL     1      24.504  -0.012  53.305  1.00  0.00    -0.385 N 
HETATM   13  H23 UNL     1      23.955  -0.694  53.910  1.00  0.00     0.160 HD
BRANCH  12  14
HETATM   14  C11 UNL     1      25.838  -0.353  53.646  1.00  0.00     0.046 C 
HETATM   15  C12 UNL     1      26.385  -1.323  52.887  1.00  0.00     0.032 C 
HETATM   16  C13 UNL     1      27.659  -2.062  52.763  1.00  0.00     0.022 C 
HETATM   17  C14 UNL     1      28.900  -1.712  53.137  1.00  0.00     0.118 C 
HETATM   18  N3  UNL     1      29.497  -0.561  53.770  1.00  0.00    -0.254 NA
HETATM   19  C15 UNL     1      28.993   0.346  54.540  1.00  0.00     0.232 C 
HETATM   20  N4  UNL     1      27.708   0.630  55.096  1.00  0.00    -0.252 NA
HETATM   21  C16 UNL     1      26.481   0.369  54.766  1.00  0.00     0.147 C 
ENDBRANCH  12  14
ENDBRANCH   1  12
TORSDOF 9
ENDMDL
