MODEL 1
REMARK VINA RESULT:      -7.7      0.000      0.000
REMARK  7 active torsions:
REMARK  status: ('A' for Active; 'I' for Inactive)
REMARK    1  A    between atoms: C3_3  and  N1_4 
REMARK    2  A    between atoms: N1_4  and  N2_5 
REMARK    3  A    between atoms: N2_5  and  C4_6 
REMARK    4  A    between atoms: C4_6  and  C5_7 
REMARK    5  A    between atoms: C8_10  and  C9_11 
REMARK    6  A    between atoms: C12_14  and  C13_15 
REMARK    7  A    between atoms: C16_19  and  O2_20 
ROOT
HETATM    1  C5  UNL     1      25.738   4.569  50.242  1.00  0.00     0.080 A 
HETATM    2  C6  UNL     1      26.654   3.663  49.503  1.00  0.00     0.097 A 
HETATM    3  C7  UNL     1      26.373   2.388  50.241  1.00  0.00     0.012 A 
HETATM    4  C8  UNL     1      25.483   2.564  51.192  1.00  0.00     0.056 A 
HETATM    5  N4  UNL     1      25.021   3.905  51.274  1.00  0.00    -0.350 N 
HETATM    6  H20 UNL     1      24.345   4.385  51.882  1.00  0.00     0.166 HD
ENDROOT
BRANCH   4   7
HETATM    7  C9  UNL     1      25.028   1.488  52.064  1.00  0.00     0.060 C 
HETATM    8  C10 UNL     1      23.736   1.426  52.332  1.00  0.00     0.033 C 
HETATM    9  C11 UNL     1      22.977   0.487  53.155  1.00  0.00     0.017 C 
HETATM   10  C12 UNL     1      23.416  -0.436  53.995  1.00  0.00     0.013 C 
HETATM   11  C15 UNL     1      24.820  -0.710  54.278  1.00  0.00     0.071 C 
HETATM   12  C16 UNL     1      25.940  -0.297  53.693  1.00  0.00     0.143 C 
HETATM   13  N3  UNL     1      25.991   0.573  52.571  1.00  0.00    -0.335 N 
HETATM   14  H19 UNL     1      26.881   0.539  52.026  1.00  0.00     0.168 HD
BRANCH  10  15
HETATM   15  C13 UNL     1      22.396  -1.221  54.673  1.00  0.00     0.155 C 
HETATM   16  C14 UNL     1      21.034  -1.253  54.096  1.00  0.00     0.096 C 
HETATM   17  O1  UNL     1      22.754  -1.824  55.717  1.00  0.00    -0.293 OA
ENDBRANCH  10  15
BRANCH  12  18
HETATM   18  O2  UNL     1      27.150  -0.732  54.192  1.00  0.00    -0.341 OA
HETATM   19  C17 UNL     1      28.283  -0.750  53.327  1.00  0.00     0.211 C 
ENDBRANCH  12  18
ENDBRANCH   4   7
BRANCH   1  20
HETATM   20  C4  UNL     1      25.622   5.855  49.944  1.00  0.00     0.031 C 
BRANCH  20  21
HETATM   21  N2  UNL     1      25.807   7.121  49.765  1.00  0.00    -0.128 NA
BRANCH  21  22
HETATM   22  N1  UNL     1      27.135   7.558  49.631  1.00  0.00    -0.282 N 
HETATM   23  H6  UNL     1      27.253   6.933  50.458  1.00  0.00     0.189 HD
BRANCH  22  24
HETATM   24  C3  UNL     1      28.109   8.341  48.949  1.00  0.00     0.105 C 
HETATM   25  C2  UNL     1      28.951   7.743  48.124  1.00  0.00    -0.012 C 
HETATM   26  C1  UNL     1      28.756   6.276  48.017  1.00  0.00     0.037 C 
ENDBRANCH  22  24
ENDBRANCH  21  22
ENDBRANCH  20  21
ENDBRANCH   1  20
TORSDOF 7
ENDMDL
MODEL 2
REMARK VINA RESULT:      -7.6      3.344      8.225
REMARK  7 active torsions:
REMARK  status: ('A' for Active; 'I' for Inactive)
REMARK    1  A    between atoms: C3_3  and  N1_4 
REMARK    2  A    between atoms: N1_4  and  N2_5 
REMARK    3  A    between atoms: N2_5  and  C4_6 
REMARK    4  A    between atoms: C4_6  and  C5_7 
REMARK    5  A    between atoms: C8_10  and  C9_11 
REMARK    6  A    between atoms: C12_14  and  C13_15 
REMARK    7  A    between atoms: C16_19  and  O2_20 
ROOT
HETATM    1  C5  UNL     1      25.504   0.524  52.362  1.00  0.00     0.080 A 
HETATM    2  C6  UNL     1      24.052   0.833  52.385  1.00  0.00     0.097 A 
HETATM    3  C7  UNL     1      24.076   2.139  51.649  1.00  0.00     0.012 A 
HETATM    4  C8  UNL     1      25.297   2.475  51.296  1.00  0.00     0.056 A 
HETATM    5  N4  UNL     1      26.270   1.521  51.700  1.00  0.00    -0.350 N 
HETATM    6  H20 UNL     1      27.291   1.463  51.594  1.00  0.00     0.166 HD
ENDROOT
BRANCH   4   7
HETATM    7  C9  UNL     1      25.606   3.699  50.568  1.00  0.00     0.060 C 
HETATM    8  C10 UNL     1      26.636   3.673  49.740  1.00  0.00     0.033 C 
HETATM    9  C11 UNL     1      27.193   4.714  48.880  1.00  0.00     0.017 C 
HETATM   10  C12 UNL     1      26.925   6.009  48.848  1.00  0.00     0.013 C 
HETATM   11  C15 UNL     1      25.966   6.685  49.714  1.00  0.00     0.071 C 
HETATM   12  C16 UNL     1      25.044   6.220  50.552  1.00  0.00     0.143 C 
HETATM   13  N3  UNL     1      24.790   4.843  50.788  1.00  0.00    -0.335 N 
HETATM   14  H19 UNL     1      23.850   4.630  51.189  1.00  0.00     0.168 HD
BRANCH  10  15
HETATM   15  C13 UNL     1      27.658   6.791  47.864  1.00  0.00     0.155 C 
HETATM   16  C14 UNL     1      29.098   6.512  47.675  1.00  0.00     0.096 C 
HETATM   17  O1  UNL     1      27.001   7.660  47.237  1.00  0.00    -0.293 OA
ENDBRANCH  10  15
BRANCH  12  18
HETATM   18  O2  UNL     1      24.268   7.120  51.251  1.00  0.00    -0.341 OA
HETATM   19  C17 UNL     1      23.249   7.833  50.555  1.00  0.00     0.211 C 
ENDBRANCH  12  18
ENDBRANCH   4   7
BRANCH   1  20
HETATM   20  C4  UNL     1      26.002  -0.577  52.908  1.00  0.00     0.031 C 
BRANCH  20  21
HETATM   21  N2  UNL     1      26.703  -1.619  53.208  1.00  0.00    -0.128 NA
BRANCH  21  22
HETATM   22  N1  UNL     1      28.018  -1.397  53.650  1.00  0.00    -0.282 N 
HETATM   23  H6  UNL     1      27.510  -1.186  54.537  1.00  0.00     0.189 HD
BRANCH  22  24
HETATM   24  C3  UNL     1      29.416  -1.366  53.385  1.00  0.00     0.105 C 
HETATM   25  C2  UNL     1      30.080  -0.239  53.572  1.00  0.00    -0.012 C 
HETATM   26  C1  UNL     1      29.241   0.886  54.055  1.00  0.00     0.037 C 
ENDBRANCH  22  24
ENDBRANCH  21  22
ENDBRANCH  20  21
ENDBRANCH   1  20
TORSDOF 7
ENDMDL
MODEL 3
REMARK VINA RESULT:      -7.2      2.032      2.569
REMARK  7 active torsions:
REMARK  status: ('A' for Active; 'I' for Inactive)
REMARK    1  A    between atoms: C3_3  and  N1_4 
REMARK    2  A    between atoms: N1_4  and  N2_5 
REMARK    3  A    between atoms: N2_5  and  C4_6 
REMARK    4  A    between atoms: C4_6  and  C5_7 
REMARK    5  A    between atoms: C8_10  and  C9_11 
REMARK    6  A    between atoms: C12_14  and  C13_15 
REMARK    7  A    between atoms: C16_19  and  O2_20 
ROOT
HETATM    1  C5  UNL     1      26.933   5.639  48.828  1.00  0.00     0.080 A 
HETATM    2  C6  UNL     1      25.491   5.921  48.616  1.00  0.00     0.097 A 
HETATM    3  C7  UNL     1      24.909   4.880  49.525  1.00  0.00     0.012 A 
HETATM    4  C8  UNL     1      25.848   4.172  50.114  1.00  0.00     0.056 A 
HETATM    5  N4  UNL     1      27.158   4.574  49.740  1.00  0.00    -0.350 N 
HETATM    6  H20 UNL     1      28.100   4.250  49.999  1.00  0.00     0.166 HD
ENDROOT
BRANCH   4   7
HETATM    7  C9  UNL     1      25.560   3.092  51.050  1.00  0.00     0.060 C 
HETATM    8  C10 UNL     1      24.385   2.496  50.950  1.00  0.00     0.033 C 
HETATM    9  C11 UNL     1      23.804   1.400  51.722  1.00  0.00     0.017 C 
HETATM   10  C12 UNL     1      24.231   0.846  52.844  1.00  0.00     0.013 C 
HETATM   11  C15 UNL     1      25.433   1.242  53.567  1.00  0.00     0.071 C 
HETATM   12  C16 UNL     1      26.440   2.048  53.242  1.00  0.00     0.143 C 
HETATM   13  N3  UNL     1      26.551   2.743  52.008  1.00  0.00    -0.335 N 
HETATM   14  H19 UNL     1      27.517   3.052  51.760  1.00  0.00     0.168 HD
BRANCH  10  15
HETATM   15  C13 UNL     1      23.419  -0.240  53.372  1.00  0.00     0.155 C 
HETATM   16  C14 UNL     1      22.108  -0.509  52.740  1.00  0.00     0.096 C 
HETATM   17  O1  UNL     1      23.900  -0.879  54.342  1.00  0.00    -0.293 OA
ENDBRANCH  10  15
BRANCH  12  18
HETATM   18  O2  UNL     1      27.461   2.235  54.150  1.00  0.00    -0.341 OA
HETATM   19  C17 UNL     1      28.780   2.468  53.661  1.00  0.00     0.211 C 
ENDBRANCH  12  18
ENDBRANCH   4   7
BRANCH   1  20
HETATM   20  C4  UNL     1      27.886   6.331  48.217  1.00  0.00     0.031 C 
BRANCH  20  21
HETATM   21  N2  UNL     1      28.766   7.207  47.864  1.00  0.00    -0.128 NA
BRANCH  21  22
HETATM   22  N1  UNL     1      29.694   7.608  48.841  1.00  0.00    -0.282 N 
HETATM   23  H6  UNL     1      29.141   6.931  49.410  1.00  0.00     0.189 HD
BRANCH  22  24
HETATM   24  C3  UNL     1      30.814   8.399  49.220  1.00  0.00     0.105 C 
HETATM   25  C2  UNL     1      31.925   7.794  49.607  1.00  0.00    -0.012 C 
HETATM   26  C1  UNL     1      31.846   6.312  49.589  1.00  0.00     0.037 C 
ENDBRANCH  22  24
ENDBRANCH  21  22
ENDBRANCH  20  21
ENDBRANCH   1  20
TORSDOF 7
ENDMDL
MODEL 4
REMARK VINA RESULT:      -7.2      3.474      5.415
REMARK  7 active torsions:
REMARK  status: ('A' for Active; 'I' for Inactive)
REMARK    1  A    between atoms: C3_3  and  N1_4 
REMARK    2  A    between atoms: N1_4  and  N2_5 
REMARK    3  A    between atoms: N2_5  and  C4_6 
REMARK    4  A    between atoms: C4_6  and  C5_7 
REMARK    5  A    between atoms: C8_10  and  C9_11 
REMARK    6  A    between atoms: C12_14  and  C13_15 
REMARK    7  A    between atoms: C16_19  and  O2_20 
ROOT
HETATM    1  C5  UNL     1      25.426   2.227  51.561  1.00  0.00     0.080 A 
HETATM    2  C6  UNL     1      24.734   2.842  50.400  1.00  0.00     0.097 A 
HETATM    3  C7  UNL     1      23.380   2.221  50.575  1.00  0.00     0.012 A 
HETATM    4  C8  UNL     1      23.342   1.426  51.622  1.00  0.00     0.056 A 
HETATM    5  N4  UNL     1      24.584   1.362  52.311  1.00  0.00    -0.350 N 
HETATM    6  H20 UNL     1      24.905   0.855  53.146  1.00  0.00     0.166 HD
ENDROOT
BRANCH   4   7
HETATM    7  C9  UNL     1      22.148   0.694  52.022  1.00  0.00     0.060 C 
HETATM    8  C10 UNL     1      21.045   0.899  51.323  1.00  0.00     0.033 C 
HETATM    9  C11 UNL     1      19.707   0.329  51.466  1.00  0.00     0.017 C 
HETATM   10  C12 UNL     1      19.206  -0.399  52.450  1.00  0.00     0.013 C 
HETATM   11  C15 UNL     1      19.933  -0.799  53.648  1.00  0.00     0.071 C 
HETATM   12  C16 UNL     1      21.221  -0.725  53.972  1.00  0.00     0.143 C 
HETATM   13  N3  UNL     1      22.235  -0.193  53.130  1.00  0.00    -0.335 N 
HETATM   14  H19 UNL     1      23.206  -0.501  53.360  1.00  0.00     0.168 HD
BRANCH  10  15
HETATM   15  C13 UNL     1      17.821  -0.819  52.294  1.00  0.00     0.155 C 
HETATM   16  C14 UNL     1      16.960  -0.071  51.353  1.00  0.00     0.096 C 
HETATM   17  O1  UNL     1      17.454  -1.806  52.983  1.00  0.00    -0.293 OA
ENDBRANCH  10  15
BRANCH  12  18
HETATM   18  O2  UNL     1      21.625  -1.192  55.204  1.00  0.00    -0.341 OA
HETATM   19  C17 UNL     1      23.017  -1.379  55.445  1.00  0.00     0.211 C 
ENDBRANCH  12  18
ENDBRANCH   4   7
BRANCH   1  20
HETATM   20  C4  UNL     1      26.696   2.482  51.844  1.00  0.00     0.031 C 
BRANCH  20  21
HETATM   21  N2  UNL     1      27.921   2.440  52.250  1.00  0.00    -0.128 NA
BRANCH  21  22
HETATM   22  N1  UNL     1      28.284   1.359  53.071  1.00  0.00    -0.282 N 
HETATM   23  H6  UNL     1      28.875   1.138  52.241  1.00  0.00     0.189 HD
BRANCH  22  24
HETATM   24  C3  UNL     1      28.160   0.655  54.301  1.00  0.00     0.105 C 
HETATM   25  C2  UNL     1      28.963  -0.368  54.539  1.00  0.00    -0.012 C 
HETATM   26  C1  UNL     1      29.925  -0.651  53.444  1.00  0.00     0.037 C 
ENDBRANCH  22  24
ENDBRANCH  21  22
ENDBRANCH  20  21
ENDBRANCH   1  20
TORSDOF 7
ENDMDL
MODEL 5
REMARK VINA RESULT:      -7.0      1.590      2.545
REMARK  7 active torsions:
REMARK  status: ('A' for Active; 'I' for Inactive)
REMARK    1  A    between atoms: C3_3  and  N1_4 
REMARK    2  A    between atoms: N1_4  and  N2_5 
REMARK    3  A    between atoms: N2_5  and  C4_6 
REMARK    4  A    between atoms: C4_6  and  C5_7 
REMARK    5  A    between atoms: C8_10  and  C9_11 
REMARK    6  A    between atoms: C12_14  and  C13_15 
REMARK    7  A    between atoms: C16_19  and  O2_20 
ROOT
HETATM    1  C5  UNL     1      25.642   4.660  50.235  1.00  0.00     0.080 A 
HETATM    2  C6  UNL     1      26.714   3.830  49.629  1.00  0.00     0.097 A 
HETATM    3  C7  UNL     1      26.475   2.551  50.376  1.00  0.00     0.012 A 
HETATM    4  C8  UNL     1      25.473   2.663  51.220  1.00  0.00     0.056 A 
HETATM    5  N4  UNL     1      24.882   3.955  51.206  1.00  0.00    -0.350 N 
HETATM    6  H20 UNL     1      24.100   4.381  51.722  1.00  0.00     0.166 HD
ENDROOT
BRANCH   4   7
HETATM    7  C9  UNL     1      25.027   1.569  52.073  1.00  0.00     0.060 C 
HETATM    8  C10 UNL     1      23.746   1.529  52.395  1.00  0.00     0.033 C 
HETATM    9  C11 UNL     1      22.999   0.580  53.218  1.00  0.00     0.017 C 
HETATM   10  C12 UNL     1      23.449  -0.381  54.007  1.00  0.00     0.013 C 
HETATM   11  C15 UNL     1      24.856  -0.698  54.220  1.00  0.00     0.071 C 
HETATM   12  C16 UNL     1      25.961  -0.293  53.601  1.00  0.00     0.143 C 
HETATM   13  N3  UNL     1      25.987   0.614  52.508  1.00  0.00    -0.335 N 
HETATM   14  H19 UNL     1      26.853   0.577  51.924  1.00  0.00     0.168 HD
BRANCH  10  15
HETATM   15  C13 UNL     1      22.438  -1.164  54.701  1.00  0.00     0.155 C 
HETATM   16  C14 UNL     1      21.058  -1.162  54.168  1.00  0.00     0.096 C 
HETATM   17  O1  UNL     1      22.820  -1.795  55.720  1.00  0.00    -0.293 OA
ENDBRANCH  10  15
BRANCH  12  18
HETATM   18  O2  UNL     1      27.179  -0.774  54.033  1.00  0.00    -0.341 OA
HETATM   19  C17 UNL     1      28.098   0.130  54.641  1.00  0.00     0.211 C 
ENDBRANCH  12  18
ENDBRANCH   4   7
BRANCH   1  20
HETATM   20  C4  UNL     1      25.440   5.922  49.882  1.00  0.00     0.031 C 
BRANCH  20  21
HETATM   21  N2  UNL     1      25.226   7.025  49.246  1.00  0.00    -0.128 NA
BRANCH  21  22
HETATM   22  N1  UNL     1      23.895   7.320  48.910  1.00  0.00    -0.282 N 
HETATM   23  H6  UNL     1      23.897   6.301  48.686  1.00  0.00     0.189 HD
BRANCH  22  24
HETATM   24  C3  UNL     1      22.835   8.263  48.797  1.00  0.00     0.105 C 
HETATM   25  C2  UNL     1      21.862   8.245  49.692  1.00  0.00    -0.012 C 
HETATM   26  C1  UNL     1      22.017   7.201  50.736  1.00  0.00     0.037 C 
ENDBRANCH  22  24
ENDBRANCH  21  22
ENDBRANCH  20  21
ENDBRANCH   1  20
TORSDOF 7
ENDMDL
MODEL 6
REMARK VINA RESULT:      -6.9      4.023      8.635
REMARK  7 active torsions:
REMARK  status: ('A' for Active; 'I' for Inactive)
REMARK    1  A    between atoms: C3_3  and  N1_4 
REMARK    2  A    between atoms: N1_4  and  N2_5 
REMARK    3  A    between atoms: N2_5  and  C4_6 
REMARK    4  A    between atoms: C4_6  and  C5_7 
REMARK    5  A    between atoms: C8_10  and  C9_11 
REMARK    6  A    between atoms: C12_14  and  C13_15 
REMARK    7  A    between atoms: C16_19  and  O2_20 
ROOT
HETATM    1  C5  UNL     1      25.377   2.707  51.346  1.00  0.00     0.080 A 
HETATM    2  C6  UNL     1      24.207   2.835  50.440  1.00  0.00     0.097 A 
HETATM    3  C7  UNL     1      24.733   3.898  49.522  1.00  0.00     0.012 A 
HETATM    4  C8  UNL     1      25.947   4.274  49.861  1.00  0.00     0.056 A 
HETATM    5  N4  UNL     1      26.441   3.581  50.998  1.00  0.00    -0.350 N 
HETATM    6  H20 UNL     1      27.326   3.620  51.522  1.00  0.00     0.166 HD
ENDROOT
BRANCH   4   7
HETATM    7  C9  UNL     1      26.694   5.294  49.137  1.00  0.00     0.060 C 
HETATM    8  C10 UNL     1      26.001   6.243  48.532  1.00  0.00     0.033 C 
HETATM    9  C11 UNL     1      26.443   7.389  47.740  1.00  0.00     0.017 C 
HETATM   10  C12 UNL     1      27.647   7.666  47.266  1.00  0.00     0.013 C 
HETATM   11  C15 UNL     1      28.831   6.837  47.454  1.00  0.00     0.071 C 
HETATM   12  C16 UNL     1      29.064   5.785  48.234  1.00  0.00     0.143 C 
HETATM   13  N3  UNL     1      28.113   5.212  49.121  1.00  0.00    -0.335 N 
HETATM   14  H19 UNL     1      28.520   4.635  49.891  1.00  0.00     0.168 HD
BRANCH  10  15
HETATM   15  C13 UNL     1      27.765   8.900  46.504  1.00  0.00     0.155 C 
HETATM   16  C14 UNL     1      26.962   9.045  45.271  1.00  0.00     0.096 C 
HETATM   17  O1  UNL     1      28.556   9.766  46.960  1.00  0.00    -0.293 OA
ENDBRANCH  10  15
BRANCH  12  18
HETATM   18  O2  UNL     1      30.309   5.194  48.198  1.00  0.00    -0.341 OA
HETATM   19  C17 UNL     1      31.388   5.821  48.885  1.00  0.00     0.211 C 
ENDBRANCH  12  18
ENDBRANCH   4   7
BRANCH   1  20
HETATM   20  C4  UNL     1      25.395   1.853  52.360  1.00  0.00     0.031 C 
BRANCH  20  21
HETATM   21  N2  UNL     1      25.353   1.284  53.519  1.00  0.00    -0.128 NA
BRANCH  21  22
HETATM   22  N1  UNL     1      26.555   1.220  54.243  1.00  0.00    -0.282 N 
HETATM   23  H6  UNL     1      26.206   2.141  54.588  1.00  0.00     0.189 HD
BRANCH  22  24
HETATM   24  C3  UNL     1      27.753   0.529  54.577  1.00  0.00     0.105 C 
HETATM   25  C2  UNL     1      28.917   1.100  54.317  1.00  0.00    -0.012 C 
HETATM   26  C1  UNL     1      28.809   2.440  53.687  1.00  0.00     0.037 C 
ENDBRANCH  22  24
ENDBRANCH  21  22
ENDBRANCH  20  21
ENDBRANCH   1  20
TORSDOF 7
ENDMDL
MODEL 7
REMARK VINA RESULT:      -6.9      2.061      3.217
REMARK  7 active torsions:
REMARK  status: ('A' for Active; 'I' for Inactive)
REMARK    1  A    between atoms: C3_3  and  N1_4 
REMARK    2  A    between atoms: N1_4  and  N2_5 
REMARK    3  A    between atoms: N2_5  and  C4_6 
REMARK    4  A    between atoms: C4_6  and  C5_7 
REMARK    5  A    between atoms: C8_10  and  C9_11 
REMARK    6  A    between atoms: C12_14  and  C13_15 
REMARK    7  A    between atoms: C16_19  and  O2_20 
ROOT
HETATM    1  C5  UNL     1      25.495   4.877  50.194  1.00  0.00     0.080 A 
HETATM    2  C6  UNL     1      26.211   3.691  49.661  1.00  0.00     0.097 A 
HETATM    3  C7  UNL     1      25.501   2.619  50.433  1.00  0.00     0.012 A 
HETATM    4  C8  UNL     1      24.582   3.121  51.228  1.00  0.00     0.056 A 
HETATM    5  N4  UNL     1      24.501   4.537  51.150  1.00  0.00    -0.350 N 
HETATM    6  H20 UNL     1      23.912   5.240  51.618  1.00  0.00     0.166 HD
ENDROOT
BRANCH   4   7
HETATM    7  C9  UNL     1      23.744   2.300  52.093  1.00  0.00     0.060 C 
HETATM    8  C10 UNL     1      24.254   1.165  52.537  1.00  0.00     0.033 C 
HETATM    9  C11 UNL     1      23.682   0.138  53.405  1.00  0.00     0.017 C 
HETATM   10  C12 UNL     1      22.434  -0.009  53.819  1.00  0.00     0.013 C 
HETATM   11  C15 UNL     1      21.328   0.874  53.472  1.00  0.00     0.071 C 
HETATM   12  C16 UNL     1      21.293   2.060  52.871  1.00  0.00     0.143 C 
HETATM   13  N3  UNL     1      22.437   2.763  52.407  1.00  0.00    -0.335 N 
HETATM   14  H19 UNL     1      22.300   3.790  52.274  1.00  0.00     0.168 HD
BRANCH  10  15
HETATM   15  C13 UNL     1      22.179  -1.149  54.687  1.00  0.00     0.155 C 
HETATM   16  C14 UNL     1      23.237  -1.562  55.636  1.00  0.00     0.096 C 
HETATM   17  O1  UNL     1      21.059  -1.707  54.564  1.00  0.00    -0.293 OA
ENDBRANCH  10  15
BRANCH  12  18
HETATM   18  O2  UNL     1      20.072   2.669  52.674  1.00  0.00    -0.341 OA
HETATM   19  C17 UNL     1      19.820   3.315  51.428  1.00  0.00     0.211 C 
ENDBRANCH  12  18
ENDBRANCH   4   7
BRANCH   1  20
HETATM   20  C4  UNL     1      25.775   6.111  49.796  1.00  0.00     0.031 C 
BRANCH  20  21
HETATM   21  N2  UNL     1      26.245   7.306  49.659  1.00  0.00    -0.128 NA
BRANCH  21  22
HETATM   22  N1  UNL     1      27.608   7.423  49.340  1.00  0.00    -0.282 N 
HETATM   23  H6  UNL     1      27.687   6.779  50.157  1.00  0.00     0.189 HD
BRANCH  22  24
HETATM   24  C3  UNL     1      28.636   7.965  48.519  1.00  0.00     0.105 C 
HETATM   25  C2  UNL     1      29.488   7.143  47.931  1.00  0.00    -0.012 C 
HETATM   26  C1  UNL     1      29.243   5.708  48.219  1.00  0.00     0.037 C 
ENDBRANCH  22  24
ENDBRANCH  21  22
ENDBRANCH  20  21
ENDBRANCH   1  20
TORSDOF 7
ENDMDL
MODEL 8
REMARK VINA RESULT:      -6.8      3.844      7.415
REMARK  7 active torsions:
REMARK  status: ('A' for Active; 'I' for Inactive)
REMARK    1  A    between atoms: C3_3  and  N1_4 
REMARK    2  A    between atoms: N1_4  and  N2_5 
REMARK    3  A    between atoms: N2_5  and  C4_6 
REMARK    4  A    between atoms: C4_6  and  C5_7 
REMARK    5  A    between atoms: C8_10  and  C9_11 
REMARK    6  A    between atoms: C12_14  and  C13_15 
REMARK    7  A    between atoms: C16_19  and  O2_20 
ROOT
HETATM    1  C5  UNL     1      24.592   0.217  53.506  1.00  0.00     0.080 A 
HETATM    2  C6  UNL     1      23.251  -0.384  53.299  1.00  0.00     0.097 A 
HETATM    3  C7  UNL     1      22.720   0.569  52.269  1.00  0.00     0.012 A 
HETATM    4  C8  UNL     1      23.597   1.502  51.975  1.00  0.00     0.056 A 
HETATM    5  N4  UNL     1      24.810   1.368  52.702  1.00  0.00    -0.350 N 
HETATM    6  H20 UNL     1      25.687   1.906  52.722  1.00  0.00     0.166 HD
ENDROOT
BRANCH   4   7
HETATM    7  C9  UNL     1      23.339   2.558  51.004  1.00  0.00     0.060 C 
HETATM    8  C10 UNL     1      22.954   2.192  49.793  1.00  0.00     0.033 C 
HETATM    9  C11 UNL     1      22.623   2.992  48.617  1.00  0.00     0.017 C 
HETATM   10  C12 UNL     1      22.802   4.285  48.404  1.00  0.00     0.013 C 
HETATM   11  C15 UNL     1      23.398   5.215  49.356  1.00  0.00     0.071 C 
HETATM   12  C16 UNL     1      23.714   5.088  50.641  1.00  0.00     0.143 C 
HETATM   13  N3  UNL     1      23.513   3.910  51.409  1.00  0.00    -0.335 N 
HETATM   14  H19 UNL     1      23.487   4.056  52.443  1.00  0.00     0.168 HD
BRANCH  10  15
HETATM   15  C13 UNL     1      22.361   4.788  47.112  1.00  0.00     0.155 C 
HETATM   16  C14 UNL     1      21.834   3.822  46.123  1.00  0.00     0.096 C 
HETATM   17  O1  UNL     1      22.461   6.029  46.930  1.00  0.00    -0.293 OA
ENDBRANCH  10  15
BRANCH  12  18
HETATM   18  O2  UNL     1      24.278   6.162  51.296  1.00  0.00    -0.341 OA
HETATM   19  C17 UNL     1      23.932   7.480  50.878  1.00  0.00     0.211 C 
ENDBRANCH  12  18
ENDBRANCH   4   7
BRANCH   1  20
HETATM   20  C4  UNL     1      25.473  -0.293  54.356  1.00  0.00     0.031 C 
BRANCH  20  21
HETATM   21  N2  UNL     1      26.346  -0.489  55.287  1.00  0.00    -0.128 NA
BRANCH  21  22
HETATM   22  N1  UNL     1      27.665  -0.086  55.020  1.00  0.00    -0.282 N 
HETATM   23  H6  UNL     1      27.482   0.503  55.861  1.00  0.00     0.189 HD
BRANCH  22  24
HETATM   24  C3  UNL     1      28.839  -0.176  54.221  1.00  0.00     0.105 C 
HETATM   25  C2  UNL     1      29.216   0.875  53.514  1.00  0.00    -0.012 C 
HETATM   26  C1  UNL     1      28.325   2.054  53.656  1.00  0.00     0.037 C 
ENDBRANCH  22  24
ENDBRANCH  21  22
ENDBRANCH  20  21
ENDBRANCH   1  20
TORSDOF 7
ENDMDL
MODEL 9
REMARK VINA RESULT:      -6.8      3.565      7.984
REMARK  7 active torsions:
REMARK  status: ('A' for Active; 'I' for Inactive)
REMARK    1  A    between atoms: C3_3  and  N1_4 
REMARK    2  A    between atoms: N1_4  and  N2_5 
REMARK    3  A    between atoms: N2_5  and  C4_6 
REMARK    4  A    between atoms: C4_6  and  C5_7 
REMARK    5  A    between atoms: C8_10  and  C9_11 
REMARK    6  A    between atoms: C12_14  and  C13_15 
REMARK    7  A    between atoms: C16_19  and  O2_20 
ROOT
HETATM    1  C5  UNL     1      25.062   1.151  52.053  1.00  0.00     0.080 A 
HETATM    2  C6  UNL     1      23.637   1.389  51.709  1.00  0.00     0.097 A 
HETATM    3  C7  UNL     1      23.794   2.648  50.909  1.00  0.00     0.012 A 
HETATM    4  C8  UNL     1      25.053   3.021  50.833  1.00  0.00     0.056 A 
HETATM    5  N4  UNL     1      25.930   2.142  51.523  1.00  0.00    -0.350 N 
HETATM    6  H20 UNL     1      26.949   2.128  51.667  1.00  0.00     0.166 HD
ENDROOT
BRANCH   4   7
HETATM    7  C9  UNL     1      25.487   4.212  50.115  1.00  0.00     0.060 C 
HETATM    8  C10 UNL     1      24.566   5.108  49.806  1.00  0.00     0.033 C 
HETATM    9  C11 UNL     1      24.675   6.384  49.103  1.00  0.00     0.017 C 
HETATM   10  C12 UNL     1      25.696   6.885  48.429  1.00  0.00     0.013 C 
HETATM   11  C15 UNL     1      26.983   6.224  48.247  1.00  0.00     0.071 C 
HETATM   12  C16 UNL     1      27.513   5.141  48.809  1.00  0.00     0.143 C 
HETATM   13  N3  UNL     1      26.865   4.343  49.789  1.00  0.00    -0.335 N 
HETATM   14  H19 UNL     1      27.502   3.752  50.369  1.00  0.00     0.168 HD
BRANCH  10  15
HETATM   15  C13 UNL     1      25.489   8.198  47.836  1.00  0.00     0.155 C 
HETATM   16  C14 UNL     1      25.441   8.304  46.361  1.00  0.00     0.096 C 
HETATM   17  O1  UNL     1      25.364   9.160  48.635  1.00  0.00    -0.293 OA
ENDBRANCH  10  15
BRANCH  12  18
HETATM   18  O2  UNL     1      28.778   4.747  48.429  1.00  0.00    -0.341 OA
HETATM   19  C17 UNL     1      29.713   5.742  48.019  1.00  0.00     0.211 C 
ENDBRANCH  12  18
ENDBRANCH   4   7
BRANCH   1  20
HETATM   20  C4  UNL     1      25.450   0.111  52.778  1.00  0.00     0.031 C 
BRANCH  20  21
HETATM   21  N2  UNL     1      26.108  -0.847  53.342  1.00  0.00    -0.128 NA
BRANCH  21  22
HETATM   22  N1  UNL     1      27.384  -0.537  53.841  1.00  0.00    -0.282 N 
HETATM   23  H6  UNL     1      26.807  -0.004  54.528  1.00  0.00     0.189 HD
BRANCH  22  24
HETATM   24  C3  UNL     1      28.799  -0.660  53.758  1.00  0.00     0.105 C 
HETATM   25  C2  UNL     1      29.538   0.436  53.724  1.00  0.00    -0.012 C 
HETATM   26  C1  UNL     1      28.756   1.696  53.781  1.00  0.00     0.037 C 
ENDBRANCH  22  24
ENDBRANCH  21  22
ENDBRANCH  20  21
ENDBRANCH   1  20
TORSDOF 7
ENDMDL
