MODEL 1
REMARK VINA RESULT:      -7.6      0.000      0.000
REMARK  5 active torsions:
REMARK  status: ('A' for Active; 'I' for Inactive)
REMARK    1  A    between atoms: C4_5  and  C5_6 
REMARK    2  A    between atoms: C5_6  and  O1_7 
REMARK    3  A    between atoms: O1_7  and  C6_8 
REMARK    4  A    between atoms: C14_17  and  P1_18 
REMARK    5  A    between atoms: C15_19  and  O2_20 
ROOT
HETATM    1  C6  UNL     1      23.572   1.178  51.916  1.00  0.00     0.082 A 
HETATM    2  C7  UNL     1      22.927   0.178  52.506  1.00  0.00    -0.030 A 
HETATM    3  C8  UNL     1      23.520  -0.653  53.562  1.00  0.00     0.085 C 
HETATM    4  C9  UNL     1      22.528  -1.161  54.553  1.00  0.00     0.093 C 
HETATM    5  N2  UNL     1      21.287  -0.991  54.888  1.00  0.00    -0.277 NA
HETATM    6  C10 UNL     1      20.415  -0.066  54.215  1.00  0.00     0.112 C 
HETATM    7  C11 UNL     1      20.514   0.382  52.969  1.00  0.00     0.005 C 
HETATM    8  C12 UNL     1      21.558   0.039  51.944  1.00  0.00     0.065 A 
HETATM    9  C13 UNL     1      21.535   1.130  50.936  1.00  0.00     0.001 A 
HETATM   10  C14 UNL     1      22.689   1.779  50.924  1.00  0.00    -0.006 A 
ENDROOT
BRANCH   1  11
HETATM   11  O1  UNL     1      24.843   1.717  52.061  1.00  0.00    -0.349 OA
BRANCH  11  12
HETATM   12  C5  UNL     1      25.151   2.383  53.247  1.00  0.00     0.183 C 
BRANCH  12  13
HETATM   13  C4  UNL     1      26.466   2.020  53.853  1.00  0.00     0.042 C 
HETATM   14  C3  UNL     1      26.406   0.787  54.703  1.00  0.00     0.039 C 
HETATM   15  C2  UNL     1      27.792   0.196  54.830  1.00  0.00     0.272 C 
HETATM   16  N1  UNL     1      28.354  -0.255  53.596  1.00  0.00     0.086 N 
HETATM   17  C1  UNL     1      29.770   0.114  53.622  1.00  0.00     0.310 C 
HETATM   18  C16 UNL     1      27.754   0.467  52.487  1.00  0.00     0.303 C 
HETATM   19  C15 UNL     1      27.613   1.906  52.909  1.00  0.00     0.152 C 
BRANCH  19  20
HETATM   20  O2  UNL     1      27.617   2.807  51.863  1.00  0.00    -0.393 OA
HETATM   21  H21 UNL     1      28.277   3.493  52.067  1.00  0.00     0.210 HD
ENDBRANCH  19  20
ENDBRANCH  12  13
ENDBRANCH  11  12
ENDBRANCH   1  11
BRANCH  10  22
HETATM   22  P1  UNL     1      22.794   3.155  49.719  1.00  0.00    -0.104 P 
HETATM   23  H18 UNL     1      21.626   3.980  49.780  1.00  0.00     0.059 HD
HETATM   24  H19 UNL     1      24.042   3.844  49.880  1.00  0.00     0.059 HD
ENDBRANCH  10  22
TORSDOF 5
ENDMDL
MODEL 2
REMARK VINA RESULT:      -7.5      1.329      1.686
REMARK  5 active torsions:
REMARK  status: ('A' for Active; 'I' for Inactive)
REMARK    1  A    between atoms: C4_5  and  C5_6 
REMARK    2  A    between atoms: C5_6  and  O1_7 
REMARK    3  A    between atoms: O1_7  and  C6_8 
REMARK    4  A    between atoms: C14_17  and  P1_18 
REMARK    5  A    between atoms: C15_19  and  O2_20 
ROOT
HETATM    1  C6  UNL     1      22.867   1.581  51.323  1.00  0.00     0.082 A 
HETATM    2  C7  UNL     1      22.129   0.569  51.765  1.00  0.00    -0.030 A 
HETATM    3  C8  UNL     1      22.327  -0.062  53.077  1.00  0.00     0.085 C 
HETATM    4  C9  UNL     1      21.073  -0.593  53.682  1.00  0.00     0.093 C 
HETATM    5  N2  UNL     1      19.790  -0.558  53.494  1.00  0.00    -0.277 NA
HETATM    6  C10 UNL     1      19.178   0.167  52.413  1.00  0.00     0.112 C 
HETATM    7  C11 UNL     1      19.720   0.495  51.246  1.00  0.00     0.005 C 
HETATM    8  C12 UNL     1      21.107   0.191  50.754  1.00  0.00     0.065 A 
HETATM    9  C13 UNL     1      21.390   1.160  49.664  1.00  0.00     0.001 A 
HETATM   10  C14 UNL     1      22.397   1.953  49.994  1.00  0.00    -0.006 A 
ENDROOT
BRANCH   1  11
HETATM   11  O1  UNL     1      23.930   2.298  51.857  1.00  0.00    -0.349 OA
BRANCH  11  12
HETATM   12  C5  UNL     1      25.227   1.881  51.564  1.00  0.00     0.183 C 
BRANCH  12  13
HETATM   13  C4  UNL     1      25.838   0.961  52.569  1.00  0.00     0.042 C 
HETATM   14  C3  UNL     1      26.664  -0.127  51.951  1.00  0.00     0.039 C 
HETATM   15  C2  UNL     1      27.642  -0.657  52.976  1.00  0.00     0.272 C 
HETATM   16  N1  UNL     1      28.601   0.302  53.424  1.00  0.00     0.086 N 
HETATM   17  C1  UNL     1      28.767   0.086  54.863  1.00  0.00     0.310 C 
HETATM   18  C16 UNL     1      28.072   1.644  53.261  1.00  0.00     0.303 C 
HETATM   19  C15 UNL     1      26.619   1.609  53.660  1.00  0.00     0.152 C 
BRANCH  19  20
HETATM   20  O2  UNL     1      26.126   2.815  54.113  1.00  0.00    -0.393 OA
HETATM   21  H21 UNL     1      26.818   3.487  53.977  1.00  0.00     0.210 HD
ENDBRANCH  19  20
ENDBRANCH  12  13
ENDBRANCH  11  12
ENDBRANCH   1  11
BRANCH  10  22
HETATM   22  P1  UNL     1      22.851   3.200  48.731  1.00  0.00    -0.104 P 
HETATM   23  H18 UNL     1      21.804   3.358  47.768  1.00  0.00     0.059 HD
HETATM   24  H19 UNL     1      23.280   4.407  49.375  1.00  0.00     0.059 HD
ENDBRANCH  10  22
TORSDOF 5
ENDMDL
MODEL 3
REMARK VINA RESULT:      -7.1      2.615      3.640
REMARK  5 active torsions:
REMARK  status: ('A' for Active; 'I' for Inactive)
REMARK    1  A    between atoms: C4_5  and  C5_6 
REMARK    2  A    between atoms: C5_6  and  O1_7 
REMARK    3  A    between atoms: O1_7  and  C6_8 
REMARK    4  A    between atoms: C14_17  and  P1_18 
REMARK    5  A    between atoms: C15_19  and  O2_20 
ROOT
HETATM    1  C6  UNL     1      22.911   0.840  52.651  1.00  0.00     0.082 A 
HETATM    2  C7  UNL     1      22.569   1.624  51.635  1.00  0.00    -0.030 A 
HETATM    3  C8  UNL     1      23.492   2.578  51.005  1.00  0.00     0.085 C 
HETATM    4  C9  UNL     1      23.235   2.791  49.552  1.00  0.00     0.093 C 
HETATM    5  N2  UNL     1      22.529   2.289  48.587  1.00  0.00    -0.277 NA
HETATM    6  C10 UNL     1      21.647   1.166  48.766  1.00  0.00     0.112 C 
HETATM    7  C11 UNL     1      21.055   0.769  49.886  1.00  0.00     0.005 C 
HETATM    8  C12 UNL     1      21.152   1.390  51.251  1.00  0.00     0.065 A 
HETATM    9  C13 UNL     1      20.748   0.340  52.222  1.00  0.00     0.001 A 
HETATM   10  C14 UNL     1      21.757   0.028  53.020  1.00  0.00    -0.006 A 
ENDROOT
BRANCH   1  11
HETATM   11  O1  UNL     1      24.083   0.665  53.375  1.00  0.00    -0.349 OA
BRANCH  11  12
HETATM   12  C5  UNL     1      24.944  -0.367  53.005  1.00  0.00     0.183 C 
BRANCH  12  13
HETATM   13  C4  UNL     1      26.328   0.063  52.645  1.00  0.00     0.042 C 
HETATM   14  C3  UNL     1      26.616   1.492  52.998  1.00  0.00     0.039 C 
HETATM   15  C2  UNL     1      28.111   1.691  53.107  1.00  0.00     0.272 C 
HETATM   16  N1  UNL     1      28.728   0.939  54.154  1.00  0.00     0.086 N 
HETATM   17  C1  UNL     1      30.002   0.451  53.622  1.00  0.00     0.310 C 
HETATM   18  C16 UNL     1      27.927  -0.233  54.460  1.00  0.00     0.303 C 
HETATM   19  C15 UNL     1      27.434  -0.797  53.152  1.00  0.00     0.152 C 
BRANCH  19  20
HETATM   20  O2  UNL     1      27.172  -2.152  53.182  1.00  0.00    -0.393 OA
HETATM   21  H21 UNL     1      27.317  -2.500  52.284  1.00  0.00     0.210 HD
ENDBRANCH  19  20
ENDBRANCH  12  13
ENDBRANCH  11  12
ENDBRANCH   1  11
BRANCH  10  22
HETATM   22  P1  UNL     1      21.391  -1.259  54.270  1.00  0.00    -0.104 P 
HETATM   23  H18 UNL     1      22.591  -1.904  54.708  1.00  0.00     0.059 HD
HETATM   24  H19 UNL     1      20.577  -0.703  55.312  1.00  0.00     0.059 HD
ENDBRANCH  10  22
TORSDOF 5
ENDMDL
MODEL 4
REMARK VINA RESULT:      -7.1      3.465      6.249
REMARK  5 active torsions:
REMARK  status: ('A' for Active; 'I' for Inactive)
REMARK    1  A    between atoms: C4_5  and  C5_6 
REMARK    2  A    between atoms: C5_6  and  O1_7 
REMARK    3  A    between atoms: O1_7  and  C6_8 
REMARK    4  A    between atoms: C14_17  and  P1_18 
REMARK    5  A    between atoms: C15_19  and  O2_20 
ROOT
HETATM    1  C6  UNL     1      25.044   1.430  53.066  1.00  0.00     0.082 A 
HETATM    2  C7  UNL     1      26.367   1.329  53.014  1.00  0.00    -0.030 A 
HETATM    3  C8  UNL     1      27.259   2.486  52.855  1.00  0.00     0.085 C 
HETATM    4  C9  UNL     1      28.581   2.321  53.524  1.00  0.00     0.093 C 
HETATM    5  N2  UNL     1      29.179   1.521  54.350  1.00  0.00    -0.277 NA
HETATM    6  C10 UNL     1      28.540   0.365  54.921  1.00  0.00     0.112 C 
HETATM    7  C11 UNL     1      27.525  -0.331  54.422  1.00  0.00     0.005 C 
HETATM    8  C12 UNL     1      26.786  -0.091  53.136  1.00  0.00     0.065 A 
HETATM    9  C13 UNL     1      25.477  -0.781  53.267  1.00  0.00     0.001 A 
HETATM   10  C14 UNL     1      24.483   0.093  53.227  1.00  0.00    -0.006 A 
ENDROOT
BRANCH   1  11
HETATM   11  O1  UNL     1      24.160   2.498  53.001  1.00  0.00    -0.349 OA
BRANCH  11  12
HETATM   12  C5  UNL     1      23.626   2.844  51.760  1.00  0.00     0.183 C 
BRANCH  12  13
HETATM   13  C4  UNL     1      24.152   4.114  51.178  1.00  0.00     0.042 C 
HETATM   14  C3  UNL     1      23.851   4.266  49.717  1.00  0.00     0.039 C 
HETATM   15  C2  UNL     1      23.920   5.729  49.339  1.00  0.00     0.272 C 
HETATM   16  N1  UNL     1      22.946   6.549  49.985  1.00  0.00     0.086 N 
HETATM   17  C1  UNL     1      23.618   7.803  50.331  1.00  0.00     0.310 C 
HETATM   18  C16 UNL     1      22.535   5.937  51.236  1.00  0.00     0.303 C 
HETATM   19  C15 UNL     1      23.769   5.367  51.888  1.00  0.00     0.152 C 
BRANCH  19  20
HETATM   20  O2  UNL     1      23.694   5.276  53.263  1.00  0.00    -0.393 OA
HETATM   21  H21 UNL     1      24.215   6.009  53.635  1.00  0.00     0.210 HD
ENDBRANCH  19  20
ENDBRANCH  12  13
ENDBRANCH  11  12
ENDBRANCH   1  11
BRANCH  10  22
HETATM   22  P1  UNL     1      22.806  -0.629  53.378  1.00  0.00    -0.104 P 
HETATM   23  H18 UNL     1      22.012  -0.325  52.227  1.00  0.00     0.059 HD
HETATM   24  H19 UNL     1      22.908  -2.022  53.705  1.00  0.00     0.059 HD
ENDBRANCH  10  22
TORSDOF 5
ENDMDL
MODEL 5
REMARK VINA RESULT:      -6.9      3.326      5.324
REMARK  5 active torsions:
REMARK  status: ('A' for Active; 'I' for Inactive)
REMARK    1  A    between atoms: C4_5  and  C5_6 
REMARK    2  A    between atoms: C5_6  and  O1_7 
REMARK    3  A    between atoms: O1_7  and  C6_8 
REMARK    4  A    between atoms: C14_17  and  P1_18 
REMARK    5  A    between atoms: C15_19  and  O2_20 
ROOT
HETATM    1  C6  UNL     1      23.047   1.535  52.776  1.00  0.00     0.082 A 
HETATM    2  C7  UNL     1      23.678   0.443  53.195  1.00  0.00    -0.030 A 
HETATM    3  C8  UNL     1      25.113   0.409  53.508  1.00  0.00     0.085 C 
HETATM    4  C9  UNL     1      25.469  -0.557  54.585  1.00  0.00     0.093 C 
HETATM    5  N2  UNL     1      24.894  -1.308  55.473  1.00  0.00    -0.277 NA
HETATM    6  C10 UNL     1      23.466  -1.374  55.633  1.00  0.00     0.112 C 
HETATM    7  C11 UNL     1      22.534  -1.119  54.722  1.00  0.00     0.005 C 
HETATM    8  C12 UNL     1      22.731  -0.698  53.293  1.00  0.00     0.065 A 
HETATM    9  C13 UNL     1      21.457  -0.070  52.859  1.00  0.00     0.001 A 
HETATM   10  C14 UNL     1      21.643   1.208  52.565  1.00  0.00    -0.006 A 
ENDROOT
BRANCH   1  11
HETATM   11  O1  UNL     1      23.454   2.838  52.521  1.00  0.00    -0.349 OA
BRANCH  11  12
HETATM   12  C5  UNL     1      24.150   3.098  51.341  1.00  0.00     0.183 C 
BRANCH  12  13
HETATM   13  C4  UNL     1      23.840   4.410  50.700  1.00  0.00     0.042 C 
HETATM   14  C3  UNL     1      22.893   4.296  49.543  1.00  0.00     0.039 C 
HETATM   15  C2  UNL     1      22.229   5.634  49.304  1.00  0.00     0.272 C 
HETATM   16  N1  UNL     1      21.412   6.086  50.384  1.00  0.00     0.086 N 
HETATM   17  C1  UNL     1      21.637   7.527  50.505  1.00  0.00     0.310 C 
HETATM   18  C16 UNL     1      21.861   5.487  51.629  1.00  0.00     0.303 C 
HETATM   19  C15 UNL     1      23.368   5.489  51.613  1.00  0.00     0.152 C 
BRANCH  19  20
HETATM   20  O2  UNL     1      23.948   5.509  52.865  1.00  0.00    -0.393 OA
HETATM   21  H21 UNL     1      24.573   6.255  52.889  1.00  0.00     0.210 HD
ENDBRANCH  19  20
ENDBRANCH  12  13
ENDBRANCH  11  12
ENDBRANCH   1  11
BRANCH  10  22
HETATM   22  P1  UNL     1      20.144   2.104  52.012  1.00  0.00    -0.104 P 
HETATM   23  H18 UNL     1      20.407   3.503  51.869  1.00  0.00     0.059 HD
HETATM   24  H19 UNL     1      19.596   1.460  50.852  1.00  0.00     0.059 HD
ENDBRANCH  10  22
TORSDOF 5
ENDMDL
MODEL 6
REMARK VINA RESULT:      -6.7      3.004      6.364
REMARK  5 active torsions:
REMARK  status: ('A' for Active; 'I' for Inactive)
REMARK    1  A    between atoms: C4_5  and  C5_6 
REMARK    2  A    between atoms: C5_6  and  O1_7 
REMARK    3  A    between atoms: O1_7  and  C6_8 
REMARK    4  A    between atoms: C14_17  and  P1_18 
REMARK    5  A    between atoms: C15_19  and  O2_20 
ROOT
HETATM    1  C6  UNL     1      23.862   0.945  52.887  1.00  0.00     0.082 A 
HETATM    2  C7  UNL     1      25.121   1.000  52.467  1.00  0.00    -0.030 A 
HETATM    3  C8  UNL     1      25.642   2.079  51.616  1.00  0.00     0.085 C 
HETATM    4  C9  UNL     1      27.082   2.384  51.850  1.00  0.00     0.093 C 
HETATM    5  N2  UNL     1      28.032   2.100  52.686  1.00  0.00    -0.277 NA
HETATM    6  C10 UNL     1      27.843   1.232  53.817  1.00  0.00     0.112 C 
HETATM    7  C11 UNL     1      26.942   0.267  53.959  1.00  0.00     0.005 C 
HETATM    8  C12 UNL     1      25.890  -0.165  52.977  1.00  0.00     0.065 A 
HETATM    9  C13 UNL     1      24.855  -0.890  53.758  1.00  0.00     0.001 A 
HETATM   10  C14 UNL     1      23.697  -0.251  53.704  1.00  0.00    -0.006 A 
ENDROOT
BRANCH   1  11
HETATM   11  O1  UNL     1      22.753   1.761  52.703  1.00  0.00    -0.349 OA
BRANCH  11  12
HETATM   12  C5  UNL     1      21.842   1.429  51.702  1.00  0.00     0.183 C 
BRANCH  12  13
HETATM   13  C4  UNL     1      22.291   1.736  50.311  1.00  0.00     0.042 C 
HETATM   14  C3  UNL     1      21.505   1.012  49.261  1.00  0.00     0.039 C 
HETATM   15  C2  UNL     1      21.634   1.743  47.943  1.00  0.00     0.272 C 
HETATM   16  N1  UNL     1      21.085   3.062  47.947  1.00  0.00     0.086 N 
HETATM   17  C1  UNL     1      22.003   3.900  47.174  1.00  0.00     0.310 C 
HETATM   18  C16 UNL     1      21.075   3.590  49.300  1.00  0.00     0.303 C 
HETATM   19  C15 UNL     1      22.370   3.181  49.954  1.00  0.00     0.152 C 
BRANCH  19  20
HETATM   20  O2  UNL     1      22.788   4.025  50.963  1.00  0.00    -0.393 OA
HETATM   21  H21 UNL     1      22.226   3.855  51.740  1.00  0.00     0.210 HD
ENDBRANCH  19  20
ENDBRANCH  12  13
ENDBRANCH  11  12
ENDBRANCH   1  11
BRANCH  10  22
HETATM   22  P1  UNL     1      22.328  -1.043  54.630  1.00  0.00    -0.104 P 
HETATM   23  H18 UNL     1      22.514  -0.898  56.041  1.00  0.00     0.059 HD
HETATM   24  H19 UNL     1      21.070  -0.576  54.124  1.00  0.00     0.059 HD
ENDBRANCH  10  22
TORSDOF 5
ENDMDL
MODEL 7
REMARK VINA RESULT:      -6.6      7.695      9.360
REMARK  5 active torsions:
REMARK  status: ('A' for Active; 'I' for Inactive)
REMARK    1  A    between atoms: C4_5  and  C5_6 
REMARK    2  A    between atoms: C5_6  and  O1_7 
REMARK    3  A    between atoms: O1_7  and  C6_8 
REMARK    4  A    between atoms: C14_17  and  P1_18 
REMARK    5  A    between atoms: C15_19  and  O2_20 
ROOT
HETATM    1  C6  UNL     1      29.088   7.508  48.389  1.00  0.00     0.082 A 
HETATM    2  C7  UNL     1      28.144   6.587  48.230  1.00  0.00    -0.030 A 
HETATM    3  C8  UNL     1      28.372   5.152  48.449  1.00  0.00     0.085 C 
HETATM    4  C9  UNL     1      27.168   4.421  48.939  1.00  0.00     0.093 C 
HETATM    5  N2  UNL     1      25.977   4.666  49.388  1.00  0.00    -0.277 NA
HETATM    6  C10 UNL     1      25.456   5.998  49.540  1.00  0.00     0.112 C 
HETATM    7  C11 UNL     1      25.820   7.092  48.881  1.00  0.00     0.005 C 
HETATM    8  C12 UNL     1      26.866   7.218  47.810  1.00  0.00     0.065 A 
HETATM    9  C13 UNL     1      27.244   8.654  47.757  1.00  0.00     0.001 A 
HETATM   10  C14 UNL     1      28.516   8.815  48.089  1.00  0.00    -0.006 A 
ENDROOT
BRANCH   1  11
HETATM   11  O1  UNL     1      30.425   7.457  48.760  1.00  0.00    -0.349 OA
BRANCH  11  12
HETATM   12  C5  UNL     1      31.393   7.423  47.757  1.00  0.00     0.183 C 
BRANCH  12  13
HETATM   13  C4  UNL     1      31.873   6.059  47.388  1.00  0.00     0.042 C 
HETATM   14  C3  UNL     1      32.791   6.055  46.202  1.00  0.00     0.039 C 
HETATM   15  C2  UNL     1      33.627   4.795  46.219  1.00  0.00     0.272 C 
HETATM   16  N1  UNL     1      34.503   4.686  47.342  1.00  0.00     0.086 N 
HETATM   17  C1  UNL     1      34.474   3.283  47.761  1.00  0.00     0.310 C 
HETATM   18  C16 UNL     1      33.983   5.464  48.452  1.00  0.00     0.303 C 
HETATM   19  C15 UNL     1      32.490   5.262  48.486  1.00  0.00     0.152 C 
BRANCH  19  20
HETATM   20  O2  UNL     1      31.923   5.425  49.733  1.00  0.00    -0.393 OA
HETATM   21  H21 UNL     1      30.956   5.403  49.623  1.00  0.00     0.210 HD
ENDBRANCH  19  20
ENDBRANCH  12  13
ENDBRANCH  11  12
ENDBRANCH   1  11
BRANCH  10  22
HETATM   22  P1  UNL     1      29.113  10.546  48.063  1.00  0.00    -0.104 P 
HETATM   23  H18 UNL     1      30.528  10.603  48.269  1.00  0.00     0.059 HD
HETATM   24  H19 UNL     1      28.637  11.204  46.880  1.00  0.00     0.059 HD
ENDBRANCH  10  22
TORSDOF 5
ENDMDL
MODEL 8
REMARK VINA RESULT:      -6.4      2.656      3.581
REMARK  5 active torsions:
REMARK  status: ('A' for Active; 'I' for Inactive)
REMARK    1  A    between atoms: C4_5  and  C5_6 
REMARK    2  A    between atoms: C5_6  and  O1_7 
REMARK    3  A    between atoms: O1_7  and  C6_8 
REMARK    4  A    between atoms: C14_17  and  P1_18 
REMARK    5  A    between atoms: C15_19  and  O2_20 
ROOT
HETATM    1  C6  UNL     1      21.643   1.258  52.878  1.00  0.00     0.082 A 
HETATM    2  C7  UNL     1      20.675   1.866  52.202  1.00  0.00    -0.030 A 
HETATM    3  C8  UNL     1      20.846   3.167  51.541  1.00  0.00     0.085 C 
HETATM    4  C9  UNL     1      20.017   3.329  50.313  1.00  0.00     0.093 C 
HETATM    5  N2  UNL     1      19.270   2.624  49.522  1.00  0.00    -0.277 NA
HETATM    6  C10 UNL     1      19.037   1.218  49.715  1.00  0.00     0.112 C 
HETATM    7  C11 UNL     1      19.102   0.532  50.850  1.00  0.00     0.005 C 
HETATM    8  C12 UNL     1      19.434   1.048  52.222  1.00  0.00     0.065 A 
HETATM    9  C13 UNL     1      19.862  -0.128  53.023  1.00  0.00     0.001 A 
HETATM   10  C14 UNL     1      21.126  -0.004  53.396  1.00  0.00    -0.006 A 
ENDROOT
BRANCH   1  11
HETATM   11  O1  UNL     1      22.963   1.580  53.161  1.00  0.00    -0.349 OA
BRANCH  11  12
HETATM   12  C5  UNL     1      23.974   0.890  52.494  1.00  0.00     0.183 C 
BRANCH  12  13
HETATM   13  C4  UNL     1      25.218   0.666  53.289  1.00  0.00     0.042 C 
HETATM   14  C3  UNL     1      26.094  -0.413  52.726  1.00  0.00     0.039 C 
HETATM   15  C2  UNL     1      27.508  -0.224  53.227  1.00  0.00     0.272 C 
HETATM   16  N1  UNL     1      28.126   0.991  52.798  1.00  0.00     0.086 N 
HETATM   17  C1  UNL     1      28.891   1.497  53.938  1.00  0.00     0.310 C 
HETATM   18  C16 UNL     1      27.110   1.985  52.501  1.00  0.00     0.303 C 
HETATM   19  C15 UNL     1      26.046   1.874  53.563  1.00  0.00     0.152 C 
BRANCH  19  20
HETATM   20  O2  UNL     1      25.345   3.041  53.788  1.00  0.00    -0.393 OA
HETATM   21  H21 UNL     1      24.781   2.900  54.569  1.00  0.00     0.210 HD
ENDBRANCH  19  20
ENDBRANCH  12  13
ENDBRANCH  11  12
ENDBRANCH   1  11
BRANCH  10  22
HETATM   22  P1  UNL     1      21.782  -1.392  54.395  1.00  0.00    -0.104 P 
HETATM   23  H18 UNL     1      21.833  -2.597  53.626  1.00  0.00     0.059 HD
HETATM   24  H19 UNL     1      23.018  -1.003  55.010  1.00  0.00     0.059 HD
ENDBRANCH  10  22
TORSDOF 5
ENDMDL
MODEL 9
REMARK VINA RESULT:      -6.4      2.409      6.320
REMARK  5 active torsions:
REMARK  status: ('A' for Active; 'I' for Inactive)
REMARK    1  A    between atoms: C4_5  and  C5_6 
REMARK    2  A    between atoms: C5_6  and  O1_7 
REMARK    3  A    between atoms: O1_7  and  C6_8 
REMARK    4  A    between atoms: C14_17  and  P1_18 
REMARK    5  A    between atoms: C15_19  and  O2_20 
ROOT
HETATM    1  C6  UNL     1      24.447   2.125  51.739  1.00  0.00     0.082 A 
HETATM    2  C7  UNL     1      25.032   1.373  52.665  1.00  0.00    -0.030 A 
HETATM    3  C8  UNL     1      24.289   0.493  53.577  1.00  0.00     0.085 C 
HETATM    4  C9  UNL     1      25.043  -0.729  53.978  1.00  0.00     0.093 C 
HETATM    5  N2  UNL     1      26.127  -1.370  53.668  1.00  0.00    -0.277 NA
HETATM    6  C10 UNL     1      27.027  -0.931  52.636  1.00  0.00     0.112 C 
HETATM    7  C11 UNL     1      27.202   0.306  52.183  1.00  0.00     0.005 C 
HETATM    8  C12 UNL     1      26.506   1.559  52.632  1.00  0.00     0.065 A 
HETATM    9  C13 UNL     1      26.660   2.545  51.530  1.00  0.00     0.001 A 
HETATM   10  C14 UNL     1      25.479   2.865  51.022  1.00  0.00    -0.006 A 
ENDROOT
BRANCH   1  11
HETATM   11  O1  UNL     1      23.127   2.322  51.356  1.00  0.00    -0.349 OA
BRANCH  11  12
HETATM   12  C5  UNL     1      22.680   1.722  50.180  1.00  0.00     0.183 C 
BRANCH  12  13
HETATM   13  C4  UNL     1      21.497   0.825  50.338  1.00  0.00     0.042 C 
HETATM   14  C3  UNL     1      21.094   0.622  51.768  1.00  0.00     0.039 C 
HETATM   15  C2  UNL     1      19.648   0.181  51.824  1.00  0.00     0.272 C 
HETATM   16  N1  UNL     1      18.719   1.148  51.331  1.00  0.00     0.086 N 
HETATM   17  C1  UNL     1      17.705   0.408  50.578  1.00  0.00     0.310 C 
HETATM   18  C16 UNL     1      19.380   2.032  50.386  1.00  0.00     0.303 C 
HETATM   19  C15 UNL     1      20.292   1.184  49.537  1.00  0.00     0.152 C 
BRANCH  19  20
HETATM   20  O2  UNL     1      20.541   1.700  48.282  1.00  0.00    -0.393 OA
HETATM   21  H21 UNL     1      20.009   1.193  47.644  1.00  0.00     0.210 HD
ENDBRANCH  19  20
ENDBRANCH  12  13
ENDBRANCH  11  12
ENDBRANCH   1  11
BRANCH  10  22
HETATM   22  P1  UNL     1      25.527   4.078  49.650  1.00  0.00    -0.104 P 
HETATM   23  H18 UNL     1      24.954   5.326  50.051  1.00  0.00     0.059 HD
HETATM   24  H19 UNL     1      26.858   4.154  49.120  1.00  0.00     0.059 HD
ENDBRANCH  10  22
TORSDOF 5
ENDMDL
