MODEL 1
REMARK VINA RESULT:      -8.5      0.000      0.000
REMARK  6 active torsions:
REMARK  status: ('A' for Active; 'I' for Inactive)
REMARK    1  A    between atoms: C3_3  and  C4_4 
REMARK       I    between atoms: C4_4  and  N1_6 
REMARK    2  A    between atoms: N1_6  and  C5_7 
REMARK    3  A    between atoms: C7_9  and  N2_10 
REMARK    4  A    between atoms: N2_10  and  C8_11 
REMARK    5  A    between atoms: C17_23  and  O2_24 
REMARK    6  A    between atoms: O2_24  and  C18_25 
ROOT
HETATM    1  C5  UNL     1      26.302   2.297  52.395  1.00  0.00     0.068 A 
HETATM    2  C6  UNL     1      25.199   2.324  53.136  1.00  0.00     0.043 A 
HETATM    3  C7  UNL     1      24.087   2.866  52.382  1.00  0.00     0.100 A 
HETATM    4  C14 UNL     1      23.525   4.187  52.720  1.00  0.00     0.189 C 
HETATM    5  N3  UNL     1      22.812   4.456  51.442  1.00  0.00    -0.298 NA
HETATM    6  C15 UNL     1      23.568   3.934  50.494  1.00  0.00     0.123 C 
HETATM    7  C16 UNL     1      24.787   3.313  51.073  1.00  0.00     0.028 A 
HETATM    8  C17 UNL     1      26.050   2.924  51.077  1.00  0.00     0.105 A 
ENDROOT
BRANCH   3   9
HETATM    9  N2  UNL     1      23.147   1.825  52.056  1.00  0.00    -0.371 N 
HETATM   10  H8  UNL     1      23.370   1.718  51.015  1.00  0.00     0.161 HD
BRANCH   9  11
HETATM   11  C8  UNL     1      22.127   0.980  52.539  1.00  0.00     0.030 A 
HETATM   12  C9  UNL     1      22.192   0.270  53.717  1.00  0.00     0.032 A 
HETATM   13  C10 UNL     1      21.200  -0.550  54.214  1.00  0.00     0.046 A 
HETATM   14  C11 UNL     1      20.093  -0.614  53.422  1.00  0.00     0.138 A 
HETATM   15  F1  UNL     1      19.046  -1.380  53.792  1.00  0.00    -0.204 F 
HETATM   16  C12 UNL     1      19.955   0.058  52.245  1.00  0.00     0.074 A 
HETATM   17 CL1  UNL     1      18.500  -0.075  51.282  1.00  0.00    -0.081 Cl
HETATM   18  C13 UNL     1      20.974   0.862  51.796  1.00  0.00     0.056 A 
ENDBRANCH   9  11
ENDBRANCH   3   9
BRANCH   1  19
HETATM   19  N1  UNL     1      27.671   1.879  52.576  1.00  0.00    -0.321 N 
HETATM   20  C4  UNL     1      28.130   1.213  53.744  1.00  0.00     0.245 C 
HETATM   21  O1  UNL     1      27.188   1.055  54.556  1.00  0.00    -0.268 OA
HETATM   22  H6  UNL     1      28.327   2.104  51.769  1.00  0.00     0.169 HD
BRANCH  20  23
HETATM   23  C3  UNL     1      29.515   0.806  53.895  1.00  0.00     0.070 C 
HETATM   24  C2  UNL     1      29.948  -0.411  53.686  1.00  0.00    -0.026 C 
HETATM   25  C1  UNL     1      29.283  -1.650  53.274  1.00  0.00     0.036 C 
ENDBRANCH  20  23
ENDBRANCH   1  19
BRANCH   8  26
HETATM   26  O2  UNL     1      26.815   3.159  49.946  1.00  0.00    -0.348 OA
BRANCH  26  27
HETATM   27  C18 UNL     1      26.672   4.395  49.269  1.00  0.00     0.171 C 
HETATM   28  C19 UNL     1      27.939   4.833  48.595  1.00  0.00     0.034 C 
ENDBRANCH  26  27
ENDBRANCH   8  26
TORSDOF 6
ENDMDL
MODEL 2
REMARK VINA RESULT:      -8.1      3.531      5.722
REMARK  6 active torsions:
REMARK  status: ('A' for Active; 'I' for Inactive)
REMARK    1  A    between atoms: C3_3  and  C4_4 
REMARK       I    between atoms: C4_4  and  N1_6 
REMARK    2  A    between atoms: N1_6  and  C5_7 
REMARK    3  A    between atoms: C7_9  and  N2_10 
REMARK    4  A    between atoms: N2_10  and  C8_11 
REMARK    5  A    between atoms: C17_23  and  O2_24 
REMARK    6  A    between atoms: O2_24  and  C18_25 
ROOT
HETATM    1  C5  UNL     1      23.392   3.843  50.835  1.00  0.00     0.068 A 
HETATM    2  C6  UNL     1      23.038   3.670  52.104  1.00  0.00     0.043 A 
HETATM    3  C7  UNL     1      22.494   2.342  52.308  1.00  0.00     0.100 A 
HETATM    4  C14 UNL     1      21.060   2.154  52.596  1.00  0.00     0.189 C 
HETATM    5  N3  UNL     1      20.953   0.712  52.247  1.00  0.00    -0.298 NA
HETATM    6  C15 UNL     1      21.774   0.528  51.229  1.00  0.00     0.123 C 
HETATM    7  C16 UNL     1      22.445   1.799  50.857  1.00  0.00     0.028 A 
HETATM    8  C17 UNL     1      23.020   2.657  50.031  1.00  0.00     0.105 A 
ENDROOT
BRANCH   3   9
HETATM    9  N2  UNL     1      23.419   1.531  53.060  1.00  0.00    -0.371 N 
HETATM   10  H8  UNL     1      22.794   1.298  53.897  1.00  0.00     0.161 HD
BRANCH   9  11
HETATM   11  C8  UNL     1      24.719   0.989  53.113  1.00  0.00     0.030 A 
HETATM   12  C9  UNL     1      25.013  -0.350  52.989  1.00  0.00     0.032 A 
HETATM   13  C10 UNL     1      26.279  -0.898  53.023  1.00  0.00     0.046 A 
HETATM   14  C11 UNL     1      27.270   0.021  53.197  1.00  0.00     0.138 A 
HETATM   15  F1  UNL     1      28.557  -0.382  53.249  1.00  0.00    -0.204 F 
HETATM   16  C12 UNL     1      27.057   1.360  53.329  1.00  0.00     0.074 A 
HETATM   17 CL1  UNL     1      28.385   2.478  53.551  1.00  0.00    -0.081 Cl
HETATM   18  C13 UNL     1      25.776   1.854  53.287  1.00  0.00     0.056 A 
ENDBRANCH   9  11
ENDBRANCH   3   9
BRANCH   1  19
HETATM   19  N1  UNL     1      23.975   4.905  50.050  1.00  0.00    -0.321 N 
HETATM   20  C4  UNL     1      25.373   5.036  49.841  1.00  0.00     0.245 C 
HETATM   21  O1  UNL     1      25.991   4.115  50.426  1.00  0.00    -0.268 OA
HETATM   22  H6  UNL     1      23.282   5.595  49.632  1.00  0.00     0.169 HD
BRANCH  20  23
HETATM   23  C3  UNL     1      25.927   6.117  49.046  1.00  0.00     0.070 C 
HETATM   24  C2  UNL     1      27.111   6.085  48.489  1.00  0.00    -0.026 C 
HETATM   25  C1  UNL     1      28.174   5.077  48.464  1.00  0.00     0.036 C 
ENDBRANCH  20  23
ENDBRANCH   1  19
BRANCH   8  26
HETATM   26  O2  UNL     1      23.149   2.301  48.697  1.00  0.00    -0.348 OA
BRANCH  26  27
HETATM   27  C18 UNL     1      22.012   2.382  47.857  1.00  0.00     0.171 C 
HETATM   28  C19 UNL     1      21.984   3.644  47.046  1.00  0.00     0.034 C 
ENDBRANCH  26  27
ENDBRANCH   8  26
TORSDOF 6
ENDMDL
MODEL 3
REMARK VINA RESULT:      -8.0      3.719      5.919
REMARK  6 active torsions:
REMARK  status: ('A' for Active; 'I' for Inactive)
REMARK    1  A    between atoms: C3_3  and  C4_4 
REMARK       I    between atoms: C4_4  and  N1_6 
REMARK    2  A    between atoms: N1_6  and  C5_7 
REMARK    3  A    between atoms: C7_9  and  N2_10 
REMARK    4  A    between atoms: N2_10  and  C8_11 
REMARK    5  A    between atoms: C17_23  and  O2_24 
REMARK    6  A    between atoms: O2_24  and  C18_25 
ROOT
HETATM    1  C5  UNL     1      24.449   0.941  52.695  1.00  0.00     0.068 A 
HETATM    2  C6  UNL     1      24.414   1.772  51.659  1.00  0.00     0.043 A 
HETATM    3  C7  UNL     1      23.053   2.184  51.377  1.00  0.00     0.100 A 
HETATM    4  C14 UNL     1      22.367   1.721  50.157  1.00  0.00     0.189 C 
HETATM    5  N3  UNL     1      20.966   1.998  50.574  1.00  0.00    -0.298 NA
HETATM    6  C15 UNL     1      20.922   1.746  51.870  1.00  0.00     0.123 C 
HETATM    7  C16 UNL     1      22.250   1.300  52.365  1.00  0.00     0.028 A 
HETATM    8  C17 UNL     1      23.075   0.635  53.155  1.00  0.00     0.105 A 
ENDROOT
BRANCH   3   9
HETATM    9  N2  UNL     1      22.859   3.562  51.748  1.00  0.00    -0.371 N 
HETATM   10  H8  UNL     1      22.532   3.420  52.757  1.00  0.00     0.161 HD
BRANCH   9  11
HETATM   11  C8  UNL     1      22.918   4.905  51.322  1.00  0.00     0.030 A 
HETATM   12  C9  UNL     1      21.822   5.723  51.161  1.00  0.00     0.032 A 
HETATM   13  C10 UNL     1      21.860   7.043  50.760  1.00  0.00     0.046 A 
HETATM   14  C11 UNL     1      23.119   7.508  50.522  1.00  0.00     0.138 A 
HETATM   15  F1  UNL     1      23.298   8.784  50.123  1.00  0.00    -0.204 F 
HETATM   16  C12 UNL     1      24.249   6.760  50.658  1.00  0.00     0.074 A 
HETATM   17 CL1  UNL     1      25.833   7.430  50.333  1.00  0.00    -0.081 Cl
HETATM   18  C13 UNL     1      24.155   5.450  51.062  1.00  0.00     0.056 A 
ENDBRANCH   9  11
ENDBRANCH   3   9
BRANCH   1  19
HETATM   19  N1  UNL     1      25.468   0.227  53.426  1.00  0.00    -0.321 N 
HETATM   20  C4  UNL     1      26.394   0.868  54.292  1.00  0.00     0.245 C 
HETATM   21  O1  UNL     1      26.187   2.105  54.316  1.00  0.00    -0.268 OA
HETATM   22  H6  UNL     1      25.485  -0.825  53.274  1.00  0.00     0.169 HD
BRANCH  20  23
HETATM   23  C3  UNL     1      27.408   0.120  55.012  1.00  0.00     0.070 C 
HETATM   24  C2  UNL     1      28.662   0.046  54.648  1.00  0.00    -0.026 C 
HETATM   25  C1  UNL     1      29.409   0.618  53.524  1.00  0.00     0.036 C 
ENDBRANCH  20  23
ENDBRANCH   1  19
BRANCH   8  26
HETATM   26  O2  UNL     1      22.535  -0.145  54.165  1.00  0.00    -0.348 OA
BRANCH  26  27
HETATM   27  C18 UNL     1      22.007  -1.417  53.837  1.00  0.00     0.171 C 
HETATM   28  C19 UNL     1      20.540  -1.527  54.136  1.00  0.00     0.034 C 
ENDBRANCH  26  27
ENDBRANCH   8  26
TORSDOF 6
ENDMDL
MODEL 4
REMARK VINA RESULT:      -8.0      4.145      7.358
REMARK  6 active torsions:
REMARK  status: ('A' for Active; 'I' for Inactive)
REMARK    1  A    between atoms: C3_3  and  C4_4 
REMARK       I    between atoms: C4_4  and  N1_6 
REMARK    2  A    between atoms: N1_6  and  C5_7 
REMARK    3  A    between atoms: C7_9  and  N2_10 
REMARK    4  A    between atoms: N2_10  and  C8_11 
REMARK    5  A    between atoms: C17_23  and  O2_24 
REMARK    6  A    between atoms: O2_24  and  C18_25 
ROOT
HETATM    1  C5  UNL     1      20.580   1.245  51.404  1.00  0.00     0.068 A 
HETATM    2  C6  UNL     1      21.857   0.986  51.144  1.00  0.00     0.043 A 
HETATM    3  C7  UNL     1      22.690   2.121  51.488  1.00  0.00     0.100 A 
HETATM    4  C14 UNL     1      23.345   2.918  50.434  1.00  0.00     0.189 C 
HETATM    5  N3  UNL     1      23.633   4.141  51.231  1.00  0.00    -0.298 NA
HETATM    6  C15 UNL     1      22.616   4.275  52.061  1.00  0.00     0.123 C 
HETATM    7  C16 UNL     1      21.627   3.185  51.864  1.00  0.00     0.028 A 
HETATM    8  C17 UNL     1      20.421   2.642  51.865  1.00  0.00     0.105 A 
ENDROOT
BRANCH   3   9
HETATM    9  N2  UNL     1      23.471   1.832  52.663  1.00  0.00    -0.371 N 
HETATM   10  H8  UNL     1      22.836   2.277  53.400  1.00  0.00     0.161 HD
BRANCH   9  11
HETATM   11  C8  UNL     1      24.654   1.250  53.165  1.00  0.00     0.030 A 
HETATM   12  C9  UNL     1      24.756  -0.046  53.618  1.00  0.00     0.032 A 
HETATM   13  C10 UNL     1      25.906  -0.638  54.098  1.00  0.00     0.046 A 
HETATM   14  C11 UNL     1      26.991   0.187  54.094  1.00  0.00     0.138 A 
HETATM   15  F1  UNL     1      28.181  -0.267  54.538  1.00  0.00    -0.204 F 
HETATM   16  C12 UNL     1      26.967   1.479  53.662  1.00  0.00     0.074 A 
HETATM   17 CL1  UNL     1      28.404   2.478  53.688  1.00  0.00    -0.081 Cl
HETATM   18  C13 UNL     1      25.795   2.020  53.193  1.00  0.00     0.056 A 
ENDBRANCH   9  11
ENDBRANCH   3   9
BRANCH   1  19
HETATM   19  N1  UNL     1      19.327   0.536  51.287  1.00  0.00    -0.321 N 
HETATM   20  C4  UNL     1      18.731  -0.167  52.366  1.00  0.00     0.245 C 
HETATM   21  O1  UNL     1      19.442  -0.075  53.395  1.00  0.00    -0.268 OA
HETATM   22  H6  UNL     1      18.871   0.574  50.326  1.00  0.00     0.169 HD
BRANCH  20  23
HETATM   23  C3  UNL     1      17.470  -0.870  52.215  1.00  0.00     0.070 C 
HETATM   24  C2  UNL     1      17.168  -1.977  52.843  1.00  0.00    -0.026 C 
HETATM   25  C1  UNL     1      17.895  -2.808  53.805  1.00  0.00     0.036 C 
ENDBRANCH  20  23
ENDBRANCH   1  19
BRANCH   8  26
HETATM   26  O2  UNL     1      19.348   3.424  52.264  1.00  0.00    -0.348 OA
BRANCH  26  27
HETATM   27  C18 UNL     1      18.478   3.943  51.276  1.00  0.00     0.171 C 
HETATM   28  C19 UNL     1      17.034   3.665  51.576  1.00  0.00     0.034 C 
ENDBRANCH  26  27
ENDBRANCH   8  26
TORSDOF 6
ENDMDL
MODEL 5
REMARK VINA RESULT:      -7.6      4.251      7.818
REMARK  6 active torsions:
REMARK  status: ('A' for Active; 'I' for Inactive)
REMARK    1  A    between atoms: C3_3  and  C4_4 
REMARK       I    between atoms: C4_4  and  N1_6 
REMARK    2  A    between atoms: N1_6  and  C5_7 
REMARK    3  A    between atoms: C7_9  and  N2_10 
REMARK    4  A    between atoms: N2_10  and  C8_11 
REMARK    5  A    between atoms: C17_23  and  O2_24 
REMARK    6  A    between atoms: O2_24  and  C18_25 
ROOT
HETATM    1  C5  UNL     1      22.416   2.165  52.546  1.00  0.00     0.068 A 
HETATM    2  C6  UNL     1      23.387   3.071  52.614  1.00  0.00     0.043 A 
HETATM    3  C7  UNL     1      24.683   2.448  52.431  1.00  0.00     0.100 A 
HETATM    4  C14 UNL     1      25.631   2.345  53.555  1.00  0.00     0.189 C 
HETATM    5  N3  UNL     1      26.508   1.276  53.006  1.00  0.00    -0.298 NA
HETATM    6  C15 UNL     1      25.709   0.470  52.330  1.00  0.00     0.123 C 
HETATM    7  C16 UNL     1      24.304   0.945  52.395  1.00  0.00     0.028 A 
HETATM    8  C17 UNL     1      22.989   0.807  52.405  1.00  0.00     0.105 A 
ENDROOT
BRANCH   3   9
HETATM    9  N2  UNL     1      25.233   2.802  51.147  1.00  0.00    -0.371 N 
HETATM   10  H8  UNL     1      25.540   1.830  50.822  1.00  0.00     0.161 HD
BRANCH   9  11
HETATM   11  C8  UNL     1      25.507   3.850  50.244  1.00  0.00     0.030 A 
HETATM   12  C9  UNL     1      24.585   4.782  49.825  1.00  0.00     0.032 A 
HETATM   13  C10 UNL     1      24.837   5.823  48.954  1.00  0.00     0.046 A 
HETATM   14  C11 UNL     1      26.126   5.869  48.514  1.00  0.00     0.138 A 
HETATM   15  F1  UNL     1      26.508   6.839  47.657  1.00  0.00    -0.204 F 
HETATM   16  C12 UNL     1      27.093   4.983  48.883  1.00  0.00     0.074 A 
HETATM   17 CL1  UNL     1      28.728   5.109  48.273  1.00  0.00    -0.081 Cl
HETATM   18  C13 UNL     1      26.788   3.965  49.754  1.00  0.00     0.056 A 
ENDBRANCH   9  11
ENDBRANCH   3   9
BRANCH   1  19
HETATM   19  N1  UNL     1      20.976   2.171  52.640  1.00  0.00    -0.321 N 
HETATM   20  C4  UNL     1      20.126   2.363  51.519  1.00  0.00     0.245 C 
HETATM   21  O1  UNL     1      20.806   2.519  50.476  1.00  0.00    -0.268 OA
HETATM   22  H6  UNL     1      20.583   2.022  53.618  1.00  0.00     0.169 HD
BRANCH  20  23
HETATM   23  C3  UNL     1      18.681   2.363  51.648  1.00  0.00     0.070 C 
HETATM   24  C2  UNL     1      17.934   1.295  51.534  1.00  0.00    -0.026 C 
HETATM   25  C1  UNL     1      18.241  -0.113  51.270  1.00  0.00     0.036 C 
ENDBRANCH  20  23
ENDBRANCH   1  19
BRANCH   8  26
HETATM   26  O2  UNL     1      22.459  -0.468  52.290  1.00  0.00    -0.348 OA
BRANCH  26  27
HETATM   27  C18 UNL     1      22.308  -1.253  53.458  1.00  0.00     0.171 C 
HETATM   28  C19 UNL     1      20.976  -1.051  54.120  1.00  0.00     0.034 C 
ENDBRANCH  26  27
ENDBRANCH   8  26
TORSDOF 6
ENDMDL
MODEL 6
REMARK VINA RESULT:      -7.6      9.287     12.663
REMARK  6 active torsions:
REMARK  status: ('A' for Active; 'I' for Inactive)
REMARK    1  A    between atoms: C3_3  and  C4_4 
REMARK       I    between atoms: C4_4  and  N1_6 
REMARK    2  A    between atoms: N1_6  and  C5_7 
REMARK    3  A    between atoms: C7_9  and  N2_10 
REMARK    4  A    between atoms: N2_10  and  C8_11 
REMARK    5  A    between atoms: C17_23  and  O2_24 
REMARK    6  A    between atoms: O2_24  and  C18_25 
ROOT
HETATM    1  C5  UNL     1      32.806   7.009  48.846  1.00  0.00     0.068 A 
HETATM    2  C6  UNL     1      34.066   6.887  48.442  1.00  0.00     0.043 A 
HETATM    3  C7  UNL     1      34.295   5.579  47.861  1.00  0.00     0.100 A 
HETATM    4  C14 UNL     1      35.139   4.588  48.553  1.00  0.00     0.189 C 
HETATM    5  N3  UNL     1      34.671   3.367  47.844  1.00  0.00    -0.298 NA
HETATM    6  C15 UNL     1      33.385   3.558  47.613  1.00  0.00     0.123 C 
HETATM    7  C16 UNL     1      32.944   4.873  48.144  1.00  0.00     0.028 A 
HETATM    8  C17 UNL     1      32.081   5.732  48.659  1.00  0.00     0.105 A 
ENDROOT
BRANCH   3   9
HETATM    9  N2  UNL     1      34.456   5.685  46.434  1.00  0.00    -0.371 N 
HETATM   10  H8  UNL     1      35.516   5.558  46.375  1.00  0.00     0.161 HD
BRANCH   9  11
HETATM   11  C8  UNL     1      33.808   5.889  45.198  1.00  0.00     0.030 A 
HETATM   12  C9  UNL     1      32.925   6.913  44.937  1.00  0.00     0.032 A 
HETATM   13  C10 UNL     1      32.293   7.138  43.732  1.00  0.00     0.046 A 
HETATM   14  C11 UNL     1      32.616   6.233  42.765  1.00  0.00     0.138 A 
HETATM   15  F1  UNL     1      32.068   6.338  41.537  1.00  0.00    -0.204 F 
HETATM   16  C12 UNL     1      33.479   5.195  42.948  1.00  0.00     0.074 A 
HETATM   17 CL1  UNL     1      33.844   4.072  41.656  1.00  0.00    -0.081 Cl
HETATM   18  C13 UNL     1      34.082   5.017  44.169  1.00  0.00     0.056 A 
ENDBRANCH   9  11
ENDBRANCH   3   9
BRANCH   1  19
HETATM   19  N1  UNL     1      32.005   8.034  49.471  1.00  0.00    -0.321 N 
HETATM   20  C4  UNL     1      31.177   8.925  48.737  1.00  0.00     0.245 C 
HETATM   21  O1  UNL     1      31.254   8.682  47.509  1.00  0.00    -0.268 OA
HETATM   22  H6  UNL     1      32.075   8.084  50.531  1.00  0.00     0.169 HD
BRANCH  20  23
HETATM   23  C3  UNL     1      30.384   9.946  49.396  1.00  0.00     0.070 C 
HETATM   24  C2  UNL     1      30.493  11.228  49.156  1.00  0.00    -0.026 C 
HETATM   25  C1  UNL     1      31.345  12.004  48.251  1.00  0.00     0.036 C 
ENDBRANCH  20  23
ENDBRANCH   1  19
BRANCH   8  26
HETATM   26  O2  UNL     1      30.786   5.300  48.899  1.00  0.00    -0.348 OA
BRANCH  26  27
HETATM   27  C18 UNL     1      29.827   5.410  47.863  1.00  0.00     0.171 C 
HETATM   28  C19 UNL     1      28.448   5.699  48.382  1.00  0.00     0.034 C 
ENDBRANCH  26  27
ENDBRANCH   8  26
TORSDOF 6
ENDMDL
MODEL 7
REMARK VINA RESULT:      -7.5      6.848      9.148
REMARK  6 active torsions:
REMARK  status: ('A' for Active; 'I' for Inactive)
REMARK    1  A    between atoms: C3_3  and  C4_4 
REMARK       I    between atoms: C4_4  and  N1_6 
REMARK    2  A    between atoms: N1_6  and  C5_7 
REMARK    3  A    between atoms: C7_9  and  N2_10 
REMARK    4  A    between atoms: N2_10  and  C8_11 
REMARK    5  A    between atoms: C17_23  and  O2_24 
REMARK    6  A    between atoms: O2_24  and  C18_25 
ROOT
HETATM    1  C5  UNL     1      32.388   6.716  48.359  1.00  0.00     0.068 A 
HETATM    2  C6  UNL     1      31.399   7.013  49.196  1.00  0.00     0.043 A 
HETATM    3  C7  UNL     1      30.601   8.107  48.681  1.00  0.00     0.100 A 
HETATM    4  C14 UNL     1      30.633   9.430  49.330  1.00  0.00     0.189 C 
HETATM    5  N3  UNL     1      30.083  10.239  48.209  1.00  0.00    -0.298 NA
HETATM    6  C15 UNL     1      30.550   9.685  47.105  1.00  0.00     0.123 C 
HETATM    7  C16 UNL     1      31.412   8.519  47.425  1.00  0.00     0.028 A 
HETATM    8  C17 UNL     1      32.404   7.668  47.225  1.00  0.00     0.105 A 
ENDROOT
BRANCH   3   9
HETATM    9  N2  UNL     1      29.314   7.628  48.247  1.00  0.00    -0.371 N 
HETATM   10  H8  UNL     1      29.197   8.231  47.370  1.00  0.00     0.161 HD
BRANCH   9  11
HETATM   11  C8  UNL     1      28.240   6.756  48.520  1.00  0.00     0.030 A 
HETATM   12  C9  UNL     1      28.322   5.382  48.489  1.00  0.00     0.032 A 
HETATM   13  C10 UNL     1      27.288   4.512  48.768  1.00  0.00     0.046 A 
HETATM   14  C11 UNL     1      26.120   5.134  49.093  1.00  0.00     0.138 A 
HETATM   15  F1  UNL     1      25.028   4.399  49.389  1.00  0.00    -0.204 F 
HETATM   16  C12 UNL     1      25.962   6.486  49.144  1.00  0.00     0.074 A 
HETATM   17 CL1  UNL     1      24.428   7.211  49.571  1.00  0.00    -0.081 Cl
HETATM   18  C13 UNL     1      27.025   7.308  48.858  1.00  0.00     0.056 A 
ENDBRANCH   9  11
ENDBRANCH   3   9
BRANCH   1  19
HETATM   19  N1  UNL     1      33.466   5.758  48.316  1.00  0.00    -0.321 N 
HETATM   20  C4  UNL     1      33.312   4.439  47.814  1.00  0.00     0.245 C 
HETATM   21  O1  UNL     1      32.132   4.252  47.430  1.00  0.00    -0.268 OA
HETATM   22  H6  UNL     1      34.399   6.106  48.691  1.00  0.00     0.169 HD
BRANCH  20  23
HETATM   23  C3  UNL     1      34.417   3.499  47.786  1.00  0.00     0.070 C 
HETATM   24  C2  UNL     1      35.132   3.240  46.721  1.00  0.00    -0.026 C 
HETATM   25  C1  UNL     1      35.087   3.739  45.344  1.00  0.00     0.036 C 
ENDBRANCH  20  23
ENDBRANCH   1  19
BRANCH   8  26
HETATM   26  O2  UNL     1      33.189   7.826  46.094  1.00  0.00    -0.348 OA
BRANCH  26  27
HETATM   27  C18 UNL     1      32.596   7.651  44.821  1.00  0.00     0.171 C 
HETATM   28  C19 UNL     1      33.323   6.644  43.979  1.00  0.00     0.034 C 
ENDBRANCH  26  27
ENDBRANCH   8  26
TORSDOF 6
ENDMDL
MODEL 8
REMARK VINA RESULT:      -7.5      4.328      7.928
REMARK  6 active torsions:
REMARK  status: ('A' for Active; 'I' for Inactive)
REMARK    1  A    between atoms: C3_3  and  C4_4 
REMARK       I    between atoms: C4_4  and  N1_6 
REMARK    2  A    between atoms: N1_6  and  C5_7 
REMARK    3  A    between atoms: C7_9  and  N2_10 
REMARK    4  A    between atoms: N2_10  and  C8_11 
REMARK    5  A    between atoms: C17_23  and  O2_24 
REMARK    6  A    between atoms: O2_24  and  C18_25 
ROOT
HETATM    1  C5  UNL     1      21.242   2.192  51.803  1.00  0.00     0.068 A 
HETATM    2  C6  UNL     1      21.970   3.301  51.725  1.00  0.00     0.043 A 
HETATM    3  C7  UNL     1      23.362   3.022  52.016  1.00  0.00     0.100 A 
HETATM    4  C14 UNL     1      23.983   3.517  53.258  1.00  0.00     0.189 C 
HETATM    5  N3  UNL     1      25.160   2.607  53.293  1.00  0.00    -0.298 NA
HETATM    6  C15 UNL     1      24.735   1.454  52.809  1.00  0.00     0.123 C 
HETATM    7  C16 UNL     1      23.298   1.533  52.443  1.00  0.00     0.028 A 
HETATM    8  C17 UNL     1      22.078   1.059  52.257  1.00  0.00     0.105 A 
ENDROOT
BRANCH   3   9
HETATM    9  N2  UNL     1      24.152   3.111  50.814  1.00  0.00    -0.371 N 
HETATM   10  H8  UNL     1      23.894   2.171  50.374  1.00  0.00     0.161 HD
BRANCH   9  11
HETATM   11  C8  UNL     1      25.065   3.889  50.073  1.00  0.00     0.030 A 
HETATM   12  C9  UNL     1      26.362   3.521  49.796  1.00  0.00     0.032 A 
HETATM   13  C10 UNL     1      27.265   4.260  49.060  1.00  0.00     0.046 A 
HETATM   14  C11 UNL     1      26.762   5.441  48.601  1.00  0.00     0.138 A 
HETATM   15  F1  UNL     1      27.541   6.261  47.866  1.00  0.00    -0.204 F 
HETATM   16  C12 UNL     1      25.492   5.873  48.834  1.00  0.00     0.074 A 
HETATM   17 CL1  UNL     1      24.919   7.405  48.211  1.00  0.00    -0.081 Cl
HETATM   18  C13 UNL     1      24.633   5.097  49.573  1.00  0.00     0.056 A 
ENDBRANCH   9  11
ENDBRANCH   3   9
BRANCH   1  19
HETATM   19  N1  UNL     1      19.853   1.841  51.621  1.00  0.00    -0.321 N 
HETATM   20  C4  UNL     1      19.360   1.210  50.449  1.00  0.00     0.245 C 
HETATM   21  O1  UNL     1      20.292   1.017  49.631  1.00  0.00    -0.268 OA
HETATM   22  H6  UNL     1      19.212   2.089  52.433  1.00  0.00     0.169 HD
BRANCH  20  23
HETATM   23  C3  UNL     1      17.957   0.871  50.298  1.00  0.00     0.070 C 
HETATM   24  C2  UNL     1      17.336  -0.022  51.026  1.00  0.00    -0.026 C 
HETATM   25  C1  UNL     1      17.772  -0.893  52.121  1.00  0.00     0.036 C 
ENDBRANCH  20  23
ENDBRANCH   1  19
BRANCH   8  26
HETATM   26  O2  UNL     1      21.850  -0.286  52.503  1.00  0.00    -0.348 OA
BRANCH  26  27
HETATM   27  C18 UNL     1      21.232  -0.662  53.719  1.00  0.00     0.171 C 
HETATM   28  C19 UNL     1      22.204  -1.241  54.706  1.00  0.00     0.034 C 
ENDBRANCH  26  27
ENDBRANCH   8  26
TORSDOF 6
ENDMDL
MODEL 9
REMARK VINA RESULT:      -7.3      3.340      5.216
REMARK  6 active torsions:
REMARK  status: ('A' for Active; 'I' for Inactive)
REMARK    1  A    between atoms: C3_3  and  C4_4 
REMARK       I    between atoms: C4_4  and  N1_6 
REMARK    2  A    between atoms: N1_6  and  C5_7 
REMARK    3  A    between atoms: C7_9  and  N2_10 
REMARK    4  A    between atoms: N2_10  and  C8_11 
REMARK    5  A    between atoms: C17_23  and  O2_24 
REMARK    6  A    between atoms: O2_24  and  C18_25 
ROOT
HETATM    1  C5  UNL     1      24.891   5.077  49.510  1.00  0.00     0.068 A 
HETATM    2  C6  UNL     1      24.846   4.679  50.777  1.00  0.00     0.043 A 
HETATM    3  C7  UNL     1      23.523   4.195  51.116  1.00  0.00     0.100 A 
HETATM    4  C14 UNL     1      22.659   4.955  52.038  1.00  0.00     0.189 C 
HETATM    5  N3  UNL     1      21.355   4.338  51.676  1.00  0.00    -0.298 NA
HETATM    6  C15 UNL     1      21.420   4.098  50.379  1.00  0.00     0.123 C 
HETATM    7  C16 UNL     1      22.728   4.532  49.828  1.00  0.00     0.028 A 
HETATM    8  C17 UNL     1      23.548   4.986  48.894  1.00  0.00     0.105 A 
ENDROOT
BRANCH   3   9
HETATM    9  N2  UNL     1      23.537   2.762  51.272  1.00  0.00    -0.371 N 
HETATM   10  H8  UNL     1      22.854   2.502  50.490  1.00  0.00     0.161 HD
BRANCH   9  11
HETATM   11  C8  UNL     1      24.052   1.674  52.005  1.00  0.00     0.030 A 
HETATM   12  C9  UNL     1      25.360   1.247  51.957  1.00  0.00     0.032 A 
HETATM   13  C10 UNL     1      25.887   0.195  52.677  1.00  0.00     0.046 A 
HETATM   14  C11 UNL     1      24.979  -0.428  53.481  1.00  0.00     0.138 A 
HETATM   15  F1  UNL     1      25.363  -1.475  54.241  1.00  0.00    -0.204 F 
HETATM   16  C12 UNL     1      23.670  -0.065  53.580  1.00  0.00     0.074 A 
HETATM   17 CL1  UNL     1      22.564  -0.916  54.636  1.00  0.00    -0.081 Cl
HETATM   18  C13 UNL     1      23.197   0.992  52.841  1.00  0.00     0.056 A 
ENDBRANCH   9  11
ENDBRANCH   3   9
BRANCH   1  19
HETATM   19  N1  UNL     1      25.889   5.627  48.624  1.00  0.00    -0.321 N 
HETATM   20  C4  UNL     1      26.533   6.871  48.859  1.00  0.00     0.245 C 
HETATM   21  O1  UNL     1      26.109   7.390  49.919  1.00  0.00    -0.268 OA
HETATM   22  H6  UNL     1      26.116   5.034  47.770  1.00  0.00     0.169 HD
BRANCH  20  23
HETATM   23  C3  UNL     1      27.533   7.396  47.947  1.00  0.00     0.070 C 
HETATM   24  C2  UNL     1      28.679   6.814  47.701  1.00  0.00    -0.026 C 
HETATM   25  C1  UNL     1      29.295   5.578  48.191  1.00  0.00     0.036 C 
ENDBRANCH  20  23
ENDBRANCH   1  19
BRANCH   8  26
HETATM   26  O2  UNL     1      23.028   5.260  47.639  1.00  0.00    -0.348 OA
BRANCH  26  27
HETATM   27  C18 UNL     1      22.549   6.564  47.367  1.00  0.00     0.171 C 
HETATM   28  C19 UNL     1      23.518   7.378  46.561  1.00  0.00     0.034 C 
ENDBRANCH  26  27
ENDBRANCH   8  26
TORSDOF 6
ENDMDL
