MODEL 1
REMARK VINA RESULT:      -6.2      0.000      0.000
REMARK  9 active torsions:
REMARK  status: ('A' for Active; 'I' for Inactive)
REMARK    1  A    between atoms: O1_2  and  C2_3 
REMARK    2  A    between atoms: C3_5  and  N2_6 
REMARK    3  A    between atoms: N2_6  and  C4_7 
REMARK    4  A    between atoms: C4_7  and  C5_8 
REMARK    5  A    between atoms: C5_8  and  C6_9 
REMARK    6  A    between atoms: C7_12  and  N4_13 
REMARK    7  A    between atoms: N4_13  and  C8_14 
REMARK    8  A    between atoms: C8_14  and  C9_15 
REMARK    9  A    between atoms: C9_15  and  N5_16 
ROOT
HETATM    1  C2  UNL     1      23.838  -0.939  54.794  1.00  0.00     0.302 A 
HETATM    2  N1  UNL     1      25.108  -0.973  55.198  1.00  0.00    -0.018 NA
HETATM    3  C3  UNL     1      26.070  -0.209  54.600  1.00  0.00     0.741 A 
HETATM    4  N3  UNL     1      25.713   0.592  53.578  1.00  0.00     0.130 NA
HETATM    5  C7  UNL     1      24.418   0.650  53.143  1.00  0.00     0.742 A 
HETATM    6  N6  UNL     1      23.535  -0.132  53.785  1.00  0.00    -0.018 NA
ENDROOT
BRANCH   5   7
HETATM    7  N4  UNL     1      23.999   1.475  52.082  1.00  0.00    -0.220 N 
HETATM    8  H11 UNL     1      24.153   1.117  51.103  1.00  0.00     0.177 HD
BRANCH   7   9
HETATM    9  C8  UNL     1      23.367   2.783  52.279  1.00  0.00     0.168 C 
BRANCH   9  10
HETATM   10  C9  UNL     1      24.108   3.776  51.415  1.00  0.00     0.292 C 
BRANCH  10  11
HETATM   11  N5  UNL     1      24.478   3.178  50.161  1.00  0.00     0.094 N 
HETATM   12  C10 UNL     1      23.566   3.614  49.106  1.00  0.00     0.298 C 
HETATM   13  C11 UNL     1      23.700   5.045  48.729  1.00  0.00     0.198 C 
HETATM   14  O2  UNL     1      24.685   5.734  49.380  1.00  0.00    -0.388 OA
HETATM   15  C12 UNL     1      25.883   5.100  49.564  1.00  0.00     0.198 C 
HETATM   16  C13 UNL     1      25.801   3.601  49.708  1.00  0.00     0.298 C 
ENDBRANCH  10  11
ENDBRANCH   9  10
ENDBRANCH   7   9
ENDBRANCH   5   7
BRANCH   3  17
HETATM   17  N2  UNL     1      27.387  -0.306  55.115  1.00  0.00    -0.222 N 
HETATM   18  H4  UNL     1      27.137  -0.779  56.036  1.00  0.00     0.177 HD
BRANCH  17  19
HETATM   19  C4  UNL     1      28.723   0.042  54.713  1.00  0.00     0.139 C 
BRANCH  19  20
HETATM   20  C5  UNL     1      29.079  -0.515  53.353  1.00  0.00     0.035 C 
BRANCH  20  21
HETATM   21  C6  UNL     1      29.149  -2.029  53.369  1.00  0.00     0.116 C 
HETATM   22 CL1  UNL     1      27.624  -2.620  52.628  1.00  0.00    -0.130 Cl
ENDBRANCH  20  21
ENDBRANCH  19  20
ENDBRANCH  17  19
ENDBRANCH   3  17
BRANCH   1  23
HETATM   23  O1  UNL     1      22.819  -1.706  55.379  1.00  0.00    -0.323 OA
HETATM   24  C1  UNL     1      21.578  -1.656  54.684  1.00  0.00     0.213 C 
ENDBRANCH   1  23
TORSDOF 9
ENDMDL
MODEL 2
REMARK VINA RESULT:      -6.1      3.441      5.861
REMARK  9 active torsions:
REMARK  status: ('A' for Active; 'I' for Inactive)
REMARK    1  A    between atoms: O1_2  and  C2_3 
REMARK    2  A    between atoms: C3_5  and  N2_6 
REMARK    3  A    between atoms: N2_6  and  C4_7 
REMARK    4  A    between atoms: C4_7  and  C5_8 
REMARK    5  A    between atoms: C5_8  and  C6_9 
REMARK    6  A    between atoms: C7_12  and  N4_13 
REMARK    7  A    between atoms: N4_13  and  C8_14 
REMARK    8  A    between atoms: C8_14  and  C9_15 
REMARK    9  A    between atoms: C9_15  and  N5_16 
ROOT
HETATM    1  C2  UNL     1      28.204   0.956  53.262  1.00  0.00     0.302 A 
HETATM    2  N1  UNL     1      28.024   2.011  52.467  1.00  0.00    -0.018 NA
HETATM    3  C3  UNL     1      26.840   2.223  51.818  1.00  0.00     0.741 A 
HETATM    4  N3  UNL     1      25.841   1.337  51.994  1.00  0.00     0.130 NA
HETATM    5  C7  UNL     1      25.997   0.247  52.804  1.00  0.00     0.742 A 
HETATM    6  N6  UNL     1      27.190   0.112  53.406  1.00  0.00    -0.018 NA
ENDROOT
BRANCH   5   7
HETATM    7  N4  UNL     1      24.980  -0.702  53.021  1.00  0.00    -0.220 N 
HETATM    8  H11 UNL     1      25.059  -1.619  52.507  1.00  0.00     0.177 HD
BRANCH   7   9
HETATM    9  C8  UNL     1      23.840  -0.474  53.914  1.00  0.00     0.168 C 
BRANCH   9  10
HETATM   10  C9  UNL     1      22.594  -0.464  53.062  1.00  0.00     0.292 C 
BRANCH  10  11
HETATM   11  N5  UNL     1      21.844   0.745  53.276  1.00  0.00     0.094 N 
HETATM   12  C10 UNL     1      22.450   1.850  52.535  1.00  0.00     0.298 C 
HETATM   13  C11 UNL     1      22.313   1.751  51.059  1.00  0.00     0.198 C 
HETATM   14  O2  UNL     1      21.601   0.675  50.607  1.00  0.00    -0.388 OA
HETATM   15  C12 UNL     1      20.464   0.339  51.287  1.00  0.00     0.198 C 
HETATM   16  C13 UNL     1      20.480   0.656  52.762  1.00  0.00     0.298 C 
ENDBRANCH  10  11
ENDBRANCH   9  10
ENDBRANCH   7   9
ENDBRANCH   5   7
BRANCH   3  17
HETATM   17  N2  UNL     1      26.745   3.383  51.010  1.00  0.00    -0.222 N 
HETATM   18  H4  UNL     1      27.209   4.059  51.688  1.00  0.00     0.177 HD
BRANCH  17  19
HETATM   19  C4  UNL     1      26.241   3.746  49.712  1.00  0.00     0.139 C 
BRANCH  19  20
HETATM   20  C5  UNL     1      27.256   4.515  48.896  1.00  0.00     0.035 C 
BRANCH  20  21
HETATM   21  C6  UNL     1      26.862   5.971  48.740  1.00  0.00     0.116 C 
HETATM   22 CL1  UNL     1      25.071   6.005  48.605  1.00  0.00    -0.130 Cl
ENDBRANCH  20  21
ENDBRANCH  19  20
ENDBRANCH  17  19
ENDBRANCH   3  17
BRANCH   1  23
HETATM   23  O1  UNL     1      29.402   0.699  53.947  1.00  0.00    -0.323 OA
HETATM   24  C1  UNL     1      29.897  -0.625  53.782  1.00  0.00     0.213 C 
ENDBRANCH   1  23
TORSDOF 9
ENDMDL
MODEL 3
REMARK VINA RESULT:      -6.1      2.668      4.578
REMARK  9 active torsions:
REMARK  status: ('A' for Active; 'I' for Inactive)
REMARK    1  A    between atoms: O1_2  and  C2_3 
REMARK    2  A    between atoms: C3_5  and  N2_6 
REMARK    3  A    between atoms: N2_6  and  C4_7 
REMARK    4  A    between atoms: C4_7  and  C5_8 
REMARK    5  A    between atoms: C5_8  and  C6_9 
REMARK    6  A    between atoms: C7_12  and  N4_13 
REMARK    7  A    between atoms: N4_13  and  C8_14 
REMARK    8  A    between atoms: C8_14  and  C9_15 
REMARK    9  A    between atoms: C9_15  and  N5_16 
ROOT
HETATM    1  C2  UNL     1      28.040   0.756  53.536  1.00  0.00     0.302 A 
HETATM    2  N1  UNL     1      26.925   0.074  53.799  1.00  0.00    -0.018 NA
HETATM    3  C3  UNL     1      25.735   0.393  53.209  1.00  0.00     0.741 A 
HETATM    4  N3  UNL     1      25.702   1.424  52.343  1.00  0.00     0.130 NA
HETATM    5  C7  UNL     1      26.829   2.140  52.052  1.00  0.00     0.742 A 
HETATM    6  N6  UNL     1      27.957   1.762  52.675  1.00  0.00    -0.018 NA
ENDROOT
BRANCH   5   7
HETATM    7  N4  UNL     1      26.842   3.222  51.151  1.00  0.00    -0.220 N 
HETATM    8  H11 UNL     1      27.446   4.049  51.400  1.00  0.00     0.177 HD
BRANCH   7   9
HETATM    9  C8  UNL     1      26.069   3.244  49.906  1.00  0.00     0.168 C 
BRANCH   9  10
HETATM   10  C9  UNL     1      25.338   4.565  49.853  1.00  0.00     0.292 C 
BRANCH  10  11
HETATM   11  N5  UNL     1      23.936   4.357  49.608  1.00  0.00     0.094 N 
HETATM   12  C10 UNL     1      23.351   3.552  50.678  1.00  0.00     0.298 C 
HETATM   13  C11 UNL     1      23.257   4.246  51.989  1.00  0.00     0.198 C 
HETATM   14  O2  UNL     1      23.679   5.546  51.997  1.00  0.00    -0.388 OA
HETATM   15  C12 UNL     1      23.327   6.331  50.934  1.00  0.00     0.198 C 
HETATM   16  C13 UNL     1      23.175   5.603  49.621  1.00  0.00     0.298 C 
ENDBRANCH  10  11
ENDBRANCH   9  10
ENDBRANCH   7   9
ENDBRANCH   5   7
BRANCH   3  17
HETATM   17  N2  UNL     1      24.613  -0.405  53.543  1.00  0.00    -0.222 N 
HETATM   18  H4  UNL     1      25.072  -0.965  54.323  1.00  0.00     0.177 HD
BRANCH  17  19
HETATM   19  C4  UNL     1      23.249  -0.568  53.117  1.00  0.00     0.139 C 
BRANCH  19  20
HETATM   20  C5  UNL     1      22.365   0.574  53.565  1.00  0.00     0.035 C 
BRANCH  20  21
HETATM   21  C6  UNL     1      21.239   0.092  54.460  1.00  0.00     0.116 C 
HETATM   22 CL1  UNL     1      21.310  -1.702  54.451  1.00  0.00    -0.130 Cl
ENDBRANCH  20  21
ENDBRANCH  19  20
ENDBRANCH  17  19
ENDBRANCH   3  17
BRANCH   1  23
HETATM   23  O1  UNL     1      29.282   0.464  54.120  1.00  0.00    -0.323 OA
HETATM   24  C1  UNL     1      29.850  -0.772  53.699  1.00  0.00     0.213 C 
ENDBRANCH   1  23
TORSDOF 9
ENDMDL
MODEL 4
REMARK VINA RESULT:      -5.8      2.525      4.450
REMARK  9 active torsions:
REMARK  status: ('A' for Active; 'I' for Inactive)
REMARK    1  A    between atoms: O1_2  and  C2_3 
REMARK    2  A    between atoms: C3_5  and  N2_6 
REMARK    3  A    between atoms: N2_6  and  C4_7 
REMARK    4  A    between atoms: C4_7  and  C5_8 
REMARK    5  A    between atoms: C5_8  and  C6_9 
REMARK    6  A    between atoms: C7_12  and  N4_13 
REMARK    7  A    between atoms: N4_13  and  C8_14 
REMARK    8  A    between atoms: C8_14  and  C9_15 
REMARK    9  A    between atoms: C9_15  and  N5_16 
ROOT
HETATM    1  C2  UNL     1      27.458  -0.124  53.971  1.00  0.00     0.302 A 
HETATM    2  N1  UNL     1      26.250  -0.670  54.114  1.00  0.00    -0.018 NA
HETATM    3  C3  UNL     1      25.149  -0.140  53.505  1.00  0.00     0.741 A 
HETATM    4  N3  UNL     1      25.300   0.962  52.746  1.00  0.00     0.130 NA
HETATM    5  C7  UNL     1      26.526   1.543  52.579  1.00  0.00     0.742 A 
HETATM    6  N6  UNL     1      27.558   0.959  53.211  1.00  0.00    -0.018 NA
ENDROOT
BRANCH   5   7
HETATM    7  N4  UNL     1      26.733   2.692  51.792  1.00  0.00    -0.220 N 
HETATM    8  H11 UNL     1      27.401   3.417  52.164  1.00  0.00     0.177 HD
BRANCH   7   9
HETATM    9  C8  UNL     1      26.073   2.916  50.503  1.00  0.00     0.168 C 
BRANCH   9  10
HETATM   10  C9  UNL     1      25.273   4.191  50.621  1.00  0.00     0.292 C 
BRANCH  10  11
HETATM   11  N5  UNL     1      24.104   3.981  51.432  1.00  0.00     0.094 N 
HETATM   12  C10 UNL     1      23.552   5.265  51.860  1.00  0.00     0.298 C 
HETATM   13  C11 UNL     1      22.937   6.066  50.770  1.00  0.00     0.198 C 
HETATM   14  O2  UNL     1      22.928   5.472  49.539  1.00  0.00    -0.388 OA
HETATM   15  C12 UNL     1      22.621   4.141  49.481  1.00  0.00     0.198 C 
HETATM   16  C13 UNL     1      23.020   3.338  50.695  1.00  0.00     0.298 C 
ENDBRANCH  10  11
ENDBRANCH   9  10
ENDBRANCH   7   9
ENDBRANCH   5   7
BRANCH   3  17
HETATM   17  N2  UNL     1      23.914  -0.805  53.708  1.00  0.00    -0.222 N 
HETATM   18  H4  UNL     1      23.905  -1.353  52.795  1.00  0.00     0.177 HD
BRANCH  17  19
HETATM   19  C4  UNL     1      22.881  -0.867  54.707  1.00  0.00     0.139 C 
BRANCH  19  20
HETATM   20  C5  UNL     1      21.505  -0.622  54.127  1.00  0.00     0.035 C 
BRANCH  20  21
HETATM   21  C6  UNL     1      21.457   0.663  53.324  1.00  0.00     0.116 C 
HETATM   22 CL1  UNL     1      21.188   0.187  51.613  1.00  0.00    -0.130 Cl
ENDBRANCH  20  21
ENDBRANCH  19  20
ENDBRANCH  17  19
ENDBRANCH   3  17
BRANCH   1  23
HETATM   23  O1  UNL     1      28.615  -0.635  54.579  1.00  0.00    -0.323 OA
HETATM   24  C1  UNL     1      29.774  -0.601  53.752  1.00  0.00     0.213 C 
ENDBRANCH   1  23
TORSDOF 9
ENDMDL
MODEL 5
REMARK VINA RESULT:      -5.8      1.953      2.634
REMARK  9 active torsions:
REMARK  status: ('A' for Active; 'I' for Inactive)
REMARK    1  A    between atoms: O1_2  and  C2_3 
REMARK    2  A    between atoms: C3_5  and  N2_6 
REMARK    3  A    between atoms: N2_6  and  C4_7 
REMARK    4  A    between atoms: C4_7  and  C5_8 
REMARK    5  A    between atoms: C5_8  and  C6_9 
REMARK    6  A    between atoms: C7_12  and  N4_13 
REMARK    7  A    between atoms: N4_13  and  C8_14 
REMARK    8  A    between atoms: C8_14  and  C9_15 
REMARK    9  A    between atoms: C9_15  and  N5_16 
ROOT
HETATM    1  C2  UNL     1      24.103   0.412  53.434  1.00  0.00     0.302 A 
HETATM    2  N1  UNL     1      25.329   0.849  53.724  1.00  0.00    -0.018 NA
HETATM    3  C3  UNL     1      25.687   2.153  53.533  1.00  0.00     0.741 A 
HETATM    4  N3  UNL     1      24.770   3.008  53.039  1.00  0.00     0.130 NA
HETATM    5  C7  UNL     1      23.505   2.588  52.735  1.00  0.00     0.742 A 
HETATM    6  N6  UNL     1      23.234   1.291  52.952  1.00  0.00    -0.018 NA
ENDROOT
BRANCH   5   7
HETATM    7  N4  UNL     1      22.513   3.445  52.220  1.00  0.00    -0.220 N 
HETATM    8  H11 UNL     1      21.622   3.000  51.878  1.00  0.00     0.177 HD
BRANCH   7   9
HETATM    9  C8  UNL     1      22.665   4.901  52.146  1.00  0.00     0.168 C 
BRANCH   9  10
HETATM   10  C9  UNL     1      22.837   5.263  50.690  1.00  0.00     0.292 C 
BRANCH  10  11
HETATM   11  N5  UNL     1      23.205   6.647  50.553  1.00  0.00     0.094 N 
HETATM   12  C10 UNL     1      24.620   6.826  50.873  1.00  0.00     0.298 C 
HETATM   13  C11 UNL     1      25.556   6.238  49.879  1.00  0.00     0.198 C 
HETATM   14  O2  UNL     1      24.967   5.663  48.788  1.00  0.00    -0.388 OA
HETATM   15  C12 UNL     1      23.906   6.315  48.224  1.00  0.00     0.198 C 
HETATM   16  C13 UNL     1      23.070   7.129  49.181  1.00  0.00     0.298 C 
ENDBRANCH  10  11
ENDBRANCH   9  10
ENDBRANCH   7   9
ENDBRANCH   5   7
BRANCH   3  17
HETATM   17  N2  UNL     1      27.009   2.521  53.888  1.00  0.00    -0.222 N 
HETATM   18  H4  UNL     1      26.761   3.117  54.734  1.00  0.00     0.177 HD
BRANCH  17  19
HETATM   19  C4  UNL     1      28.348   2.289  53.417  1.00  0.00     0.139 C 
BRANCH  19  20
HETATM   20  C5  UNL     1      29.204   1.582  54.444  1.00  0.00     0.035 C 
BRANCH  20  21
HETATM   21  C6  UNL     1      28.830   0.119  54.573  1.00  0.00     0.116 C 
HETATM   22 CL1  UNL     1      29.988  -0.798  53.551  1.00  0.00    -0.130 Cl
ENDBRANCH  20  21
ENDBRANCH  19  20
ENDBRANCH  17  19
ENDBRANCH   3  17
BRANCH   1  23
HETATM   23  O1  UNL     1      23.694  -0.918  53.614  1.00  0.00    -0.323 OA
HETATM   24  C1  UNL     1      22.706  -1.095  54.624  1.00  0.00     0.213 C 
ENDBRANCH   1  23
TORSDOF 9
ENDMDL
MODEL 6
REMARK VINA RESULT:      -5.7      2.715      4.191
REMARK  9 active torsions:
REMARK  status: ('A' for Active; 'I' for Inactive)
REMARK    1  A    between atoms: O1_2  and  C2_3 
REMARK    2  A    between atoms: C3_5  and  N2_6 
REMARK    3  A    between atoms: N2_6  and  C4_7 
REMARK    4  A    between atoms: C4_7  and  C5_8 
REMARK    5  A    between atoms: C5_8  and  C6_9 
REMARK    6  A    between atoms: C7_12  and  N4_13 
REMARK    7  A    between atoms: N4_13  and  C8_14 
REMARK    8  A    between atoms: C8_14  and  C9_15 
REMARK    9  A    between atoms: C9_15  and  N5_16 
ROOT
HETATM    1  C2  UNL     1      26.574   2.622  50.935  1.00  0.00     0.302 A 
HETATM    2  N1  UNL     1      27.452   2.569  51.937  1.00  0.00    -0.018 NA
HETATM    3  C3  UNL     1      27.110   2.072  53.162  1.00  0.00     0.741 A 
HETATM    4  N3  UNL     1      25.851   1.631  53.350  1.00  0.00     0.130 NA
HETATM    5  C7  UNL     1      24.930   1.671  52.342  1.00  0.00     0.742 A 
HETATM    6  N6  UNL     1      25.347   2.173  51.168  1.00  0.00    -0.018 NA
ENDROOT
BRANCH   5   7
HETATM    7  N4  UNL     1      23.605   1.218  52.490  1.00  0.00    -0.220 N 
HETATM    8  H11 UNL     1      23.462   0.183  52.626  1.00  0.00     0.177 HD
BRANCH   7   9
HETATM    9  C8  UNL     1      22.440   2.108  52.468  1.00  0.00     0.168 C 
BRANCH   9  10
HETATM   10  C9  UNL     1      21.666   1.805  51.207  1.00  0.00     0.292 C 
BRANCH  10  11
HETATM   11  N5  UNL     1      21.296   3.023  50.536  1.00  0.00     0.094 N 
HETATM   12  C10 UNL     1      22.451   3.584  49.837  1.00  0.00     0.298 C 
HETATM   13  C11 UNL     1      22.899   2.797  48.659  1.00  0.00     0.198 C 
HETATM   14  O2  UNL     1      22.143   1.697  48.365  1.00  0.00    -0.388 OA
HETATM   15  C12 UNL     1      20.785   1.820  48.458  1.00  0.00     0.198 C 
HETATM   16  C13 UNL     1      20.299   2.806  49.492  1.00  0.00     0.298 C 
ENDBRANCH  10  11
ENDBRANCH   9  10
ENDBRANCH   7   9
ENDBRANCH   5   7
BRANCH   3  17
HETATM   17  N2  UNL     1      28.121   2.044  54.155  1.00  0.00    -0.222 N 
HETATM   18  H4  UNL     1      27.804   2.904  54.696  1.00  0.00     0.177 HD
BRANCH  17  19
HETATM   19  C4  UNL     1      29.262   1.239  54.499  1.00  0.00     0.139 C 
BRANCH  19  20
HETATM   20  C5  UNL     1      28.956  -0.241  54.459  1.00  0.00     0.035 C 
BRANCH  20  21
HETATM   21  C6  UNL     1      29.809  -0.961  53.434  1.00  0.00     0.116 C 
HETATM   22 CL1  UNL     1      29.076  -2.584  53.206  1.00  0.00    -0.130 Cl
ENDBRANCH  20  21
ENDBRANCH  19  20
ENDBRANCH  17  19
ENDBRANCH   3  17
BRANCH   1  23
HETATM   23  O1  UNL     1      26.882   3.124  49.662  1.00  0.00    -0.323 OA
HETATM   24  C1  UNL     1      26.307   4.396  49.379  1.00  0.00     0.213 C 
ENDBRANCH   1  23
TORSDOF 9
ENDMDL
MODEL 7
REMARK VINA RESULT:      -5.7      1.921      2.532
REMARK  9 active torsions:
REMARK  status: ('A' for Active; 'I' for Inactive)
REMARK    1  A    between atoms: O1_2  and  C2_3 
REMARK    2  A    between atoms: C3_5  and  N2_6 
REMARK    3  A    between atoms: N2_6  and  C4_7 
REMARK    4  A    between atoms: C4_7  and  C5_8 
REMARK    5  A    between atoms: C5_8  and  C6_9 
REMARK    6  A    between atoms: C7_12  and  N4_13 
REMARK    7  A    between atoms: N4_13  and  C8_14 
REMARK    8  A    between atoms: C8_14  and  C9_15 
REMARK    9  A    between atoms: C9_15  and  N5_16 
ROOT
HETATM    1  C2  UNL     1      25.001  -0.162  54.368  1.00  0.00     0.302 A 
HETATM    2  N1  UNL     1      26.056   0.646  54.472  1.00  0.00    -0.018 NA
HETATM    3  C3  UNL     1      26.222   1.717  53.640  1.00  0.00     0.741 A 
HETATM    4  N3  UNL     1      25.289   1.949  52.696  1.00  0.00     0.130 NA
HETATM    5  C7  UNL     1      24.196   1.139  52.567  1.00  0.00     0.742 A 
HETATM    6  N6  UNL     1      24.108   0.109  53.425  1.00  0.00    -0.018 NA
ENDROOT
BRANCH   5   7
HETATM    7  N4  UNL     1      23.195   1.346  51.599  1.00  0.00    -0.220 N 
HETATM    8  H11 UNL     1      23.412   1.052  50.611  1.00  0.00     0.177 HD
BRANCH   7   9
HETATM    9  C8  UNL     1      21.889   1.938  51.903  1.00  0.00     0.168 C 
BRANCH   9  10
HETATM   10  C9  UNL     1      21.686   3.094  50.953  1.00  0.00     0.292 C 
BRANCH  10  11
HETATM   11  N5  UNL     1      21.401   4.303  51.680  1.00  0.00     0.094 N 
HETATM   12  C10 UNL     1      22.574   4.715  52.450  1.00  0.00     0.298 C 
HETATM   13  C11 UNL     1      23.711   5.202  51.627  1.00  0.00     0.198 C 
HETATM   14  O2  UNL     1      23.484   5.245  50.280  1.00  0.00    -0.388 OA
HETATM   15  C12 UNL     1      22.266   5.701  49.858  1.00  0.00     0.198 C 
HETATM   16  C13 UNL     1      21.119   5.433  50.799  1.00  0.00     0.298 C 
ENDBRANCH  10  11
ENDBRANCH   9  10
ENDBRANCH   7   9
ENDBRANCH   5   7
BRANCH   3  17
HETATM   17  N2  UNL     1      27.369   2.523  53.843  1.00  0.00    -0.222 N 
HETATM   18  H4  UNL     1      26.863   3.394  54.189  1.00  0.00     0.177 HD
BRANCH  17  19
HETATM   19  C4  UNL     1      28.796   2.413  53.699  1.00  0.00     0.139 C 
BRANCH  19  20
HETATM   20  C5  UNL     1      29.355   1.208  54.421  1.00  0.00     0.035 C 
BRANCH  20  21
HETATM   21  C6  UNL     1      29.935   0.195  53.453  1.00  0.00     0.116 C 
HETATM   22 CL1  UNL     1      28.781  -1.180  53.398  1.00  0.00    -0.130 Cl
ENDBRANCH  20  21
ENDBRANCH  19  20
ENDBRANCH  17  19
ENDBRANCH   3  17
BRANCH   1  23
HETATM   23  O1  UNL     1      24.792  -1.273  55.200  1.00  0.00    -0.323 OA
HETATM   24  C1  UNL     1      23.433  -1.477  55.573  1.00  0.00     0.213 C 
ENDBRANCH   1  23
TORSDOF 9
ENDMDL
MODEL 8
REMARK VINA RESULT:      -5.7      2.529      6.471
REMARK  9 active torsions:
REMARK  status: ('A' for Active; 'I' for Inactive)
REMARK    1  A    between atoms: O1_2  and  C2_3 
REMARK    2  A    between atoms: C3_5  and  N2_6 
REMARK    3  A    between atoms: N2_6  and  C4_7 
REMARK    4  A    between atoms: C4_7  and  C5_8 
REMARK    5  A    between atoms: C5_8  and  C6_9 
REMARK    6  A    between atoms: C7_12  and  N4_13 
REMARK    7  A    between atoms: N4_13  and  C8_14 
REMARK    8  A    between atoms: C8_14  and  C9_15 
REMARK    9  A    between atoms: C9_15  and  N5_16 
ROOT
HETATM    1  C2  UNL     1      22.355   4.322  50.931  1.00  0.00     0.302 A 
HETATM    2  N1  UNL     1      21.685   3.276  51.416  1.00  0.00    -0.018 NA
HETATM    3  C3  UNL     1      22.330   2.209  51.974  1.00  0.00     0.741 A 
HETATM    4  N3  UNL     1      23.676   2.227  52.027  1.00  0.00     0.130 NA
HETATM    5  C7  UNL     1      24.389   3.285  51.538  1.00  0.00     0.742 A 
HETATM    6  N6  UNL     1      23.679   4.294  51.008  1.00  0.00    -0.018 NA
ENDROOT
BRANCH   5   7
HETATM    7  N4  UNL     1      25.796   3.349  51.576  1.00  0.00    -0.220 N 
HETATM    8  H11 UNL     1      26.230   4.269  51.850  1.00  0.00     0.177 HD
BRANCH   7   9
HETATM    9  C8  UNL     1      26.663   2.211  51.258  1.00  0.00     0.168 C 
BRANCH   9  10
HETATM   10  C9  UNL     1      27.216   1.687  52.561  1.00  0.00     0.292 C 
BRANCH  10  11
HETATM   11  N5  UNL     1      27.219   0.248  52.568  1.00  0.00     0.094 N 
HETATM   12  C10 UNL     1      28.451  -0.249  53.177  1.00  0.00     0.298 C 
HETATM   13  C11 UNL     1      28.555  -0.011  54.641  1.00  0.00     0.198 C 
HETATM   14  O2  UNL     1      27.469   0.590  55.215  1.00  0.00    -0.388 OA
HETATM   15  C12 UNL     1      26.230   0.174  54.814  1.00  0.00     0.198 C 
HETATM   16  C13 UNL     1      26.147  -0.310  53.387  1.00  0.00     0.298 C 
ENDBRANCH  10  11
ENDBRANCH   9  10
ENDBRANCH   7   9
ENDBRANCH   5   7
BRANCH   3  17
HETATM   17  N2  UNL     1      21.526   1.156  52.475  1.00  0.00    -0.222 N 
HETATM   18  H4  UNL     1      21.658   0.485  51.659  1.00  0.00     0.177 HD
BRANCH  17  19
HETATM   19  C4  UNL     1      20.727   0.878  53.639  1.00  0.00     0.139 C 
BRANCH  19  20
HETATM   20  C5  UNL     1      20.899  -0.542  54.129  1.00  0.00     0.035 C 
BRANCH  20  21
HETATM   21  C6  UNL     1      22.296  -1.063  53.855  1.00  0.00     0.116 C 
HETATM   22 CL1  UNL     1      23.039  -1.402  55.454  1.00  0.00    -0.130 Cl
ENDBRANCH  20  21
ENDBRANCH  19  20
ENDBRANCH  17  19
ENDBRANCH   3  17
BRANCH   1  23
HETATM   23  O1  UNL     1      21.732   5.437  50.350  1.00  0.00    -0.323 OA
HETATM   24  C1  UNL     1      21.505   5.317  48.949  1.00  0.00     0.213 C 
ENDBRANCH   1  23
TORSDOF 9
ENDMDL
MODEL 9
REMARK VINA RESULT:      -5.5      3.573      6.842
REMARK  9 active torsions:
REMARK  status: ('A' for Active; 'I' for Inactive)
REMARK    1  A    between atoms: O1_2  and  C2_3 
REMARK    2  A    between atoms: C3_5  and  N2_6 
REMARK    3  A    between atoms: N2_6  and  C4_7 
REMARK    4  A    between atoms: C4_7  and  C5_8 
REMARK    5  A    between atoms: C5_8  and  C6_9 
REMARK    6  A    between atoms: C7_12  and  N4_13 
REMARK    7  A    between atoms: N4_13  and  C8_14 
REMARK    8  A    between atoms: C8_14  and  C9_15 
REMARK    9  A    between atoms: C9_15  and  N5_16 
ROOT
HETATM    1  C2  UNL     1      21.972  -0.028  52.289  1.00  0.00     0.302 A 
HETATM    2  N1  UNL     1      21.314   0.223  51.157  1.00  0.00    -0.018 NA
HETATM    3  C3  UNL     1      21.797   1.100  50.228  1.00  0.00     0.741 A 
HETATM    4  N3  UNL     1      22.967   1.721  50.475  1.00  0.00     0.130 NA
HETATM    5  C7  UNL     1      23.665   1.482  51.626  1.00  0.00     0.742 A 
HETATM    6  N6  UNL     1      23.121   0.606  52.486  1.00  0.00    -0.018 NA
ENDROOT
BRANCH   5   7
HETATM    7  N4  UNL     1      24.892   2.103  51.924  1.00  0.00    -0.220 N 
HETATM    8  H11 UNL     1      24.870   2.920  52.589  1.00  0.00     0.177 HD
BRANCH   7   9
HETATM    9  C8  UNL     1      26.174   1.669  51.362  1.00  0.00     0.168 C 
BRANCH   9  10
HETATM   10  C9  UNL     1      27.103   1.391  52.519  1.00  0.00     0.292 C 
BRANCH  10  11
HETATM   11  N5  UNL     1      27.302  -0.025  52.680  1.00  0.00     0.094 N 
HETATM   12  C10 UNL     1      28.572  -0.281  53.357  1.00  0.00     0.298 C 
HETATM   13  C11 UNL     1      28.600   0.121  54.788  1.00  0.00     0.198 C 
HETATM   14  O2  UNL     1      27.427   0.621  55.279  1.00  0.00    -0.388 OA
HETATM   15  C12 UNL     1      26.268  -0.001  54.906  1.00  0.00     0.198 C 
HETATM   16  C13 UNL     1      26.293  -0.638  53.539  1.00  0.00     0.298 C 
ENDBRANCH  10  11
ENDBRANCH   9  10
ENDBRANCH   7   9
ENDBRANCH   5   7
BRANCH   3  17
HETATM   17  N2  UNL     1      21.030   1.285  49.051  1.00  0.00    -0.222 N 
HETATM   18  H4  UNL     1      21.041   0.272  48.722  1.00  0.00     0.177 HD
BRANCH  17  19
HETATM   19  C4  UNL     1      20.373   2.360  48.357  1.00  0.00     0.139 C 
BRANCH  19  20
HETATM   20  C5  UNL     1      19.263   2.980  49.175  1.00  0.00     0.035 C 
BRANCH  20  21
HETATM   21  C6  UNL     1      19.727   4.237  49.886  1.00  0.00     0.116 C 
HETATM   22 CL1  UNL     1      19.857   3.822  51.628  1.00  0.00    -0.130 Cl
ENDBRANCH  20  21
ENDBRANCH  19  20
ENDBRANCH  17  19
ENDBRANCH   3  17
BRANCH   1  23
HETATM   23  O1  UNL     1      21.513  -0.920  53.270  1.00  0.00    -0.323 OA
HETATM   24  C1  UNL     1      21.464  -0.372  54.583  1.00  0.00     0.213 C 
ENDBRANCH   1  23
TORSDOF 9
ENDMDL
