MODEL 1
REMARK VINA RESULT:      -8.8      0.000      0.000
REMARK  4 active torsions:
REMARK  status: ('A' for Active; 'I' for Inactive)
REMARK    1  A    between atoms: C2_2  and  C3_3 
REMARK    2  A    between atoms: C3_3  and  C4_4 
REMARK    3  A    between atoms: N1_8  and  C8_9 
REMARK    4  A    between atoms: C9_11  and  O1_12 
ROOT
HETATM    1  C4  UNL     1      23.522   1.077  51.969  1.00  0.00     0.037 C 
HETATM    2  C5  UNL     1      24.298   1.078  53.247  1.00  0.00     0.037 C 
HETATM    3  C6  UNL     1      25.342  -0.002  53.346  1.00  0.00     0.109 C 
HETATM    4  C7  UNL     1      25.334  -0.517  54.761  1.00  0.00     0.034 C 
HETATM    5  N1  UNL     1      26.643   0.498  52.946  1.00  0.00    -0.242 N 
HETATM    6  N3  UNL     1      27.123   1.671  52.364  1.00  0.00    -0.182 NA
HETATM    7  C11 UNL     1      26.598   2.539  51.543  1.00  0.00     0.150 C 
HETATM    8  C12 UNL     1      25.302   2.708  50.855  1.00  0.00    -0.010 A 
HETATM    9  C13 UNL     1      25.596   3.653  49.922  1.00  0.00     0.015 A 
HETATM   10  C14 UNL     1      24.590   4.053  49.086  1.00  0.00     0.024 A 
HETATM   11  C15 UNL     1      23.339   3.489  49.225  1.00  0.00     0.034 A 
HETATM   12 CL1  UNL     1      21.990   3.951  48.188  1.00  0.00    -0.084 Cl
HETATM   13  C16 UNL     1      23.066   2.533  50.179  1.00  0.00     0.032 A 
HETATM   14  C17 UNL     1      24.067   2.119  51.027  1.00  0.00    -0.039 A 
ENDROOT
BRANCH   5  15
HETATM   15  C8  UNL     1      27.728  -0.393  53.184  1.00  0.00     0.192 A 
HETATM   16  N2  UNL     1      27.820  -1.693  53.134  1.00  0.00    -0.198 NA
HETATM   17  C9  UNL     1      29.013  -2.205  53.425  1.00  0.00     0.171 A 
HETATM   18  C10 UNL     1      30.119  -1.401  53.768  1.00  0.00     0.111 A 
HETATM   19  S1  UNL     1      29.351   0.232  53.657  1.00  0.00    -0.058 SA
BRANCH  17  20
HETATM   20  O1  UNL     1      28.961  -3.615  53.329  1.00  0.00    -0.344 OA
HETATM   21  H11 UNL     1      29.712  -4.140  52.895  1.00  0.00     0.219 HD
ENDBRANCH  17  20
ENDBRANCH   5  15
BRANCH   1  22
HETATM   22  C3  UNL     1      22.130   1.427  52.229  1.00  0.00     0.076 C 
BRANCH  22  23
HETATM   23  C2  UNL     1      21.432   0.756  53.134  1.00  0.00    -0.175 C 
HETATM   24  C1  UNL     1      20.852   0.270  54.220  1.00  0.00     0.091 C 
ENDBRANCH  22  23
ENDBRANCH   1  22
TORSDOF 4
ENDMDL
MODEL 2
REMARK VINA RESULT:      -7.8      4.232      6.351
REMARK  4 active torsions:
REMARK  status: ('A' for Active; 'I' for Inactive)
REMARK    1  A    between atoms: C2_2  and  C3_3 
REMARK    2  A    between atoms: C3_3  and  C4_4 
REMARK    3  A    between atoms: N1_8  and  C8_9 
REMARK    4  A    between atoms: C9_11  and  O1_12 
ROOT
HETATM    1  C4  UNL     1      22.542   1.606  51.573  1.00  0.00     0.037 C 
HETATM    2  C5  UNL     1      23.098   1.991  50.239  1.00  0.00     0.037 C 
HETATM    3  C6  UNL     1      23.464   3.446  50.110  1.00  0.00     0.109 C 
HETATM    4  C7  UNL     1      23.074   3.894  48.726  1.00  0.00     0.034 C 
HETATM    5  N1  UNL     1      24.873   3.651  50.383  1.00  0.00    -0.242 N 
HETATM    6  N3  UNL     1      25.918   2.866  50.869  1.00  0.00    -0.182 NA
HETATM    7  C11 UNL     1      25.964   1.849  51.686  1.00  0.00     0.150 C 
HETATM    8  C12 UNL     1      24.987   1.062  52.466  1.00  0.00    -0.010 A 
HETATM    9  C13 UNL     1      25.790   0.382  53.326  1.00  0.00     0.015 A 
HETATM   10  C14 UNL     1      25.192  -0.465  54.219  1.00  0.00     0.024 A 
HETATM   11  C15 UNL     1      23.818  -0.590  54.206  1.00  0.00     0.034 A 
HETATM   12 CL1  UNL     1      22.970  -1.659  55.322  1.00  0.00    -0.084 Cl
HETATM   13  C16 UNL     1      23.025   0.111  53.323  1.00  0.00     0.032 A 
HETATM   14  C17 UNL     1      23.612   0.966  52.418  1.00  0.00    -0.039 A 
ENDROOT
BRANCH   5  15
HETATM   15  C8  UNL     1      25.354   4.962  50.103  1.00  0.00     0.192 A 
HETATM   16  N2  UNL     1      25.017   6.134  50.562  1.00  0.00    -0.198 NA
HETATM   17  C9  UNL     1      25.690   7.170  50.067  1.00  0.00     0.171 A 
HETATM   18  C10 UNL     1      26.708   7.022  49.104  1.00  0.00     0.111 A 
HETATM   19  S1  UNL     1      26.677   5.224  48.907  1.00  0.00    -0.058 SA
BRANCH  17  20
HETATM   20  O1  UNL     1      25.218   8.368  50.655  1.00  0.00    -0.344 OA
HETATM   21  H11 UNL     1      25.046   8.431  51.651  1.00  0.00     0.219 HD
ENDBRANCH  17  20
ENDBRANCH   5  15
BRANCH   1  22
HETATM   22  C3  UNL     1      21.483   0.617  51.407  1.00  0.00     0.076 C 
BRANCH  22  23
HETATM   23  C2  UNL     1      20.363   0.939  50.776  1.00  0.00    -0.175 C 
HETATM   24  C1  UNL     1      19.383   1.166  49.916  1.00  0.00     0.091 C 
ENDBRANCH  22  23
ENDBRANCH   1  22
TORSDOF 4
ENDMDL
MODEL 3
REMARK VINA RESULT:      -7.6      4.179      6.331
REMARK  4 active torsions:
REMARK  status: ('A' for Active; 'I' for Inactive)
REMARK    1  A    between atoms: C2_2  and  C3_3 
REMARK    2  A    between atoms: C3_3  and  C4_4 
REMARK    3  A    between atoms: N1_8  and  C8_9 
REMARK    4  A    between atoms: C9_11  and  O1_12 
ROOT
HETATM    1  C4  UNL     1      23.384   1.833  51.722  1.00  0.00     0.037 C 
HETATM    2  C5  UNL     1      23.686   2.162  50.295  1.00  0.00     0.037 C 
HETATM    3  C6  UNL     1      24.045   3.603  50.047  1.00  0.00     0.109 C 
HETATM    4  C7  UNL     1      23.410   4.015  48.745  1.00  0.00     0.034 C 
HETATM    5  N1  UNL     1      25.484   3.785  50.044  1.00  0.00    -0.242 N 
HETATM    6  N3  UNL     1      26.588   2.992  50.354  1.00  0.00    -0.182 NA
HETATM    7  C11 UNL     1      26.770   2.002  51.184  1.00  0.00     0.150 C 
HETATM    8  C12 UNL     1      25.944   1.263  52.160  1.00  0.00    -0.010 A 
HETATM    9  C13 UNL     1      26.884   0.593  52.880  1.00  0.00     0.015 A 
HETATM   10  C14 UNL     1      26.450  -0.210  53.898  1.00  0.00     0.024 A 
HETATM   11  C15 UNL     1      25.096  -0.305  54.147  1.00  0.00     0.034 A 
HETATM   12 CL1  UNL     1      24.456  -1.318  55.440  1.00  0.00    -0.084 Cl
HETATM   13  C16 UNL     1      24.163   0.384  53.403  1.00  0.00     0.032 A 
HETATM   14  C17 UNL     1      24.583   1.197  52.375  1.00  0.00    -0.039 A 
ENDROOT
BRANCH   5  15
HETATM   15  C8  UNL     1      25.924   5.074  49.631  1.00  0.00     0.192 A 
HETATM   16  N2  UNL     1      26.801   5.458  48.747  1.00  0.00    -0.198 NA
HETATM   17  C9  UNL     1      26.965   6.772  48.619  1.00  0.00     0.171 A 
HETATM   18  C10 UNL     1      26.239   7.704  49.388  1.00  0.00     0.111 A 
HETATM   19  S1  UNL     1      25.239   6.566  50.376  1.00  0.00    -0.058 SA
BRANCH  17  20
HETATM   20  O1  UNL     1      27.941   7.036  47.630  1.00  0.00    -0.344 OA
HETATM   21  H11 UNL     1      27.895   7.869  47.056  1.00  0.00     0.219 HD
ENDBRANCH  17  20
ENDBRANCH   5  15
BRANCH   1  22
HETATM   22  C3  UNL     1      22.298   0.863  51.792  1.00  0.00     0.076 C 
BRANCH  22  23
HETATM   23  C2  UNL     1      21.384   0.814  50.833  1.00  0.00    -0.175 C 
HETATM   24  C1  UNL     1      20.419   1.033  49.954  1.00  0.00     0.091 C 
ENDBRANCH  22  23
ENDBRANCH   1  22
TORSDOF 4
ENDMDL
MODEL 4
REMARK VINA RESULT:      -7.5      5.017      7.664
REMARK  4 active torsions:
REMARK  status: ('A' for Active; 'I' for Inactive)
REMARK    1  A    between atoms: C2_2  and  C3_3 
REMARK    2  A    between atoms: C3_3  and  C4_4 
REMARK    3  A    between atoms: N1_8  and  C8_9 
REMARK    4  A    between atoms: C9_11  and  O1_12 
ROOT
HETATM    1  C4  UNL     1      24.953   2.243  51.012  1.00  0.00     0.037 C 
HETATM    2  C5  UNL     1      24.059   3.355  51.461  1.00  0.00     0.037 C 
HETATM    3  C6  UNL     1      22.677   3.325  50.865  1.00  0.00     0.109 C 
HETATM    4  C7  UNL     1      22.277   4.745  50.565  1.00  0.00     0.034 C 
HETATM    5  N1  UNL     1      21.744   2.664  51.757  1.00  0.00    -0.242 N 
HETATM    6  N3  UNL     1      21.846   1.935  52.942  1.00  0.00    -0.182 NA
HETATM    7  C11 UNL     1      22.779   1.175  53.445  1.00  0.00     0.150 C 
HETATM    8  C12 UNL     1      24.126   0.726  53.034  1.00  0.00    -0.010 A 
HETATM    9  C13 UNL     1      24.360  -0.299  53.896  1.00  0.00     0.015 A 
HETATM   10  C14 UNL     1      25.554  -0.958  53.788  1.00  0.00     0.024 A 
HETATM   11  C15 UNL     1      26.455  -0.559  52.822  1.00  0.00     0.034 A 
HETATM   12 CL1  UNL     1      28.014  -1.357  52.618  1.00  0.00    -0.084 Cl
HETATM   13  C16 UNL     1      26.193   0.483  51.960  1.00  0.00     0.032 A 
HETATM   14  C17 UNL     1      24.997   1.157  52.056  1.00  0.00    -0.039 A 
ENDROOT
BRANCH   5  15
HETATM   15  C8  UNL     1      20.377   2.752  51.368  1.00  0.00     0.192 A 
HETATM   16  N2  UNL     1      19.338   3.295  51.938  1.00  0.00    -0.198 NA
HETATM   17  C9  UNL     1      18.187   3.186  51.280  1.00  0.00     0.171 A 
HETATM   18  C10 UNL     1      18.084   2.525  50.039  1.00  0.00     0.111 A 
HETATM   19  S1  UNL     1      19.808   2.024  49.821  1.00  0.00    -0.058 SA
BRANCH  17  20
HETATM   20  O1  UNL     1      17.157   3.819  52.015  1.00  0.00    -0.344 OA
HETATM   21  H11 UNL     1      16.242   3.396  52.105  1.00  0.00     0.219 HD
ENDBRANCH  17  20
ENDBRANCH   5  15
BRANCH   1  22
HETATM   22  C3  UNL     1      26.318   2.733  50.851  1.00  0.00     0.076 C 
BRANCH  22  23
HETATM   23  C2  UNL     1      26.614   3.570  49.867  1.00  0.00    -0.175 C 
HETATM   24  C1  UNL     1      27.159   4.428  49.020  1.00  0.00     0.091 C 
ENDBRANCH  22  23
ENDBRANCH   1  22
TORSDOF 4
ENDMDL
MODEL 5
REMARK VINA RESULT:      -7.4      5.691      7.638
REMARK  4 active torsions:
REMARK  status: ('A' for Active; 'I' for Inactive)
REMARK    1  A    between atoms: C2_2  and  C3_3 
REMARK    2  A    between atoms: C3_3  and  C4_4 
REMARK    3  A    between atoms: N1_8  and  C8_9 
REMARK    4  A    between atoms: C9_11  and  O1_12 
ROOT
HETATM    1  C4  UNL     1      22.559   0.852  52.664  1.00  0.00     0.037 C 
HETATM    2  C5  UNL     1      21.378   0.267  51.956  1.00  0.00     0.037 C 
HETATM    3  C6  UNL     1      20.093   1.025  52.153  1.00  0.00     0.109 C 
HETATM    4  C7  UNL     1      18.984   0.016  52.292  1.00  0.00     0.034 C 
HETATM    5  N1  UNL     1      19.866   1.951  51.060  1.00  0.00    -0.242 N 
HETATM    6  N3  UNL     1      20.607   2.405  49.970  1.00  0.00    -0.182 NA
HETATM    7  C11 UNL     1      21.886   2.561  49.764  1.00  0.00     0.150 C 
HETATM    8  C12 UNL     1      23.125   2.347  50.539  1.00  0.00    -0.010 A 
HETATM    9  C13 UNL     1      24.043   3.030  49.804  1.00  0.00     0.015 A 
HETATM   10  C14 UNL     1      25.335   3.041  50.253  1.00  0.00     0.024 A 
HETATM   11  C15 UNL     1      25.646   2.366  51.415  1.00  0.00     0.034 A 
HETATM   12 CL1  UNL     1      27.287   2.330  52.059  1.00  0.00    -0.084 Cl
HETATM   13  C16 UNL     1      24.698   1.680  52.142  1.00  0.00     0.032 A 
HETATM   14  C17 UNL     1      23.393   1.660  51.704  1.00  0.00    -0.039 A 
ENDROOT
BRANCH   5  15
HETATM   15  C8  UNL     1      18.586   2.576  51.060  1.00  0.00     0.192 A 
HETATM   16  N2  UNL     1      17.978   3.325  51.935  1.00  0.00    -0.198 NA
HETATM   17  C9  UNL     1      16.761   3.745  51.599  1.00  0.00     0.171 A 
HETATM   18  C10 UNL     1      16.154   3.406  50.373  1.00  0.00     0.111 A 
HETATM   19  S1  UNL     1      17.470   2.393  49.656  1.00  0.00    -0.058 SA
BRANCH  17  20
HETATM   20  O1  UNL     1      16.229   4.543  52.639  1.00  0.00    -0.344 OA
HETATM   21  H11 UNL     1      16.801   4.833  53.423  1.00  0.00     0.219 HD
ENDBRANCH  17  20
ENDBRANCH   5  15
BRANCH   1  22
HETATM   22  C3  UNL     1      23.413  -0.213  53.176  1.00  0.00     0.076 C 
BRANCH  22  23
HETATM   23  C2  UNL     1      23.155  -0.767  54.352  1.00  0.00    -0.175 C 
HETATM   24  C1  UNL     1      22.954  -1.564  55.390  1.00  0.00     0.091 C 
ENDBRANCH  22  23
ENDBRANCH   1  22
TORSDOF 4
ENDMDL
MODEL 6
REMARK VINA RESULT:      -7.2      4.940      7.461
REMARK  4 active torsions:
REMARK  status: ('A' for Active; 'I' for Inactive)
REMARK    1  A    between atoms: C2_2  and  C3_3 
REMARK    2  A    between atoms: C3_3  and  C4_4 
REMARK    3  A    between atoms: N1_8  and  C8_9 
REMARK    4  A    between atoms: C9_11  and  O1_12 
ROOT
HETATM    1  C4  UNL     1      24.271   1.432  51.689  1.00  0.00     0.037 C 
HETATM    2  C5  UNL     1      24.441   2.869  51.311  1.00  0.00     0.037 C 
HETATM    3  C6  UNL     1      24.124   3.179  49.872  1.00  0.00     0.109 C 
HETATM    4  C7  UNL     1      25.134   4.186  49.388  1.00  0.00     0.034 C 
HETATM    5  N1  UNL     1      22.760   3.652  49.733  1.00  0.00    -0.242 N 
HETATM    6  N3  UNL     1      21.650   3.747  50.572  1.00  0.00    -0.182 NA
HETATM    7  C11 UNL     1      21.246   3.054  51.600  1.00  0.00     0.150 C 
HETATM    8  C12 UNL     1      21.736   1.881  52.354  1.00  0.00    -0.010 A 
HETATM    9  C13 UNL     1      20.641   1.532  53.081  1.00  0.00     0.015 A 
HETATM   10  C14 UNL     1      20.749   0.451  53.912  1.00  0.00     0.024 A 
HETATM   11  C15 UNL     1      21.948  -0.228  53.976  1.00  0.00     0.034 A 
HETATM   12 CL1  UNL     1      22.169  -1.629  55.022  1.00  0.00    -0.084 Cl
HETATM   13  C16 UNL     1      23.044   0.146  53.229  1.00  0.00     0.032 A 
HETATM   14  C17 UNL     1      22.951   1.231  52.388  1.00  0.00    -0.039 A 
ENDROOT
BRANCH   5  15
HETATM   15  C8  UNL     1      22.426   4.149  48.442  1.00  0.00     0.192 A 
HETATM   16  N2  UNL     1      22.354   3.575  47.274  1.00  0.00    -0.198 NA
HETATM   17  C9  UNL     1      22.004   4.358  46.258  1.00  0.00     0.171 A 
HETATM   18  C10 UNL     1      21.725   5.730  46.421  1.00  0.00     0.111 A 
HETATM   19  S1  UNL     1      21.996   5.884  48.203  1.00  0.00    -0.058 SA
BRANCH  17  20
HETATM   20  O1  UNL     1      21.969   3.601  45.064  1.00  0.00    -0.344 OA
HETATM   21  H11 UNL     1      21.434   2.743  45.002  1.00  0.00     0.219 HD
ENDBRANCH  17  20
ENDBRANCH   5  15
BRANCH   1  22
HETATM   22  C3  UNL     1      25.314   1.035  52.628  1.00  0.00     0.076 C 
BRANCH  22  23
HETATM   23  C2  UNL     1      26.447   1.719  52.693  1.00  0.00    -0.175 C 
HETATM   24  C1  UNL     1      27.653   2.201  52.948  1.00  0.00     0.091 C 
ENDBRANCH  22  23
ENDBRANCH   1  22
TORSDOF 4
ENDMDL
MODEL 7
REMARK VINA RESULT:      -7.1      5.202      8.031
REMARK  4 active torsions:
REMARK  status: ('A' for Active; 'I' for Inactive)
REMARK    1  A    between atoms: C2_2  and  C3_3 
REMARK    2  A    between atoms: C3_3  and  C4_4 
REMARK    3  A    between atoms: N1_8  and  C8_9 
REMARK    4  A    between atoms: C9_11  and  O1_12 
ROOT
HETATM    1  C4  UNL     1      25.047   2.866  50.066  1.00  0.00     0.037 C 
HETATM    2  C5  UNL     1      24.183   4.085  50.082  1.00  0.00     0.037 C 
HETATM    3  C6  UNL     1      22.971   4.004  49.193  1.00  0.00     0.109 C 
HETATM    4  C7  UNL     1      22.780   5.354  48.553  1.00  0.00     0.034 C 
HETATM    5  N1  UNL     1      21.805   3.578  49.944  1.00  0.00    -0.242 N 
HETATM    6  N3  UNL     1      21.574   3.094  51.232  1.00  0.00    -0.182 NA
HETATM    7  C11 UNL     1      22.298   2.405  52.070  1.00  0.00     0.150 C 
HETATM    8  C12 UNL     1      23.655   1.821  52.076  1.00  0.00    -0.010 A 
HETATM    9  C13 UNL     1      23.596   0.977  53.141  1.00  0.00     0.015 A 
HETATM   10  C14 UNL     1      24.718   0.252  53.439  1.00  0.00     0.024 A 
HETATM   11  C15 UNL     1      25.844   0.409  52.657  1.00  0.00     0.034 A 
HETATM   12 CL1  UNL     1      27.329  -0.487  52.975  1.00  0.00    -0.084 Cl
HETATM   13  C16 UNL     1      25.878   1.271  51.583  1.00  0.00     0.032 A 
HETATM   14  C17 UNL     1      24.758   2.007  51.270  1.00  0.00    -0.039 A 
ENDROOT
BRANCH   5  15
HETATM   15  C8  UNL     1      20.574   3.653  49.235  1.00  0.00     0.192 A 
HETATM   16  N2  UNL     1      20.148   3.060  48.154  1.00  0.00    -0.198 NA
HETATM   17  C9  UNL     1      18.916   3.372  47.763  1.00  0.00     0.171 A 
HETATM   18  C10 UNL     1      18.107   4.288  48.467  1.00  0.00     0.111 A 
HETATM   19  S1  UNL     1      19.242   4.726  49.805  1.00  0.00    -0.058 SA
BRANCH  17  20
HETATM   20  O1  UNL     1      18.594   2.657  46.586  1.00  0.00    -0.344 OA
HETATM   21  H11 UNL     1      18.289   3.136  45.747  1.00  0.00     0.219 HD
ENDBRANCH  17  20
ENDBRANCH   5  15
BRANCH   1  22
HETATM   22  C3  UNL     1      26.453   3.248  50.145  1.00  0.00     0.076 C 
BRANCH  22  23
HETATM   23  C2  UNL     1      26.925   4.215  49.372  1.00  0.00    -0.175 C 
HETATM   24  C1  UNL     1      27.623   5.009  48.575  1.00  0.00     0.091 C 
ENDBRANCH  22  23
ENDBRANCH   1  22
TORSDOF 4
ENDMDL
MODEL 8
REMARK VINA RESULT:      -7.1      4.925      7.016
REMARK  4 active torsions:
REMARK  status: ('A' for Active; 'I' for Inactive)
REMARK    1  A    between atoms: C2_2  and  C3_3 
REMARK    2  A    between atoms: C3_3  and  C4_4 
REMARK    3  A    between atoms: N1_8  and  C8_9 
REMARK    4  A    between atoms: C9_11  and  O1_12 
ROOT
HETATM    1  C4  UNL     1      23.320   1.096  52.695  1.00  0.00     0.037 C 
HETATM    2  C5  UNL     1      22.630   1.137  51.369  1.00  0.00     0.037 C 
HETATM    3  C6  UNL     1      21.868   2.407  51.101  1.00  0.00     0.109 C 
HETATM    4  C7  UNL     1      20.590   2.034  50.396  1.00  0.00     0.034 C 
HETATM    5  N1  UNL     1      22.671   3.341  50.334  1.00  0.00    -0.242 N 
HETATM    6  N3  UNL     1      24.002   3.403  49.922  1.00  0.00    -0.182 NA
HETATM    7  C11 UNL     1      25.114   2.943  50.425  1.00  0.00     0.150 C 
HETATM    8  C12 UNL     1      25.504   2.168  51.621  1.00  0.00    -0.010 A 
HETATM    9  C13 UNL     1      26.851   2.348  51.650  1.00  0.00     0.015 A 
HETATM   10  C14 UNL     1      27.550   1.748  52.662  1.00  0.00     0.024 A 
HETATM   11  C15 UNL     1      26.865   0.997  53.595  1.00  0.00     0.034 A 
HETATM   12 CL1  UNL     1      27.690   0.192  54.929  1.00  0.00    -0.084 Cl
HETATM   13  C16 UNL     1      25.498   0.830  53.543  1.00  0.00     0.032 A 
HETATM   14  C17 UNL     1      24.781   1.426  52.531  1.00  0.00    -0.039 A 
ENDROOT
BRANCH   5  15
HETATM   15  C8  UNL     1      21.974   4.492  49.870  1.00  0.00     0.192 A 
HETATM   16  N2  UNL     1      21.586   4.859  48.681  1.00  0.00    -0.198 NA
HETATM   17  C9  UNL     1      20.945   6.023  48.609  1.00  0.00     0.171 A 
HETATM   18  C10 UNL     1      20.696   6.821  49.744  1.00  0.00     0.111 A 
HETATM   19  S1  UNL     1      21.459   5.785  51.015  1.00  0.00    -0.058 SA
BRANCH  17  20
HETATM   20  O1  UNL     1      20.588   6.287  47.266  1.00  0.00    -0.344 OA
HETATM   21  H11 UNL     1      19.726   5.928  46.872  1.00  0.00     0.219 HD
ENDBRANCH  17  20
ENDBRANCH   5  15
BRANCH   1  22
HETATM   22  C3  UNL     1      23.249  -0.249  53.254  1.00  0.00     0.076 C 
BRANCH  22  23
HETATM   23  C2  UNL     1      22.140  -0.668  53.846  1.00  0.00    -0.175 C 
HETATM   24  C1  UNL     1      21.094  -1.333  54.311  1.00  0.00     0.091 C 
ENDBRANCH  22  23
ENDBRANCH   1  22
TORSDOF 4
ENDMDL
MODEL 9
REMARK VINA RESULT:      -6.8      8.029     10.885
REMARK  4 active torsions:
REMARK  status: ('A' for Active; 'I' for Inactive)
REMARK    1  A    between atoms: C2_2  and  C3_3 
REMARK    2  A    between atoms: C3_3  and  C4_4 
REMARK    3  A    between atoms: N1_8  and  C8_9 
REMARK    4  A    between atoms: C9_11  and  O1_12 
ROOT
HETATM    1  C4  UNL     1      28.293   6.811  48.044  1.00  0.00     0.037 C 
HETATM    2  C5  UNL     1      29.188   7.901  48.541  1.00  0.00     0.037 C 
HETATM    3  C6  UNL     1      29.074   9.197  47.785  1.00  0.00     0.109 C 
HETATM    4  C7  UNL     1      30.459   9.773  47.651  1.00  0.00     0.034 C 
HETATM    5  N1  UNL     1      28.159  10.106  48.449  1.00  0.00    -0.242 N 
HETATM    6  N3  UNL     1      27.266  10.014  49.516  1.00  0.00    -0.182 NA
HETATM    7  C11 UNL     1      26.563   9.032  50.010  1.00  0.00     0.150 C 
HETATM    8  C12 UNL     1      26.370   7.599  49.703  1.00  0.00    -0.010 A 
HETATM    9  C13 UNL     1      25.257   7.301  50.426  1.00  0.00     0.015 A 
HETATM   10  C14 UNL     1      24.787   6.018  50.366  1.00  0.00     0.024 A 
HETATM   11  C15 UNL     1      25.454   5.096  49.587  1.00  0.00     0.034 A 
HETATM   12 CL1  UNL     1      24.913   3.423  49.458  1.00  0.00    -0.084 Cl
HETATM   13  C16 UNL     1      26.580   5.423  48.864  1.00  0.00     0.032 A 
HETATM   14  C17 UNL     1      27.066   6.709  48.913  1.00  0.00    -0.039 A 
ENDROOT
BRANCH   5  15
HETATM   15  C8  UNL     1      28.129  11.425  47.915  1.00  0.00     0.192 A 
HETATM   16  N2  UNL     1      27.772  11.890  46.750  1.00  0.00    -0.198 NA
HETATM   17  C9  UNL     1      27.876  13.206  46.590  1.00  0.00     0.171 A 
HETATM   18  C10 UNL     1      28.342  14.059  47.611  1.00  0.00     0.111 A 
HETATM   19  S1  UNL     1      28.653  12.835  48.907  1.00  0.00    -0.058 SA
BRANCH  17  20
HETATM   20  O1  UNL     1      27.456  13.562  45.287  1.00  0.00    -0.344 OA
HETATM   21  H11 UNL     1      26.492  13.451  44.998  1.00  0.00     0.219 HD
ENDBRANCH  17  20
ENDBRANCH   5  15
BRANCH   1  22
HETATM   22  C3  UNL     1      28.978   5.526  48.124  1.00  0.00     0.076 C 
BRANCH  22  23
HETATM   23  C2  UNL     1      30.281   5.450  47.899  1.00  0.00    -0.175 C 
HETATM   24  C1  UNL     1      31.521   5.115  47.577  1.00  0.00     0.091 C 
ENDBRANCH  22  23
ENDBRANCH   1  22
TORSDOF 4
ENDMDL
