MODEL 1
REMARK VINA RESULT:      -6.6      0.000      0.000
REMARK  7 active torsions:
REMARK  status: ('A' for Active; 'I' for Inactive)
REMARK    1  A    between atoms: C3_3  and  O1_4 
REMARK    2  A    between atoms: O1_4  and  C4_5 
REMARK    3  A    between atoms: N2_12  and  C10_13 
REMARK    4  A    between atoms: C10_13  and  C11_14 
REMARK    5  A    between atoms: C12_15  and  C13_17 
REMARK    6  A    between atoms: C13_17  and  O2_18 
REMARK    7  A    between atoms: O2_18  and  C14_19 
ROOT
HETATM    1  C1  UNL     1      24.826   3.055  52.932  1.00  0.00     0.024 C 
HETATM    2  C2  UNL     1      24.317   2.625  51.782  1.00  0.00     0.005 C 
HETATM    3  C3  UNL     1      24.427   3.308  50.476  1.00  0.00     0.078 C 
HETATM    4  C6  UNL     1      23.504   2.850  49.647  1.00  0.00     0.066 C 
HETATM    5  C7  UNL     1      22.691   1.820  50.325  1.00  0.00     0.069 C 
HETATM    6  N1  UNL     1      21.504   1.350  50.032  1.00  0.00    -0.290 NA
HETATM    7  C8  UNL     1      21.025   0.319  50.956  1.00  0.00     0.179 C 
HETATM    8  C9  UNL     1      21.407   0.813  52.343  1.00  0.00     0.296 C 
HETATM    9  N2  UNL     1      22.806   0.872  52.580  1.00  0.00     0.108 N 
HETATM   10  C16 UNL     1      23.525   1.399  51.460  1.00  0.00     0.309 C 
ENDROOT
BRANCH   9  11
HETATM   11  C10 UNL     1      23.404  -0.334  53.107  1.00  0.00     0.302 C 
BRANCH  11  12
HETATM   12  C11 UNL     1      24.531  -0.122  54.021  1.00  0.00     0.024 C 
HETATM   13  C12 UNL     1      25.841  -0.256  53.840  1.00  0.00     0.033 C 
HETATM   14 CL1  UNL     1      26.422  -0.769  52.278  1.00  0.00    -0.087 Cl
BRANCH  13  15
HETATM   15  C13 UNL     1      26.705   0.051  55.013  1.00  0.00     0.218 C 
BRANCH  15  16
HETATM   16  O2  UNL     1      27.893  -0.618  54.816  1.00  0.00    -0.386 OA
BRANCH  16  17
HETATM   17  C14 UNL     1      28.961   0.182  54.467  1.00  0.00     0.163 C 
HETATM   18  C15 UNL     1      29.952  -0.447  53.544  1.00  0.00     0.033 C 
ENDBRANCH  16  17
ENDBRANCH  15  16
ENDBRANCH  13  15
ENDBRANCH  11  12
ENDBRANCH   9  11
BRANCH   3  19
HETATM   19  O1  UNL     1      25.395   4.294  50.209  1.00  0.00    -0.351 OA
BRANCH  19  20
HETATM   20  C4  UNL     1      26.644   3.849  49.717  1.00  0.00     0.171 C 
HETATM   21  C5  UNL     1      27.308   4.788  48.768  1.00  0.00     0.034 C 
ENDBRANCH  19  20
ENDBRANCH   3  19
TORSDOF 7
ENDMDL
MODEL 2
REMARK VINA RESULT:      -6.6      1.852      5.371
REMARK  7 active torsions:
REMARK  status: ('A' for Active; 'I' for Inactive)
REMARK    1  A    between atoms: C3_3  and  O1_4 
REMARK    2  A    between atoms: O1_4  and  C4_5 
REMARK    3  A    between atoms: N2_12  and  C10_13 
REMARK    4  A    between atoms: C10_13  and  C11_14 
REMARK    5  A    between atoms: C12_15  and  C13_17 
REMARK    6  A    between atoms: C13_17  and  O2_18 
REMARK    7  A    between atoms: O2_18  and  C14_19 
ROOT
HETATM    1  C1  UNL     1      26.513   1.011  51.651  1.00  0.00     0.024 C 
HETATM    2  C2  UNL     1      25.786   0.593  52.681  1.00  0.00     0.005 C 
HETATM    3  C3  UNL     1      26.210  -0.391  53.699  1.00  0.00     0.078 C 
HETATM    4  C6  UNL     1      25.152  -0.876  54.327  1.00  0.00     0.066 C 
HETATM    5  C7  UNL     1      23.924  -0.261  53.785  1.00  0.00     0.069 C 
HETATM    6  N1  UNL     1      22.676  -0.656  53.854  1.00  0.00    -0.290 NA
HETATM    7  C8  UNL     1      21.729   0.236  53.182  1.00  0.00     0.179 C 
HETATM    8  C9  UNL     1      22.407   0.637  51.880  1.00  0.00     0.296 C 
HETATM    9  N2  UNL     1      23.574   1.428  52.046  1.00  0.00     0.108 N 
HETATM   10  C16 UNL     1      24.403   0.957  53.114  1.00  0.00     0.309 C 
ENDROOT
BRANCH   9  11
HETATM   11  C10 UNL     1      23.362   2.857  52.095  1.00  0.00     0.302 C 
BRANCH  11  12
HETATM   12  C11 UNL     1      24.207   3.644  51.191  1.00  0.00     0.024 C 
HETATM   13  C12 UNL     1      24.231   3.723  49.865  1.00  0.00     0.033 C 
HETATM   14 CL1  UNL     1      23.101   2.762  48.948  1.00  0.00    -0.087 Cl
BRANCH  13  15
HETATM   15  C13 UNL     1      25.243   4.643  49.275  1.00  0.00     0.218 C 
BRANCH  15  16
HETATM   16  O2  UNL     1      26.468   4.032  49.422  1.00  0.00    -0.386 OA
BRANCH  16  17
HETATM   17  C14 UNL     1      27.508   4.644  48.754  1.00  0.00     0.163 C 
HETATM   18  C15 UNL     1      27.318   6.099  48.476  1.00  0.00     0.033 C 
ENDBRANCH  16  17
ENDBRANCH  15  16
ENDBRANCH  13  15
ENDBRANCH  11  12
ENDBRANCH   9  11
BRANCH   3  19
HETATM   19  O1  UNL     1      27.559  -0.724  53.924  1.00  0.00    -0.351 OA
BRANCH  19  20
HETATM   20  C4  UNL     1      28.284   0.107  54.809  1.00  0.00     0.171 C 
HETATM   21  C5  UNL     1      29.288   0.990  54.149  1.00  0.00     0.034 C 
ENDBRANCH  19  20
ENDBRANCH   3  19
TORSDOF 7
ENDMDL
MODEL 3
REMARK VINA RESULT:      -6.5      1.811      2.316
REMARK  7 active torsions:
REMARK  status: ('A' for Active; 'I' for Inactive)
REMARK    1  A    between atoms: C3_3  and  O1_4 
REMARK    2  A    between atoms: O1_4  and  C4_5 
REMARK    3  A    between atoms: N2_12  and  C10_13 
REMARK    4  A    between atoms: C10_13  and  C11_14 
REMARK    5  A    between atoms: C12_15  and  C13_17 
REMARK    6  A    between atoms: C13_17  and  O2_18 
REMARK    7  A    between atoms: O2_18  and  C14_19 
ROOT
HETATM    1  C1  UNL     1      23.960   2.139  51.317  1.00  0.00     0.024 C 
HETATM    2  C2  UNL     1      22.875   1.437  51.007  1.00  0.00     0.005 C 
HETATM    3  C3  UNL     1      22.039   1.619  49.802  1.00  0.00     0.078 C 
HETATM    4  C6  UNL     1      20.853   1.064  49.986  1.00  0.00     0.066 C 
HETATM    5  C7  UNL     1      20.788   0.462  51.333  1.00  0.00     0.069 C 
HETATM    6  N1  UNL     1      19.752   0.115  52.056  1.00  0.00    -0.290 NA
HETATM    7  C8  UNL     1      20.098  -0.459  53.359  1.00  0.00     0.179 C 
HETATM    8  C9  UNL     1      21.236   0.402  53.888  1.00  0.00     0.296 C 
HETATM    9  N2  UNL     1      22.437   0.313  53.137  1.00  0.00     0.108 N 
HETATM   10  C16 UNL     1      22.197   0.316  51.726  1.00  0.00     0.309 C 
ENDROOT
BRANCH   9  11
HETATM   11  C10 UNL     1      23.355  -0.726  53.543  1.00  0.00     0.302 C 
BRANCH  11  12
HETATM   12  C11 UNL     1      24.554  -0.259  54.246  1.00  0.00     0.024 C 
HETATM   13  C12 UNL     1      25.815  -0.143  53.843  1.00  0.00     0.033 C 
HETATM   14 CL1  UNL     1      26.217  -0.604  52.210  1.00  0.00    -0.087 Cl
BRANCH  13  15
HETATM   15  C13 UNL     1      26.785   0.378  54.846  1.00  0.00     0.218 C 
BRANCH  15  16
HETATM   16  O2  UNL     1      27.820  -0.528  54.905  1.00  0.00    -0.386 OA
BRANCH  16  17
HETATM   17  C14 UNL     1      29.037  -0.052  54.467  1.00  0.00     0.163 C 
HETATM   18  C15 UNL     1      29.780  -0.957  53.540  1.00  0.00     0.033 C 
ENDBRANCH  16  17
ENDBRANCH  15  16
ENDBRANCH  13  15
ENDBRANCH  11  12
ENDBRANCH   9  11
BRANCH   3  19
HETATM   19  O1  UNL     1      22.493   2.294  48.653  1.00  0.00    -0.351 OA
BRANCH  19  20
HETATM   20  C4  UNL     1      22.044   3.623  48.472  1.00  0.00     0.171 C 
HETATM   21  C5  UNL     1      23.128   4.646  48.449  1.00  0.00     0.034 C 
ENDBRANCH  19  20
ENDBRANCH   3  19
TORSDOF 7
ENDMDL
MODEL 4
REMARK VINA RESULT:      -6.2      2.768      6.103
REMARK  7 active torsions:
REMARK  status: ('A' for Active; 'I' for Inactive)
REMARK    1  A    between atoms: C3_3  and  O1_4 
REMARK    2  A    between atoms: O1_4  and  C4_5 
REMARK    3  A    between atoms: N2_12  and  C10_13 
REMARK    4  A    between atoms: C10_13  and  C11_14 
REMARK    5  A    between atoms: C12_15  and  C13_17 
REMARK    6  A    between atoms: C13_17  and  O2_18 
REMARK    7  A    between atoms: O2_18  and  C14_19 
ROOT
HETATM    1  C1  UNL     1      23.383   2.796  52.666  1.00  0.00     0.024 C 
HETATM    2  C2  UNL     1      23.687   1.519  52.874  1.00  0.00     0.005 C 
HETATM    3  C3  UNL     1      22.820   0.515  53.524  1.00  0.00     0.078 C 
HETATM    4  C6  UNL     1      23.544  -0.514  53.930  1.00  0.00     0.066 C 
HETATM    5  C7  UNL     1      24.963  -0.291  53.589  1.00  0.00     0.069 C 
HETATM    6  N1  UNL     1      26.048  -0.850  54.068  1.00  0.00    -0.290 NA
HETATM    7  C8  UNL     1      27.289  -0.357  53.467  1.00  0.00     0.179 C 
HETATM    8  C9  UNL     1      27.109   1.150  53.348  1.00  0.00     0.296 C 
HETATM    9  N2  UNL     1      26.096   1.549  52.436  1.00  0.00     0.108 N 
HETATM   10  C16 UNL     1      24.920   0.742  52.542  1.00  0.00     0.309 C 
ENDROOT
BRANCH   9  11
HETATM   11  C10 UNL     1      26.522   1.735  51.068  1.00  0.00     0.302 C 
BRANCH  11  12
HETATM   12  C11 UNL     1      26.532   3.126  50.602  1.00  0.00     0.024 C 
HETATM   13  C12 UNL     1      25.652   3.811  49.880  1.00  0.00     0.033 C 
HETATM   14 CL1  UNL     1      24.201   3.007  49.343  1.00  0.00    -0.087 Cl
BRANCH  13  15
HETATM   15  C13 UNL     1      25.997   5.231  49.590  1.00  0.00     0.218 C 
BRANCH  15  16
HETATM   16  O2  UNL     1      26.893   5.216  48.545  1.00  0.00    -0.386 OA
BRANCH  16  17
HETATM   17  C14 UNL     1      27.732   6.309  48.481  1.00  0.00     0.163 C 
HETATM   18  C15 UNL     1      29.125   6.018  48.028  1.00  0.00     0.033 C 
ENDBRANCH  16  17
ENDBRANCH  15  16
ENDBRANCH  13  15
ENDBRANCH  11  12
ENDBRANCH   9  11
BRANCH   3  19
HETATM   19  O1  UNL     1      21.429   0.684  53.663  1.00  0.00    -0.351 OA
BRANCH  19  20
HETATM   20  C4  UNL     1      20.602  -0.222  52.960  1.00  0.00     0.171 C 
HETATM   21  C5  UNL     1      19.894   0.366  51.787  1.00  0.00     0.034 C 
ENDBRANCH  19  20
ENDBRANCH   3  19
TORSDOF 7
ENDMDL
MODEL 5
REMARK VINA RESULT:      -6.2      2.037      5.999
REMARK  7 active torsions:
REMARK  status: ('A' for Active; 'I' for Inactive)
REMARK    1  A    between atoms: C3_3  and  O1_4 
REMARK    2  A    between atoms: O1_4  and  C4_5 
REMARK    3  A    between atoms: N2_12  and  C10_13 
REMARK    4  A    between atoms: C10_13  and  C11_14 
REMARK    5  A    between atoms: C12_15  and  C13_17 
REMARK    6  A    between atoms: C13_17  and  O2_18 
REMARK    7  A    between atoms: O2_18  and  C14_19 
ROOT
HETATM    1  C1  UNL     1      26.820   0.863  51.592  1.00  0.00     0.024 C 
HETATM    2  C2  UNL     1      26.028   0.554  52.614  1.00  0.00     0.005 C 
HETATM    3  C3  UNL     1      26.286  -0.491  53.626  1.00  0.00     0.078 C 
HETATM    4  C6  UNL     1      25.160  -0.812  54.242  1.00  0.00     0.066 C 
HETATM    5  C7  UNL     1      24.047  -0.010  53.695  1.00  0.00     0.069 C 
HETATM    6  N1  UNL     1      22.752  -0.209  53.751  1.00  0.00    -0.290 NA
HETATM    7  C8  UNL     1      21.960   0.824  53.080  1.00  0.00     0.179 C 
HETATM    8  C9  UNL     1      22.703   1.125  51.787  1.00  0.00     0.296 C 
HETATM    9  N2  UNL     1      23.977   1.725  51.969  1.00  0.00     0.108 N 
HETATM   10  C16 UNL     1      24.713   1.124  53.038  1.00  0.00     0.309 C 
ENDROOT
BRANCH   9  11
HETATM   11  C10 UNL     1      23.987   3.169  52.028  1.00  0.00     0.302 C 
BRANCH  11  12
HETATM   12  C11 UNL     1      23.619   3.846  50.780  1.00  0.00     0.024 C 
HETATM   13  C12 UNL     1      24.354   4.211  49.735  1.00  0.00     0.033 C 
HETATM   14 CL1  UNL     1      26.064   3.871  49.753  1.00  0.00    -0.087 Cl
BRANCH  13  15
HETATM   15  C13 UNL     1      23.631   4.892  48.625  1.00  0.00     0.218 C 
BRANCH  15  16
HETATM   16  O2  UNL     1      22.372   4.336  48.571  1.00  0.00    -0.386 OA
BRANCH  16  17
HETATM   17  C14 UNL     1      22.125   3.559  47.459  1.00  0.00     0.163 C 
HETATM   18  C15 UNL     1      22.385   2.098  47.633  1.00  0.00     0.033 C 
ENDBRANCH  16  17
ENDBRANCH  15  16
ENDBRANCH  13  15
ENDBRANCH  11  12
ENDBRANCH   9  11
BRANCH   3  19
HETATM   19  O1  UNL     1      27.565  -1.030  53.859  1.00  0.00    -0.351 OA
BRANCH  19  20
HETATM   20  C4  UNL     1      28.519  -0.177  54.461  1.00  0.00     0.171 C 
HETATM   21  C5  UNL     1      29.786  -0.022  53.692  1.00  0.00     0.034 C 
ENDBRANCH  19  20
ENDBRANCH   3  19
TORSDOF 7
ENDMDL
MODEL 6
REMARK VINA RESULT:      -6.1      1.987      5.602
REMARK  7 active torsions:
REMARK  status: ('A' for Active; 'I' for Inactive)
REMARK    1  A    between atoms: C3_3  and  O1_4 
REMARK    2  A    between atoms: O1_4  and  C4_5 
REMARK    3  A    between atoms: N2_12  and  C10_13 
REMARK    4  A    between atoms: C10_13  and  C11_14 
REMARK    5  A    between atoms: C12_15  and  C13_17 
REMARK    6  A    between atoms: C13_17  and  O2_18 
REMARK    7  A    between atoms: O2_18  and  C14_19 
ROOT
HETATM    1  C1  UNL     1      27.047   1.392  51.923  1.00  0.00     0.024 C 
HETATM    2  C2  UNL     1      26.758   0.995  53.158  1.00  0.00     0.005 C 
HETATM    3  C3  UNL     1      27.735   0.611  54.197  1.00  0.00     0.078 C 
HETATM    4  C6  UNL     1      27.137  -0.097  55.141  1.00  0.00     0.066 C 
HETATM    5  C7  UNL     1      25.705  -0.251  54.817  1.00  0.00     0.069 C 
HETATM    6  N1  UNL     1      24.824  -1.116  55.259  1.00  0.00    -0.290 NA
HETATM    7  C8  UNL     1      23.484  -0.945  54.694  1.00  0.00     0.179 C 
HETATM    8  C9  UNL     1      23.703  -0.658  53.216  1.00  0.00     0.296 C 
HETATM    9  N2  UNL     1      24.354   0.575  52.948  1.00  0.00     0.108 N 
HETATM   10  C16 UNL     1      25.442   0.821  53.845  1.00  0.00     0.309 C 
ENDROOT
BRANCH   9  11
HETATM   11  C10 UNL     1      23.489   1.721  52.795  1.00  0.00     0.302 C 
BRANCH  11  12
HETATM   12  C11 UNL     1      23.762   2.557  51.621  1.00  0.00     0.024 C 
HETATM   13  C12 UNL     1      23.286   2.505  50.382  1.00  0.00     0.033 C 
HETATM   14 CL1  UNL     1      22.130   1.263  49.980  1.00  0.00    -0.087 Cl
BRANCH  13  15
HETATM   15  C13 UNL     1      23.797   3.534  49.433  1.00  0.00     0.218 C 
BRANCH  15  16
HETATM   16  O2  UNL     1      24.496   4.452  50.183  1.00  0.00    -0.386 OA
BRANCH  16  17
HETATM   17  C14 UNL     1      25.605   4.988  49.563  1.00  0.00     0.163 C 
HETATM   18  C15 UNL     1      26.728   4.032  49.328  1.00  0.00     0.033 C 
ENDBRANCH  16  17
ENDBRANCH  15  16
ENDBRANCH  13  15
ENDBRANCH  11  12
ENDBRANCH   9  11
BRANCH   3  19
HETATM   19  O1  UNL     1      29.093   0.974  54.139  1.00  0.00    -0.351 OA
BRANCH  19  20
HETATM   20  C4  UNL     1      29.942   0.157  53.357  1.00  0.00     0.171 C 
HETATM   21  C5  UNL     1      29.965  -1.278  53.759  1.00  0.00     0.034 C 
ENDBRANCH  19  20
ENDBRANCH   3  19
TORSDOF 7
ENDMDL
MODEL 7
REMARK VINA RESULT:      -5.9      2.573      5.950
REMARK  7 active torsions:
REMARK  status: ('A' for Active; 'I' for Inactive)
REMARK    1  A    between atoms: C3_3  and  O1_4 
REMARK    2  A    between atoms: O1_4  and  C4_5 
REMARK    3  A    between atoms: N2_12  and  C10_13 
REMARK    4  A    between atoms: C10_13  and  C11_14 
REMARK    5  A    between atoms: C12_15  and  C13_17 
REMARK    6  A    between atoms: C13_17  and  O2_18 
REMARK    7  A    between atoms: O2_18  and  C14_19 
ROOT
HETATM    1  C1  UNL     1      24.482   0.898  52.100  1.00  0.00     0.024 C 
HETATM    2  C2  UNL     1      23.800   0.362  53.106  1.00  0.00     0.005 C 
HETATM    3  C3  UNL     1      24.321  -0.616  54.084  1.00  0.00     0.078 C 
HETATM    4  C6  UNL     1      23.318  -1.236  54.683  1.00  0.00     0.066 C 
HETATM    5  C7  UNL     1      22.034  -0.729  54.159  1.00  0.00     0.069 C 
HETATM    6  N1  UNL     1      20.835  -1.255  54.202  1.00  0.00    -0.290 NA
HETATM    7  C8  UNL     1      19.801  -0.438  53.562  1.00  0.00     0.179 C 
HETATM    8  C9  UNL     1      20.436   0.088  52.284  1.00  0.00     0.296 C 
HETATM    9  N2  UNL     1      21.514   0.988  52.492  1.00  0.00     0.108 N 
HETATM   10  C16 UNL     1      22.385   0.560  53.544  1.00  0.00     0.309 C 
ENDROOT
BRANCH   9  11
HETATM   11  C10 UNL     1      21.154   2.383  52.600  1.00  0.00     0.302 C 
BRANCH  11  12
HETATM   12  C11 UNL     1      21.565   3.223  51.470  1.00  0.00     0.024 C 
HETATM   13  C12 UNL     1      22.553   4.102  51.349  1.00  0.00     0.033 C 
HETATM   14 CL1  UNL     1      23.600   4.379  52.716  1.00  0.00    -0.087 Cl
BRANCH  13  15
HETATM   15  C13 UNL     1      22.675   4.783  50.030  1.00  0.00     0.218 C 
BRANCH  15  16
HETATM   16  O2  UNL     1      21.910   4.064  49.140  1.00  0.00    -0.386 OA
BRANCH  16  17
HETATM   17  C14 UNL     1      22.578   3.632  48.014  1.00  0.00     0.163 C 
HETATM   18  C15 UNL     1      22.452   2.174  47.719  1.00  0.00     0.033 C 
ENDBRANCH  16  17
ENDBRANCH  15  16
ENDBRANCH  13  15
ENDBRANCH  11  12
ENDBRANCH   9  11
BRANCH   3  19
HETATM   19  O1  UNL     1      25.697  -0.816  54.304  1.00  0.00    -0.351 OA
BRANCH  19  20
HETATM   20  C4  UNL     1      26.376   0.175  55.051  1.00  0.00     0.171 C 
HETATM   21  C5  UNL     1      27.828   0.302  54.738  1.00  0.00     0.034 C 
ENDBRANCH  19  20
ENDBRANCH   3  19
TORSDOF 7
ENDMDL
MODEL 8
REMARK VINA RESULT:      -5.7      4.290      7.480
REMARK  7 active torsions:
REMARK  status: ('A' for Active; 'I' for Inactive)
REMARK    1  A    between atoms: C3_3  and  O1_4 
REMARK    2  A    between atoms: O1_4  and  C4_5 
REMARK    3  A    between atoms: N2_12  and  C10_13 
REMARK    4  A    between atoms: C10_13  and  C11_14 
REMARK    5  A    between atoms: C12_15  and  C13_17 
REMARK    6  A    between atoms: C13_17  and  O2_18 
REMARK    7  A    between atoms: O2_18  and  C14_19 
ROOT
HETATM    1  C1  UNL     1      22.111  -1.218  53.990  1.00  0.00     0.024 C 
HETATM    2  C2  UNL     1      22.702  -0.235  53.320  1.00  0.00     0.005 C 
HETATM    3  C3  UNL     1      24.119   0.167  53.440  1.00  0.00     0.078 C 
HETATM    4  C6  UNL     1      24.284   1.390  52.964  1.00  0.00     0.066 C 
HETATM    5  C7  UNL     1      22.992   1.917  52.484  1.00  0.00     0.069 C 
HETATM    6  N1  UNL     1      22.613   3.151  52.254  1.00  0.00    -0.290 NA
HETATM    7  C8  UNL     1      21.233   3.273  51.777  1.00  0.00     0.179 C 
HETATM    8  C9  UNL     1      20.428   2.296  52.622  1.00  0.00     0.296 C 
HETATM    9  N2  UNL     1      20.752   0.930  52.407  1.00  0.00     0.108 N 
HETATM   10  C16 UNL     1      22.163   0.717  52.301  1.00  0.00     0.309 C 
ENDROOT
BRANCH   9  11
HETATM   11  C10 UNL     1      20.008   0.266  51.362  1.00  0.00     0.302 C 
BRANCH  11  12
HETATM   12  C11 UNL     1      18.556   0.470  51.404  1.00  0.00     0.024 C 
HETATM   13  C12 UNL     1      17.610  -0.130  52.118  1.00  0.00     0.033 C 
HETATM   14 CL1  UNL     1      18.072  -1.395  53.226  1.00  0.00    -0.087 Cl
BRANCH  13  15
HETATM   15  C13 UNL     1      16.215   0.343  51.898  1.00  0.00     0.218 C 
BRANCH  15  16
HETATM   16  O2  UNL     1      15.408  -0.400  52.729  1.00  0.00    -0.386 OA
BRANCH  16  17
HETATM   17  C14 UNL     1      14.340   0.285  53.270  1.00  0.00     0.163 C 
HETATM   18  C15 UNL     1      14.268   1.734  52.917  1.00  0.00     0.033 C 
ENDBRANCH  16  17
ENDBRANCH  15  16
ENDBRANCH  13  15
ENDBRANCH  11  12
ENDBRANCH   9  11
BRANCH   3  19
HETATM   19  O1  UNL     1      25.107  -0.673  53.988  1.00  0.00    -0.351 OA
BRANCH  19  20
HETATM   20  C4  UNL     1      26.454  -0.297  53.780  1.00  0.00     0.171 C 
HETATM   21  C5  UNL     1      27.151  -1.056  52.704  1.00  0.00     0.034 C 
ENDBRANCH  19  20
ENDBRANCH   3  19
TORSDOF 7
ENDMDL
MODEL 9
REMARK VINA RESULT:      -5.6      3.041      5.916
REMARK  7 active torsions:
REMARK  status: ('A' for Active; 'I' for Inactive)
REMARK    1  A    between atoms: C3_3  and  O1_4 
REMARK    2  A    between atoms: O1_4  and  C4_5 
REMARK    3  A    between atoms: N2_12  and  C10_13 
REMARK    4  A    between atoms: C10_13  and  C11_14 
REMARK    5  A    between atoms: C12_15  and  C13_17 
REMARK    6  A    between atoms: C13_17  and  O2_18 
REMARK    7  A    between atoms: O2_18  and  C14_19 
ROOT
HETATM    1  C1  UNL     1      26.450   2.955  49.768  1.00  0.00     0.024 C 
HETATM    2  C2  UNL     1      25.918   2.751  50.968  1.00  0.00     0.005 C 
HETATM    3  C3  UNL     1      26.653   2.353  52.187  1.00  0.00     0.078 C 
HETATM    4  C6  UNL     1      25.813   1.855  53.079  1.00  0.00     0.066 C 
HETATM    5  C7  UNL     1      24.440   1.873  52.537  1.00  0.00     0.069 C 
HETATM    6  N1  UNL     1      23.376   1.202  52.903  1.00  0.00    -0.290 NA
HETATM    7  C8  UNL     1      22.180   1.498  52.110  1.00  0.00     0.179 C 
HETATM    8  C9  UNL     1      22.663   1.576  50.669  1.00  0.00     0.296 C 
HETATM    9  N2  UNL     1      23.538   2.662  50.401  1.00  0.00     0.108 N 
HETATM   10  C16 UNL     1      24.504   2.851  51.440  1.00  0.00     0.309 C 
ENDROOT
BRANCH   9  11
HETATM   11  C10 UNL     1      22.902   3.896  50.001  1.00  0.00     0.302 C 
BRANCH  11  12
HETATM   12  C11 UNL     1      23.630   5.117  50.359  1.00  0.00     0.024 C 
HETATM   13  C12 UNL     1      23.195   6.322  50.715  1.00  0.00     0.033 C 
HETATM   14 CL1  UNL     1      21.476   6.600  50.799  1.00  0.00    -0.087 Cl
BRANCH  13  15
HETATM   15  C13 UNL     1      24.240   7.340  51.013  1.00  0.00     0.218 C 
BRANCH  15  16
HETATM   16  O2  UNL     1      25.437   6.821  50.575  1.00  0.00    -0.386 OA
BRANCH  16  17
HETATM   17  C14 UNL     1      26.236   7.703  49.878  1.00  0.00     0.163 C 
HETATM   18  C15 UNL     1      25.800   9.130  49.925  1.00  0.00     0.033 C 
ENDBRANCH  16  17
ENDBRANCH  15  16
ENDBRANCH  13  15
ENDBRANCH  11  12
ENDBRANCH   9  11
BRANCH   3  19
HETATM   19  O1  UNL     1      28.046   2.507  52.323  1.00  0.00    -0.351 OA
BRANCH  19  20
HETATM   20  C4  UNL     1      28.591   2.285  53.608  1.00  0.00     0.171 C 
HETATM   21  C5  UNL     1      29.191   0.934  53.803  1.00  0.00     0.034 C 
ENDBRANCH  19  20
ENDBRANCH   3  19
TORSDOF 7
ENDMDL
