MODEL 1
REMARK VINA RESULT:      -6.8      0.000      0.000
REMARK  7 active torsions:
REMARK  status: ('A' for Active; 'I' for Inactive)
REMARK    1  A    between atoms: O1_2  and  C2_3 
REMARK    2  A    between atoms: C2_3  and  C3_4 
REMARK    3  A    between atoms: C3_4  and  O2_19 
REMARK    4  A    between atoms: C4_5  and  C5_6 
REMARK    5  A    between atoms: C8_11  and  N3_12 
REMARK    6  A    between atoms: N3_12  and  C9_13 
REMARK    7  A    between atoms: C10_14  and  C11_15 
ROOT
HETATM    1  C5  UNL     1      26.733   0.714  53.461  1.00  0.00     0.030 A 
HETATM    2  C6  UNL     1      27.441   0.623  54.662  1.00  0.00     0.133 A 
HETATM    3  N1  UNL     1      28.561   1.386  54.809  1.00  0.00    -0.253 NA
HETATM    4  C7  UNL     1      28.949   2.194  53.808  1.00  0.00     0.234 A 
HETATM    5  N2  UNL     1      28.257   2.269  52.664  1.00  0.00    -0.224 NA
HETATM    6  C8  UNL     1      27.142   1.550  52.439  1.00  0.00     0.140 A 
ENDROOT
BRANCH   6   7
HETATM    7  N3  UNL     1      26.445   1.671  51.206  1.00  0.00    -0.350 N 
HETATM    8  H9  UNL     1      26.024   0.845  50.734  1.00  0.00     0.166 HD
BRANCH   7   9
HETATM    9  C9  UNL     1      26.303   2.935  50.577  1.00  0.00     0.090 C 
HETATM   10  C10 UNL     1      26.642   3.503  49.436  1.00  0.00     0.017 C 
BRANCH  10  11
HETATM   11  C11 UNL     1      26.262   4.876  49.238  1.00  0.00     0.003 C 
HETATM   12  C12 UNL     1      27.150   5.695  48.712  1.00  0.00    -0.088 C 
HETATM   13  C13 UNL     1      26.809   7.137  48.485  1.00  0.00     0.043 C 
HETATM   14  C14 UNL     1      28.515   5.244  48.323  1.00  0.00     0.043 C 
ENDBRANCH  10  11
ENDBRANCH   7   9
ENDBRANCH   6   7
BRANCH   1  15
HETATM   15  C4  UNL     1      25.507  -0.080  53.233  1.00  0.00     0.051 C 
HETATM   16  C3  UNL     1      24.241   0.371  53.163  1.00  0.00     0.070 C 
BRANCH  16  17
HETATM   17  C2  UNL     1      23.092  -0.569  52.924  1.00  0.00     0.231 C 
BRANCH  17  18
HETATM   18  O1  UNL     1      22.128  -0.402  53.930  1.00  0.00    -0.390 OA
HETATM   19  C1  UNL     1      22.340  -1.298  54.976  1.00  0.00     0.201 C 
ENDBRANCH  17  18
ENDBRANCH  16  17
BRANCH  16  20
HETATM   20  O2  UNL     1      24.040   1.720  53.318  1.00  0.00    -0.358 OA
HETATM   21  C15 UNL     1      23.211   2.546  52.564  1.00  0.00     0.209 C 
ENDBRANCH  16  20
ENDBRANCH   1  15
TORSDOF 7
ENDMDL
MODEL 2
REMARK VINA RESULT:      -6.6      1.882      5.762
REMARK  7 active torsions:
REMARK  status: ('A' for Active; 'I' for Inactive)
REMARK    1  A    between atoms: O1_2  and  C2_3 
REMARK    2  A    between atoms: C2_3  and  C3_4 
REMARK    3  A    between atoms: C3_4  and  O2_19 
REMARK    4  A    between atoms: C4_5  and  C5_6 
REMARK    5  A    between atoms: C8_11  and  N3_12 
REMARK    6  A    between atoms: N3_12  and  C9_13 
REMARK    7  A    between atoms: C10_14  and  C11_15 
ROOT
HETATM    1  C5  UNL     1      27.528   1.490  52.779  1.00  0.00     0.030 A 
HETATM    2  C6  UNL     1      28.455   2.293  53.449  1.00  0.00     0.133 A 
HETATM    3  N1  UNL     1      29.073   1.783  54.551  1.00  0.00    -0.253 NA
HETATM    4  C7  UNL     1      28.778   0.537  54.959  1.00  0.00     0.234 A 
HETATM    5  N2  UNL     1      27.887  -0.218  54.305  1.00  0.00    -0.224 NA
HETATM    6  C8  UNL     1      27.234   0.209  53.210  1.00  0.00     0.140 A 
ENDROOT
BRANCH   6   7
HETATM    7  N3  UNL     1      26.300  -0.636  52.552  1.00  0.00    -0.350 N 
HETATM    8  H9  UNL     1      26.521  -1.091  51.643  1.00  0.00     0.166 HD
BRANCH   7   9
HETATM    9  C9  UNL     1      25.024  -0.885  53.122  1.00  0.00     0.090 C 
HETATM   10  C10 UNL     1      24.094  -0.209  53.770  1.00  0.00     0.017 C 
BRANCH  10  11
HETATM   11  C11 UNL     1      22.911  -0.923  54.169  1.00  0.00     0.003 C 
HETATM   12  C12 UNL     1      21.755  -0.532  53.671  1.00  0.00    -0.088 C 
HETATM   13  C13 UNL     1      20.489  -1.238  54.053  1.00  0.00     0.043 C 
HETATM   14  C14 UNL     1      21.643   0.610  52.723  1.00  0.00     0.043 C 
ENDBRANCH  10  11
ENDBRANCH   7   9
ENDBRANCH   6   7
BRANCH   1  15
HETATM   15  C4  UNL     1      26.823   1.975  51.574  1.00  0.00     0.051 C 
HETATM   16  C3  UNL     1      25.655   2.641  51.522  1.00  0.00     0.070 C 
BRANCH  16  17
HETATM   17  C2  UNL     1      25.062   3.071  50.209  1.00  0.00     0.231 C 
BRANCH  17  18
HETATM   18  O1  UNL     1      25.962   3.911  49.536  1.00  0.00    -0.390 OA
HETATM   19  C1  UNL     1      25.665   5.251  49.772  1.00  0.00     0.201 C 
ENDBRANCH  17  18
ENDBRANCH  16  17
BRANCH  16  20
HETATM   20  O2  UNL     1      25.028   2.915  52.712  1.00  0.00    -0.358 OA
HETATM   21  C15 UNL     1      23.869   3.659  52.908  1.00  0.00     0.209 C 
ENDBRANCH  16  20
ENDBRANCH   1  15
TORSDOF 7
ENDMDL
MODEL 3
REMARK VINA RESULT:      -6.4      2.319      4.451
REMARK  7 active torsions:
REMARK  status: ('A' for Active; 'I' for Inactive)
REMARK    1  A    between atoms: O1_2  and  C2_3 
REMARK    2  A    between atoms: C2_3  and  C3_4 
REMARK    3  A    between atoms: C3_4  and  O2_19 
REMARK    4  A    between atoms: C4_5  and  C5_6 
REMARK    5  A    between atoms: C8_11  and  N3_12 
REMARK    6  A    between atoms: N3_12  and  C9_13 
REMARK    7  A    between atoms: C10_14  and  C11_15 
ROOT
HETATM    1  C5  UNL     1      24.250   0.321  53.470  1.00  0.00     0.030 A 
HETATM    2  C6  UNL     1      23.556  -0.891  53.519  1.00  0.00     0.133 A 
HETATM    3  N1  UNL     1      22.355  -0.972  52.881  1.00  0.00    -0.253 NA
HETATM    4  C7  UNL     1      21.875   0.102  52.230  1.00  0.00     0.234 A 
HETATM    5  N2  UNL     1      22.555   1.255  52.194  1.00  0.00    -0.224 NA
HETATM    6  C8  UNL     1      23.746   1.419  52.796  1.00  0.00     0.140 A 
ENDROOT
BRANCH   6   7
HETATM    7  N3  UNL     1      24.427   2.664  52.723  1.00  0.00    -0.350 N 
HETATM    8  H9  UNL     1      24.286   3.406  53.437  1.00  0.00     0.166 HD
BRANCH   7   9
HETATM    9  C9  UNL     1      25.325   2.934  51.658  1.00  0.00     0.090 C 
HETATM   10  C10 UNL     1      25.270   3.106  50.351  1.00  0.00     0.017 C 
BRANCH  10  11
HETATM   11  C11 UNL     1      26.504   3.369  49.663  1.00  0.00     0.003 C 
HETATM   12  C12 UNL     1      26.710   4.588  49.205  1.00  0.00    -0.088 C 
HETATM   13  C13 UNL     1      27.978   4.920  48.478  1.00  0.00     0.043 C 
HETATM   14  C14 UNL     1      25.713   5.681  49.378  1.00  0.00     0.043 C 
ENDBRANCH  10  11
ENDBRANCH   7   9
ENDBRANCH   6   7
BRANCH   1  15
HETATM   15  C4  UNL     1      25.561   0.480  54.135  1.00  0.00     0.051 C 
HETATM   16  C3  UNL     1      26.754   0.023  53.712  1.00  0.00     0.070 C 
BRANCH  16  17
HETATM   17  C2  UNL     1      28.007   0.269  54.505  1.00  0.00     0.231 C 
BRANCH  17  18
HETATM   18  O1  UNL     1      28.956   0.917  53.700  1.00  0.00    -0.390 OA
HETATM   19  C1  UNL     1      28.840   2.301  53.808  1.00  0.00     0.201 C 
ENDBRANCH  17  18
ENDBRANCH  16  17
BRANCH  16  20
HETATM   20  O2  UNL     1      26.783  -0.673  52.529  1.00  0.00    -0.358 OA
HETATM   21  C15 UNL     1      26.936  -2.045  52.356  1.00  0.00     0.209 C 
ENDBRANCH  16  20
ENDBRANCH   1  15
TORSDOF 7
ENDMDL
MODEL 4
REMARK VINA RESULT:      -6.4      1.104      1.384
REMARK  7 active torsions:
REMARK  status: ('A' for Active; 'I' for Inactive)
REMARK    1  A    between atoms: O1_2  and  C2_3 
REMARK    2  A    between atoms: C2_3  and  C3_4 
REMARK    3  A    between atoms: C3_4  and  O2_19 
REMARK    4  A    between atoms: C4_5  and  C5_6 
REMARK    5  A    between atoms: C8_11  and  N3_12 
REMARK    6  A    between atoms: N3_12  and  C9_13 
REMARK    7  A    between atoms: C10_14  and  C11_15 
ROOT
HETATM    1  C5  UNL     1      25.968   1.238  53.125  1.00  0.00     0.030 A 
HETATM    2  C6  UNL     1      26.558   0.860  54.333  1.00  0.00     0.133 A 
HETATM    3  N1  UNL     1      27.835   1.268  54.583  1.00  0.00    -0.253 NA
HETATM    4  C7  UNL     1      28.483   2.012  53.671  1.00  0.00     0.234 A 
HETATM    5  N2  UNL     1      27.902   2.366  52.518  1.00  0.00    -0.224 NA
HETATM    6  C8  UNL     1      26.646   2.006  52.195  1.00  0.00     0.140 A 
ENDROOT
BRANCH   6   7
HETATM    7  N3  UNL     1      26.076   2.412  50.958  1.00  0.00    -0.350 N 
HETATM    8  H9  UNL     1      25.138   2.083  50.655  1.00  0.00     0.166 HD
BRANCH   7   9
HETATM    9  C9  UNL     1      26.782   3.286  50.091  1.00  0.00     0.090 C 
HETATM   10  C10 UNL     1      26.518   4.330  49.328  1.00  0.00     0.017 C 
BRANCH  10  11
HETATM   11  C11 UNL     1      27.611   4.912  48.597  1.00  0.00     0.003 C 
HETATM   12  C12 UNL     1      27.571   6.206  48.349  1.00  0.00    -0.088 C 
HETATM   13  C13 UNL     1      28.682   6.866  47.589  1.00  0.00     0.043 C 
HETATM   14  C14 UNL     1      26.442   7.067  48.797  1.00  0.00     0.043 C 
ENDBRANCH  10  11
ENDBRANCH   7   9
ENDBRANCH   6   7
BRANCH   1  15
HETATM   15  C4  UNL     1      24.585   0.837  52.788  1.00  0.00     0.051 C 
HETATM   16  C3  UNL     1      23.494   1.622  52.745  1.00  0.00     0.070 C 
BRANCH  16  17
HETATM   17  C2  UNL     1      22.146   1.062  52.383  1.00  0.00     0.231 C 
BRANCH  17  18
HETATM   18  O1  UNL     1      21.371   0.909  53.543  1.00  0.00    -0.390 OA
HETATM   19  C1  UNL     1      21.202  -0.438  53.855  1.00  0.00     0.201 C 
ENDBRANCH  17  18
ENDBRANCH  16  17
BRANCH  16  20
HETATM   20  O2  UNL     1      23.657   2.952  53.042  1.00  0.00    -0.358 OA
HETATM   21  C15 UNL     1      23.140   4.045  52.354  1.00  0.00     0.209 C 
ENDBRANCH  16  20
ENDBRANCH   1  15
TORSDOF 7
ENDMDL
MODEL 5
REMARK VINA RESULT:      -6.2      2.314      5.407
REMARK  7 active torsions:
REMARK  status: ('A' for Active; 'I' for Inactive)
REMARK    1  A    between atoms: O1_2  and  C2_3 
REMARK    2  A    between atoms: C2_3  and  C3_4 
REMARK    3  A    between atoms: C3_4  and  O2_19 
REMARK    4  A    between atoms: C4_5  and  C5_6 
REMARK    5  A    between atoms: C8_11  and  N3_12 
REMARK    6  A    between atoms: N3_12  and  C9_13 
REMARK    7  A    between atoms: C10_14  and  C11_15 
ROOT
HETATM    1  C5  UNL     1      27.056   1.315  53.898  1.00  0.00     0.030 A 
HETATM    2  C6  UNL     1      28.302   1.780  53.467  1.00  0.00     0.133 A 
HETATM    3  N1  UNL     1      29.367   0.933  53.538  1.00  0.00    -0.253 NA
HETATM    4  C7  UNL     1      29.193  -0.312  54.015  1.00  0.00     0.234 A 
HETATM    5  N2  UNL     1      27.992  -0.740  54.423  1.00  0.00    -0.224 NA
HETATM    6  C8  UNL     1      26.891   0.032  54.386  1.00  0.00     0.140 A 
ENDROOT
BRANCH   6   7
HETATM    7  N3  UNL     1      25.640  -0.476  54.829  1.00  0.00    -0.350 N 
HETATM    8  H9  UNL     1      25.513  -0.855  55.788  1.00  0.00     0.166 HD
BRANCH   7   9
HETATM    9  C9  UNL     1      24.516  -0.482  53.962  1.00  0.00     0.090 C 
HETATM   10  C10 UNL     1      23.242  -0.824  54.013  1.00  0.00     0.017 C 
BRANCH  10  11
HETATM   11  C11 UNL     1      22.456  -0.638  52.824  1.00  0.00     0.003 C 
HETATM   12  C12 UNL     1      21.283  -0.049  52.943  1.00  0.00    -0.088 C 
HETATM   13  C13 UNL     1      20.420   0.170  51.737  1.00  0.00     0.043 C 
HETATM   14  C14 UNL     1      20.759   0.422  54.254  1.00  0.00     0.043 C 
ENDBRANCH  10  11
ENDBRANCH   7   9
ENDBRANCH   6   7
BRANCH   1  15
HETATM   15  C4  UNL     1      25.856   2.177  53.845  1.00  0.00     0.051 C 
HETATM   16  C3  UNL     1      25.185   2.578  52.751  1.00  0.00     0.070 C 
BRANCH  16  17
HETATM   17  C2  UNL     1      23.973   3.461  52.861  1.00  0.00     0.231 C 
BRANCH  17  18
HETATM   18  O1  UNL     1      22.891   2.862  52.197  1.00  0.00    -0.390 OA
HETATM   19  C1  UNL     1      21.803   3.730  52.133  1.00  0.00     0.201 C 
ENDBRANCH  17  18
ENDBRANCH  16  17
BRANCH  16  20
HETATM   20  O2  UNL     1      25.647   2.151  51.531  1.00  0.00    -0.358 OA
HETATM   21  C15 UNL     1      26.260   2.914  50.541  1.00  0.00     0.209 C 
ENDBRANCH  16  20
ENDBRANCH   1  15
TORSDOF 7
ENDMDL
MODEL 6
REMARK VINA RESULT:      -6.2      1.681      2.259
REMARK  7 active torsions:
REMARK  status: ('A' for Active; 'I' for Inactive)
REMARK    1  A    between atoms: O1_2  and  C2_3 
REMARK    2  A    between atoms: C2_3  and  C3_4 
REMARK    3  A    between atoms: C3_4  and  O2_19 
REMARK    4  A    between atoms: C4_5  and  C5_6 
REMARK    5  A    between atoms: C8_11  and  N3_12 
REMARK    6  A    between atoms: N3_12  and  C9_13 
REMARK    7  A    between atoms: C10_14  and  C11_15 
ROOT
HETATM    1  C5  UNL     1      25.377   2.380  52.792  1.00  0.00     0.030 A 
HETATM    2  C6  UNL     1      25.869   2.082  54.065  1.00  0.00     0.133 A 
HETATM    3  N1  UNL     1      27.217   1.955  54.222  1.00  0.00    -0.253 NA
HETATM    4  C7  UNL     1      28.026   2.118  53.162  1.00  0.00     0.234 A 
HETATM    5  N2  UNL     1      27.537   2.404  51.949  1.00  0.00    -0.224 NA
HETATM    6  C8  UNL     1      26.221   2.546  51.709  1.00  0.00     0.140 A 
ENDROOT
BRANCH   6   7
HETATM    7  N3  UNL     1      25.756   2.853  50.401  1.00  0.00    -0.350 N 
HETATM    8  H9  UNL     1      25.109   2.221  49.889  1.00  0.00     0.166 HD
BRANCH   7   9
HETATM    9  C9  UNL     1      26.169   4.045  49.750  1.00  0.00     0.090 C 
HETATM   10  C10 UNL     1      27.144   4.435  48.950  1.00  0.00     0.017 C 
BRANCH  10  11
HETATM   11  C11 UNL     1      27.147   5.810  48.530  1.00  0.00     0.003 C 
HETATM   12  C12 UNL     1      28.290   6.332  48.132  1.00  0.00    -0.088 C 
HETATM   13  C13 UNL     1      28.354   7.762  47.684  1.00  0.00     0.043 C 
HETATM   14  C14 UNL     1      29.556   5.549  48.106  1.00  0.00     0.043 C 
ENDBRANCH  10  11
ENDBRANCH   7   9
ENDBRANCH   6   7
BRANCH   1  15
HETATM   15  C4  UNL     1      23.927   2.536  52.547  1.00  0.00     0.051 C 
HETATM   16  C3  UNL     1      22.997   1.566  52.496  1.00  0.00     0.070 C 
BRANCH  16  17
HETATM   17  C2  UNL     1      21.551   1.887  52.236  1.00  0.00     0.231 C 
BRANCH  17  18
HETATM   18  O1  UNL     1      21.136   1.266  51.048  1.00  0.00    -0.390 OA
HETATM   19  C1  UNL     1      20.054   0.419  51.279  1.00  0.00     0.201 C 
ENDBRANCH  17  18
ENDBRANCH  16  17
BRANCH  16  20
HETATM   20  O2  UNL     1      23.417   0.274  52.691  1.00  0.00    -0.358 OA
HETATM   21  C15 UNL     1      22.973  -0.626  53.655  1.00  0.00     0.209 C 
ENDBRANCH  16  20
ENDBRANCH   1  15
TORSDOF 7
ENDMDL
MODEL 7
REMARK VINA RESULT:      -5.9      3.519      5.436
REMARK  7 active torsions:
REMARK  status: ('A' for Active; 'I' for Inactive)
REMARK    1  A    between atoms: O1_2  and  C2_3 
REMARK    2  A    between atoms: C2_3  and  C3_4 
REMARK    3  A    between atoms: C3_4  and  O2_19 
REMARK    4  A    between atoms: C4_5  and  C5_6 
REMARK    5  A    between atoms: C8_11  and  N3_12 
REMARK    6  A    between atoms: N3_12  and  C9_13 
REMARK    7  A    between atoms: C10_14  and  C11_15 
ROOT
HETATM    1  C5  UNL     1      24.309  -0.594  54.608  1.00  0.00     0.030 A 
HETATM    2  C6  UNL     1      23.637  -1.309  55.603  1.00  0.00     0.133 A 
HETATM    3  N1  UNL     1      22.403  -1.810  55.316  1.00  0.00    -0.253 NA
HETATM    4  C7  UNL     1      21.871  -1.606  54.099  1.00  0.00     0.234 A 
HETATM    5  N2  UNL     1      22.529  -0.919  53.157  1.00  0.00    -0.224 NA
HETATM    6  C8  UNL     1      23.750  -0.392  53.359  1.00  0.00     0.140 A 
ENDROOT
BRANCH   6   7
HETATM    7  N3  UNL     1      24.405   0.326  52.322  1.00  0.00    -0.350 N 
HETATM    8  H9  UNL     1      25.245  -0.054  51.841  1.00  0.00     0.166 HD
BRANCH   7   9
HETATM    9  C9  UNL     1      23.927   1.598  51.911  1.00  0.00     0.090 C 
HETATM   10  C10 UNL     1      22.872   2.092  51.291  1.00  0.00     0.017 C 
BRANCH  10  11
HETATM   11  C11 UNL     1      22.827   3.515  51.090  1.00  0.00     0.003 C 
HETATM   12  C12 UNL     1      21.782   4.173  51.552  1.00  0.00    -0.088 C 
HETATM   13  C13 UNL     1      21.681   5.657  51.370  1.00  0.00     0.043 C 
HETATM   14  C14 UNL     1      20.665   3.492  52.264  1.00  0.00     0.043 C 
ENDBRANCH  10  11
ENDBRANCH   7   9
ENDBRANCH   6   7
BRANCH   1  15
HETATM   15  C4  UNL     1      25.652  -0.026  54.846  1.00  0.00     0.051 C 
HETATM   16  C3  UNL     1      26.833  -0.511  54.420  1.00  0.00     0.070 C 
BRANCH  16  17
HETATM   17  C2  UNL     1      28.124   0.186  54.747  1.00  0.00     0.231 C 
BRANCH  17  18
HETATM   18  O1  UNL     1      27.973   1.569  54.562  1.00  0.00    -0.390 OA
HETATM   19  C1  UNL     1      28.201   1.922  53.234  1.00  0.00     0.201 C 
ENDBRANCH  17  18
ENDBRANCH  16  17
BRANCH  16  20
HETATM   20  O2  UNL     1      26.813  -1.665  53.677  1.00  0.00    -0.358 OA
HETATM   21  C15 UNL     1      27.173  -1.820  52.342  1.00  0.00     0.209 C 
ENDBRANCH  16  20
ENDBRANCH   1  15
TORSDOF 7
ENDMDL
MODEL 8
REMARK VINA RESULT:      -5.9      2.985      4.765
REMARK  7 active torsions:
REMARK  status: ('A' for Active; 'I' for Inactive)
REMARK    1  A    between atoms: O1_2  and  C2_3 
REMARK    2  A    between atoms: C2_3  and  C3_4 
REMARK    3  A    between atoms: C3_4  and  O2_19 
REMARK    4  A    between atoms: C4_5  and  C5_6 
REMARK    5  A    between atoms: C8_11  and  N3_12 
REMARK    6  A    between atoms: N3_12  and  C9_13 
REMARK    7  A    between atoms: C10_14  and  C11_15 
ROOT
HETATM    1  C5  UNL     1      23.478  -0.515  53.731  1.00  0.00     0.030 A 
HETATM    2  C6  UNL     1      22.811  -1.178  54.763  1.00  0.00     0.133 A 
HETATM    3  N1  UNL     1      21.548  -0.776  55.079  1.00  0.00    -0.253 NA
HETATM    4  C7  UNL     1      20.985   0.237  54.397  1.00  0.00     0.234 A 
HETATM    5  N2  UNL     1      21.639   0.861  53.410  1.00  0.00    -0.224 NA
HETATM    6  C8  UNL     1      22.887   0.525  53.036  1.00  0.00     0.140 A 
ENDROOT
BRANCH   6   7
HETATM    7  N3  UNL     1      23.535   1.220  51.979  1.00  0.00    -0.350 N 
HETATM    8  H9  UNL     1      24.078   0.718  51.249  1.00  0.00     0.166 HD
BRANCH   7   9
HETATM    9  C9  UNL     1      23.457   2.635  51.891  1.00  0.00     0.090 C 
HETATM   10  C10 UNL     1      24.038   3.605  51.211  1.00  0.00     0.017 C 
BRANCH  10  11
HETATM   11  C11 UNL     1      23.607   4.951  51.477  1.00  0.00     0.003 C 
HETATM   12  C12 UNL     1      23.446   5.763  50.451  1.00  0.00    -0.088 C 
HETATM   13  C13 UNL     1      23.000   7.178  50.669  1.00  0.00     0.043 C 
HETATM   14  C14 UNL     1      23.694   5.331  49.048  1.00  0.00     0.043 C 
ENDBRANCH  10  11
ENDBRANCH   7   9
ENDBRANCH   6   7
BRANCH   1  15
HETATM   15  C4  UNL     1      24.848  -0.901  53.331  1.00  0.00     0.051 C 
HETATM   16  C3  UNL     1      25.988  -0.222  53.556  1.00  0.00     0.070 C 
BRANCH  16  17
HETATM   17  C2  UNL     1      27.314  -0.749  53.083  1.00  0.00     0.231 C 
BRANCH  17  18
HETATM   18  O1  UNL     1      28.166  -0.937  54.182  1.00  0.00    -0.390 OA
HETATM   19  C1  UNL     1      29.459  -0.509  53.889  1.00  0.00     0.201 C 
ENDBRANCH  17  18
ENDBRANCH  16  17
BRANCH  16  20
HETATM   20  O2  UNL     1      25.894   0.968  54.233  1.00  0.00    -0.358 OA
HETATM   21  C15 UNL     1      26.424   2.200  53.863  1.00  0.00     0.209 C 
ENDBRANCH  16  20
ENDBRANCH   1  15
TORSDOF 7
ENDMDL
MODEL 9
REMARK VINA RESULT:      -5.8      3.127      6.326
REMARK  7 active torsions:
REMARK  status: ('A' for Active; 'I' for Inactive)
REMARK    1  A    between atoms: O1_2  and  C2_3 
REMARK    2  A    between atoms: C2_3  and  C3_4 
REMARK    3  A    between atoms: C3_4  and  O2_19 
REMARK    4  A    between atoms: C4_5  and  C5_6 
REMARK    5  A    between atoms: C8_11  and  N3_12 
REMARK    6  A    between atoms: N3_12  and  C9_13 
REMARK    7  A    between atoms: C10_14  and  C11_15 
ROOT
HETATM    1  C5  UNL     1      21.592   0.759  52.997  1.00  0.00     0.030 A 
HETATM    2  C6  UNL     1      20.413   0.066  53.284  1.00  0.00     0.133 A 
HETATM    3  N1  UNL     1      20.508  -1.128  53.934  1.00  0.00    -0.253 NA
HETATM    4  C7  UNL     1      21.718  -1.603  54.275  1.00  0.00     0.234 A 
HETATM    5  N2  UNL     1      22.838  -0.925  53.992  1.00  0.00    -0.224 NA
HETATM    6  C8  UNL     1      22.832   0.259  53.355  1.00  0.00     0.140 A 
ENDROOT
BRANCH   6   7
HETATM    7  N3  UNL     1      24.051   0.937  53.082  1.00  0.00    -0.350 N 
HETATM    8  H9  UNL     1      24.074   1.955  52.874  1.00  0.00     0.166 HD
BRANCH   7   9
HETATM    9  C9  UNL     1      25.284   0.234  53.084  1.00  0.00     0.090 C 
HETATM   10  C10 UNL     1      26.273  -0.003  53.925  1.00  0.00     0.017 C 
BRANCH  10  11
HETATM   11  C11 UNL     1      27.365  -0.810  53.454  1.00  0.00     0.003 C 
HETATM   12  C12 UNL     1      28.590  -0.442  53.776  1.00  0.00    -0.088 C 
HETATM   13  C13 UNL     1      29.768  -1.245  53.311  1.00  0.00     0.043 C 
HETATM   14  C14 UNL     1      28.867   0.765  54.602  1.00  0.00     0.043 C 
ENDBRANCH  10  11
ENDBRANCH   7   9
ENDBRANCH   6   7
BRANCH   1  15
HETATM   15  C4  UNL     1      21.566   2.062  52.300  1.00  0.00     0.051 C 
HETATM   16  C3  UNL     1      21.623   2.281  50.974  1.00  0.00     0.070 C 
BRANCH  16  17
HETATM   17  C2  UNL     1      21.585   3.676  50.413  1.00  0.00     0.231 C 
BRANCH  17  18
HETATM   18  O1  UNL     1      22.562   4.464  51.042  1.00  0.00    -0.390 OA
HETATM   19  C1  UNL     1      23.785   4.359  50.385  1.00  0.00     0.201 C 
ENDBRANCH  17  18
ENDBRANCH  16  17
BRANCH  16  20
HETATM   20  O2  UNL     1      21.715   1.185  50.153  1.00  0.00    -0.358 OA
HETATM   21  C15 UNL     1      21.500   1.133  48.779  1.00  0.00     0.209 C 
ENDBRANCH  16  20
ENDBRANCH   1  15
TORSDOF 7
ENDMDL
