MODEL 1
REMARK VINA RESULT:      -8.9      0.000      0.000
REMARK  5 active torsions:
REMARK  status: ('A' for Active; 'I' for Inactive)
REMARK    1  A    between atoms: N1_1  and  C1_2 
REMARK    2  A    between atoms: C2_4  and  N3_5 
REMARK    3  A    between atoms: N3_5  and  C3_6 
REMARK    4  A    between atoms: C11_16  and  C12_17 
REMARK    5  A    between atoms: C12_17  and  C13_18 
ROOT
HETATM    1  C1  UNL     1      23.539   4.453  52.593  1.00  0.00     0.137 C 
HETATM    2  N2  UNL     1      23.660   3.195  52.998  1.00  0.00    -0.215 NA
HETATM    3  C2  UNL     1      23.444   1.977  52.209  1.00  0.00     0.138 C 
HETATM    4  C9  UNL     1      23.053   2.483  51.029  1.00  0.00     0.016 C 
HETATM    5  C10 UNL     1      23.988   2.860  49.910  1.00  0.00     0.018 C 
HETATM    6  C11 UNL     1      23.623   4.172  50.096  1.00  0.00    -0.035 C 
HETATM    7  C19 UNL     1      22.931   4.845  51.264  1.00  0.00     0.318 C 
HETATM    8  N4  UNL     1      21.562   4.334  51.189  1.00  0.00     0.103 N 
HETATM    9  C20 UNL     1      21.605   2.914  50.730  1.00  0.00     0.313 C 
HETATM   10  H16 UNL     1      21.101   4.940  50.460  1.00  0.00     0.317 HD
ENDROOT
BRANCH   3  11
HETATM   11  N3  UNL     1      23.788   0.978  53.198  1.00  0.00    -0.340 N 
HETATM   12  H3  UNL     1      22.960   0.639  53.691  1.00  0.00     0.167 HD
BRANCH  11  13
HETATM   13  C3  UNL     1      25.213   0.740  53.210  1.00  0.00     0.035 A 
HETATM   14  C4  UNL     1      25.414  -0.587  52.877  1.00  0.00     0.032 A 
HETATM   15  C5  UNL     1      26.707  -1.123  52.810  1.00  0.00     0.046 A 
HETATM   16  C6  UNL     1      27.776  -0.289  53.087  1.00  0.00     0.133 A 
HETATM   17  F1  UNL     1      29.057  -0.727  53.044  1.00  0.00    -0.205 F 
HETATM   18  C7  UNL     1      27.548   1.030  53.417  1.00  0.00     0.051 A 
HETATM   19 BR1  UNL     1      28.948   2.280  53.831  1.00  0.00    -0.048 Br
HETATM   20  C8  UNL     1      26.279   1.565  53.484  1.00  0.00     0.051 A 
ENDBRANCH  11  13
ENDBRANCH   3  11
BRANCH   1  21
HETATM   21  N1  UNL     1      24.033   5.493  53.516  1.00  0.00    -0.385 N 
HETATM   22  H1  UNL     1      23.722   6.502  53.523  1.00  0.00     0.157 HD
HETATM   23  H2  UNL     1      24.742   5.095  54.171  1.00  0.00     0.157 HD
ENDBRANCH   1  21
BRANCH   6  24
HETATM   24  C12 UNL     1      23.896   5.203  48.994  1.00  0.00     0.075 C 
BRANCH  24  25
HETATM   25  C13 UNL     1      25.320   5.430  48.799  1.00  0.00    -0.054 A 
HETATM   26  C14 UNL     1      25.687   6.687  48.300  1.00  0.00     0.007 A 
HETATM   27  C15 UNL     1      26.998   7.045  48.069  1.00  0.00     0.001 A 
HETATM   28  C16 UNL     1      28.036   6.138  48.333  1.00  0.00     0.000 A 
HETATM   29  C17 UNL     1      27.651   4.894  48.828  1.00  0.00     0.001 A 
HETATM   30  C18 UNL     1      26.332   4.561  49.050  1.00  0.00     0.007 A 
ENDBRANCH  24  25
ENDBRANCH   6  24
TORSDOF 5
ENDMDL
MODEL 2
REMARK VINA RESULT:      -8.9      2.969      6.606
REMARK  5 active torsions:
REMARK  status: ('A' for Active; 'I' for Inactive)
REMARK    1  A    between atoms: N1_1  and  C1_2 
REMARK    2  A    between atoms: C2_4  and  N3_5 
REMARK    3  A    between atoms: N3_5  and  C3_6 
REMARK    4  A    between atoms: C11_16  and  C12_17 
REMARK    5  A    between atoms: C12_17  and  C13_18 
ROOT
HETATM    1  C1  UNL     1      22.779   1.245  51.141  1.00  0.00     0.137 C 
HETATM    2  N2  UNL     1      23.158   2.236  50.345  1.00  0.00    -0.215 NA
HETATM    3  C2  UNL     1      24.378   3.045  50.443  1.00  0.00     0.138 C 
HETATM    4  C9  UNL     1      24.945   2.548  51.555  1.00  0.00     0.016 C 
HETATM    5  C10 UNL     1      25.897   1.382  51.578  1.00  0.00     0.018 C 
HETATM    6  C11 UNL     1      24.949   0.668  52.272  1.00  0.00    -0.035 C 
HETATM    7  C19 UNL     1      23.465   0.918  52.449  1.00  0.00     0.318 C 
HETATM    8  N4  UNL     1      23.418   2.089  53.325  1.00  0.00     0.103 N 
HETATM    9  C20 UNL     1      24.554   2.994  52.976  1.00  0.00     0.313 C 
HETATM   10  H16 UNL     1      23.552   1.692  54.292  1.00  0.00     0.317 HD
ENDROOT
BRANCH   3  11
HETATM   11  N3  UNL     1      24.214   3.883  49.275  1.00  0.00    -0.340 N 
HETATM   12  H3  UNL     1      23.538   3.485  48.621  1.00  0.00     0.167 HD
BRANCH  11  13
HETATM   13  C3  UNL     1      25.055   5.054  49.365  1.00  0.00     0.035 A 
HETATM   14  C4  UNL     1      24.451   5.933  50.244  1.00  0.00     0.032 A 
HETATM   15  C5  UNL     1      25.034   7.174  50.534  1.00  0.00     0.046 A 
HETATM   16  C6  UNL     1      26.230   7.495  49.916  1.00  0.00     0.133 A 
HETATM   17  F1  UNL     1      26.860   8.673  50.142  1.00  0.00    -0.205 F 
HETATM   18  C7  UNL     1      26.812   6.601  49.043  1.00  0.00     0.051 A 
HETATM   19 BR1  UNL     1      28.462   6.938  48.119  1.00  0.00    -0.048 Br
HETATM   20  C8  UNL     1      26.245   5.379  48.753  1.00  0.00     0.051 A 
ENDBRANCH  11  13
ENDBRANCH   3  11
BRANCH   1  21
HETATM   21  N1  UNL     1      21.623   0.445  50.692  1.00  0.00    -0.385 N 
HETATM   22  H1  UNL     1      21.257  -0.424  51.169  1.00  0.00     0.157 HD
HETATM   23  H2  UNL     1      21.207   0.854  49.826  1.00  0.00     0.157 HD
ENDBRANCH   1  21
BRANCH   6  24
HETATM   24  C12 UNL     1      25.356  -0.592  53.044  1.00  0.00     0.075 C 
BRANCH  24  25
HETATM   25  C13 UNL     1      26.741  -0.537  53.488  1.00  0.00    -0.054 A 
HETATM   26  C14 UNL     1      27.633  -1.412  52.854  1.00  0.00     0.007 A 
HETATM   27  C15 UNL     1      28.974  -1.468  53.167  1.00  0.00     0.001 A 
HETATM   28  C16 UNL     1      29.505  -0.628  54.158  1.00  0.00     0.000 A 
HETATM   29  C17 UNL     1      28.602   0.235  54.777  1.00  0.00     0.001 A 
HETATM   30  C18 UNL     1      27.265   0.271  54.445  1.00  0.00     0.007 A 
ENDBRANCH  24  25
ENDBRANCH   6  24
TORSDOF 5
ENDMDL
MODEL 3
REMARK VINA RESULT:      -8.9      3.493      5.797
REMARK  5 active torsions:
REMARK  status: ('A' for Active; 'I' for Inactive)
REMARK    1  A    between atoms: N1_1  and  C1_2 
REMARK    2  A    between atoms: C2_4  and  N3_5 
REMARK    3  A    between atoms: N3_5  and  C3_6 
REMARK    4  A    between atoms: C11_16  and  C12_17 
REMARK    5  A    between atoms: C12_17  and  C13_18 
ROOT
HETATM    1  C1  UNL     1      23.449   4.622  52.279  1.00  0.00     0.137 C 
HETATM    2  N2  UNL     1      22.200   4.177  52.216  1.00  0.00    -0.215 NA
HETATM    3  C2  UNL     1      21.649   3.189  51.281  1.00  0.00     0.138 C 
HETATM    4  C9  UNL     1      22.715   2.922  50.509  1.00  0.00     0.016 C 
HETATM    5  C10 UNL     1      23.733   1.852  50.802  1.00  0.00     0.018 C 
HETATM    6  C11 UNL     1      24.668   2.843  50.987  1.00  0.00    -0.035 C 
HETATM    7  C19 UNL     1      24.491   4.329  51.223  1.00  0.00     0.318 C 
HETATM    8  N4  UNL     1      24.022   4.827  49.930  1.00  0.00     0.103 N 
HETATM    9  C20 UNL     1      23.135   3.796  49.313  1.00  0.00     0.313 C 
HETATM   10  H16 UNL     1      24.903   4.937  49.361  1.00  0.00     0.317 HD
ENDROOT
BRANCH   3  11
HETATM   11  N3  UNL     1      20.290   3.116  51.772  1.00  0.00    -0.340 N 
HETATM   12  H3  UNL     1      19.812   4.014  51.688  1.00  0.00     0.167 HD
BRANCH  11  13
HETATM   13  C3  UNL     1      19.990   1.783  52.244  1.00  0.00     0.035 A 
HETATM   14  C4  UNL     1      18.749   1.435  51.742  1.00  0.00     0.032 A 
HETATM   15  C5  UNL     1      18.179   0.189  52.035  1.00  0.00     0.046 A 
HETATM   16  C6  UNL     1      18.890  -0.682  52.840  1.00  0.00     0.133 A 
HETATM   17  F1  UNL     1      18.413  -1.906  53.170  1.00  0.00    -0.205 F 
HETATM   18  C7  UNL     1      20.126  -0.311  53.328  1.00  0.00     0.051 A 
HETATM   19 BR1  UNL     1      21.201  -1.429  54.462  1.00  0.00    -0.048 Br
HETATM   20  C8  UNL     1      20.693   0.912  53.044  1.00  0.00     0.051 A 
ENDBRANCH  11  13
ENDBRANCH   3  11
BRANCH   1  21
HETATM   21  N1  UNL     1      23.796   5.443  53.455  1.00  0.00    -0.385 N 
HETATM   22  H1  UNL     1      23.793   5.108  54.458  1.00  0.00     0.157 HD
HETATM   23  H2  UNL     1      24.050   6.412  53.164  1.00  0.00     0.157 HD
ENDBRANCH   1  21
BRANCH   6  24
HETATM   24  C12 UNL     1      26.162   2.501  50.945  1.00  0.00     0.075 C 
BRANCH  24  25
HETATM   25  C13 UNL     1      26.520   1.497  51.937  1.00  0.00    -0.054 A 
HETATM   26  C14 UNL     1      26.770   1.966  53.233  1.00  0.00     0.007 A 
HETATM   27  C15 UNL     1      27.115   1.131  54.275  1.00  0.00     0.001 A 
HETATM   28  C16 UNL     1      27.230  -0.251  54.065  1.00  0.00     0.000 A 
HETATM   29  C17 UNL     1      26.978  -0.697  52.769  1.00  0.00     0.001 A 
HETATM   30  C18 UNL     1      26.635   0.159  51.744  1.00  0.00     0.007 A 
ENDBRANCH  24  25
ENDBRANCH   6  24
TORSDOF 5
ENDMDL
MODEL 4
REMARK VINA RESULT:      -8.7      3.248      3.696
REMARK  5 active torsions:
REMARK  status: ('A' for Active; 'I' for Inactive)
REMARK    1  A    between atoms: N1_1  and  C1_2 
REMARK    2  A    between atoms: C2_4  and  N3_5 
REMARK    3  A    between atoms: N3_5  and  C3_6 
REMARK    4  A    between atoms: C11_16  and  C12_17 
REMARK    5  A    between atoms: C12_17  and  C13_18 
ROOT
HETATM    1  C1  UNL     1      23.719   4.482  52.269  1.00  0.00     0.137 C 
HETATM    2  N2  UNL     1      23.907   3.186  52.479  1.00  0.00    -0.215 NA
HETATM    3  C2  UNL     1      23.955   2.115  51.475  1.00  0.00     0.138 C 
HETATM    4  C9  UNL     1      23.709   2.793  50.343  1.00  0.00     0.016 C 
HETATM    5  C10 UNL     1      24.768   3.437  49.487  1.00  0.00     0.018 C 
HETATM    6  C11 UNL     1      24.238   4.662  49.816  1.00  0.00    -0.035 C 
HETATM    7  C19 UNL     1      23.297   5.057  50.935  1.00  0.00     0.318 C 
HETATM    8  N4  UNL     1      22.021   4.463  50.534  1.00  0.00     0.103 N 
HETATM    9  C20 UNL     1      22.291   3.156  49.864  1.00  0.00     0.313 C 
HETATM   10  H16 UNL     1      21.623   5.152  49.843  1.00  0.00     0.317 HD
ENDROOT
BRANCH   3  11
HETATM   11  N3  UNL     1      24.239   0.985  52.333  1.00  0.00    -0.340 N 
HETATM   12  H3  UNL     1      25.243   0.865  52.475  1.00  0.00     0.167 HD
BRANCH  11  13
HETATM   13  C3  UNL     1      23.015   0.343  52.753  1.00  0.00     0.035 A 
HETATM   14  C4  UNL     1      23.334  -0.535  53.772  1.00  0.00     0.032 A 
HETATM   15  C5  UNL     1      22.346  -1.316  54.385  1.00  0.00     0.046 A 
HETATM   16  C6  UNL     1      21.041  -1.185  53.942  1.00  0.00     0.133 A 
HETATM   17  F1  UNL     1      20.026  -1.901  54.481  1.00  0.00    -0.205 F 
HETATM   18  C7  UNL     1      20.749  -0.303  52.924  1.00  0.00     0.051 A 
HETATM   19 BR1  UNL     1      18.980  -0.042  52.219  1.00  0.00    -0.048 Br
HETATM   20  C8  UNL     1      21.715   0.469  52.317  1.00  0.00     0.051 A 
ENDBRANCH  11  13
ENDBRANCH   3  11
BRANCH   1  21
HETATM   21  N1  UNL     1      23.940   5.375  53.423  1.00  0.00    -0.385 N 
HETATM   22  H1  UNL     1      24.856   5.840  53.670  1.00  0.00     0.157 HD
HETATM   23  H2  UNL     1      23.061   5.487  53.974  1.00  0.00     0.157 HD
ENDBRANCH   1  21
BRANCH   6  24
HETATM   24  C12 UNL     1      24.574   5.892  48.965  1.00  0.00     0.075 C 
BRANCH  24  25
HETATM   25  C13 UNL     1      25.991   5.963  48.642  1.00  0.00    -0.054 A 
HETATM   26  C14 UNL     1      26.427   7.134  48.008  1.00  0.00     0.007 A 
HETATM   27  C15 UNL     1      27.740   7.344  47.647  1.00  0.00     0.001 A 
HETATM   28  C16 UNL     1      28.710   6.364  47.909  1.00  0.00     0.000 A 
HETATM   29  C17 UNL     1      28.258   5.207  48.540  1.00  0.00     0.001 A 
HETATM   30  C18 UNL     1      26.937   5.022  48.890  1.00  0.00     0.007 A 
ENDBRANCH  24  25
ENDBRANCH   6  24
TORSDOF 5
ENDMDL
MODEL 5
REMARK VINA RESULT:      -8.4      4.367      7.829
REMARK  5 active torsions:
REMARK  status: ('A' for Active; 'I' for Inactive)
REMARK    1  A    between atoms: N1_1  and  C1_2 
REMARK    2  A    between atoms: C2_4  and  N3_5 
REMARK    3  A    between atoms: N3_5  and  C3_6 
REMARK    4  A    between atoms: C11_16  and  C12_17 
REMARK    5  A    between atoms: C12_17  and  C13_18 
ROOT
HETATM    1  C1  UNL     1      25.222   3.671  50.278  1.00  0.00     0.137 C 
HETATM    2  N2  UNL     1      24.965   4.883  50.752  1.00  0.00    -0.215 NA
HETATM    3  C2  UNL     1      24.015   5.247  51.809  1.00  0.00     0.138 C 
HETATM    4  C9  UNL     1      23.467   4.057  52.103  1.00  0.00     0.016 C 
HETATM    5  C10 UNL     1      24.010   3.099  53.131  1.00  0.00     0.018 C 
HETATM    6  C11 UNL     1      24.293   2.222  52.110  1.00  0.00    -0.035 C 
HETATM    7  C19 UNL     1      24.393   2.452  50.616  1.00  0.00     0.318 C 
HETATM    8  N4  UNL     1      23.006   2.683  50.213  1.00  0.00     0.103 N 
HETATM    9  C20 UNL     1      22.310   3.435  51.300  1.00  0.00     0.313 C 
HETATM   10  H16 UNL     1      22.599   1.715  50.122  1.00  0.00     0.317 HD
ENDROOT
BRANCH   3  11
HETATM   11  N3  UNL     1      24.257   6.672  51.879  1.00  0.00    -0.340 N 
HETATM   12  H3  UNL     1      24.945   6.900  52.599  1.00  0.00     0.167 HD
BRANCH  11  13
HETATM   13  C3  UNL     1      23.453   7.375  50.905  1.00  0.00     0.035 A 
HETATM   14  C4  UNL     1      24.309   8.143  50.138  1.00  0.00     0.032 A 
HETATM   15  C5  UNL     1      23.818   8.950  49.103  1.00  0.00     0.046 A 
HETATM   16  C6  UNL     1      22.455   8.957  48.870  1.00  0.00     0.133 A 
HETATM   17  F1  UNL     1      21.898   9.707  47.889  1.00  0.00    -0.205 F 
HETATM   18  C7  UNL     1      21.622   8.182  49.650  1.00  0.00     0.051 A 
HETATM   19 BR1  UNL     1      19.715   8.117  49.429  1.00  0.00    -0.048 Br
HETATM   20  C8  UNL     1      22.098   7.385  50.669  1.00  0.00     0.051 A 
ENDBRANCH  11  13
ENDBRANCH   3  11
BRANCH   1  21
HETATM   21  N1  UNL     1      26.383   3.549  49.375  1.00  0.00    -0.385 N 
HETATM   22  H1  UNL     1      26.651   2.681  48.836  1.00  0.00     0.157 HD
HETATM   23  H2  UNL     1      26.916   4.446  49.339  1.00  0.00     0.157 HD
ENDBRANCH   1  21
BRANCH   6  24
HETATM   24  C12 UNL     1      24.545   0.742  52.423  1.00  0.00     0.075 C 
BRANCH  24  25
HETATM   25  C13 UNL     1      23.391   0.112  53.049  1.00  0.00    -0.054 A 
HETATM   26  C14 UNL     1      23.628  -0.559  54.256  1.00  0.00     0.007 A 
HETATM   27  C15 UNL     1      22.632  -1.197  54.963  1.00  0.00     0.001 A 
HETATM   28  C16 UNL     1      21.313  -1.196  54.484  1.00  0.00     0.000 A 
HETATM   29  C17 UNL     1      21.098  -0.523  53.283  1.00  0.00     0.001 A 
HETATM   30  C18 UNL     1      22.112   0.108  52.595  1.00  0.00     0.007 A 
ENDBRANCH  24  25
ENDBRANCH   6  24
TORSDOF 5
ENDMDL
MODEL 6
REMARK VINA RESULT:      -8.2      3.852      7.303
REMARK  5 active torsions:
REMARK  status: ('A' for Active; 'I' for Inactive)
REMARK    1  A    between atoms: N1_1  and  C1_2 
REMARK    2  A    between atoms: C2_4  and  N3_5 
REMARK    3  A    between atoms: N3_5  and  C3_6 
REMARK    4  A    between atoms: C11_16  and  C12_17 
REMARK    5  A    between atoms: C12_17  and  C13_18 
ROOT
HETATM    1  C1  UNL     1      24.661   2.970  50.854  1.00  0.00     0.137 C 
HETATM    2  N2  UNL     1      24.590   4.215  51.309  1.00  0.00    -0.215 NA
HETATM    3  C2  UNL     1      23.380   4.998  51.585  1.00  0.00     0.138 C 
HETATM    4  C9  UNL     1      22.413   4.146  51.209  1.00  0.00     0.016 C 
HETATM    5  C10 UNL     1      21.776   3.125  52.115  1.00  0.00     0.018 C 
HETATM    6  C11 UNL     1      22.338   2.139  51.338  1.00  0.00    -0.035 C 
HETATM    7  C19 UNL     1      23.466   2.206  50.329  1.00  0.00     0.318 C 
HETATM    8  N4  UNL     1      22.877   2.940  49.208  1.00  0.00     0.103 N 
HETATM    9  C20 UNL     1      21.951   3.980  49.749  1.00  0.00     0.313 C 
HETATM   10  H16 UNL     1      22.334   2.209  48.678  1.00  0.00     0.317 HD
ENDROOT
BRANCH   3  11
HETATM   11  N3  UNL     1      23.983   6.211  52.094  1.00  0.00    -0.340 N 
HETATM   12  H3  UNL     1      24.035   6.204  53.114  1.00  0.00     0.167 HD
BRANCH  11  13
HETATM   13  C3  UNL     1      24.344   7.095  51.010  1.00  0.00     0.035 A 
HETATM   14  C4  UNL     1      23.178   7.666  50.533  1.00  0.00     0.032 A 
HETATM   15  C5  UNL     1      23.207   8.574  49.467  1.00  0.00     0.046 A 
HETATM   16  C6  UNL     1      24.432   8.883  48.903  1.00  0.00     0.133 A 
HETATM   17  F1  UNL     1      24.548   9.752  47.870  1.00  0.00    -0.205 F 
HETATM   18  C7  UNL     1      25.580   8.300  49.397  1.00  0.00     0.051 A 
HETATM   19 BR1  UNL     1      27.334   8.642  48.691  1.00  0.00    -0.048 Br
HETATM   20  C8  UNL     1      25.560   7.407  50.446  1.00  0.00     0.051 A 
ENDBRANCH  11  13
ENDBRANCH   3  11
BRANCH   1  21
HETATM   21  N1  UNL     1      25.993   2.336  50.878  1.00  0.00    -0.385 N 
HETATM   22  H1  UNL     1      26.835   2.660  50.328  1.00  0.00     0.157 HD
HETATM   23  H2  UNL     1      25.995   1.510  51.516  1.00  0.00     0.157 HD
ENDBRANCH   1  21
BRANCH   6  24
HETATM   24  C12 UNL     1      21.797   0.707  51.414  1.00  0.00     0.075 C 
BRANCH  24  25
HETATM   25  C13 UNL     1      22.182   0.042  52.650  1.00  0.00    -0.054 A 
HETATM   26  C14 UNL     1      21.142  -0.513  53.407  1.00  0.00     0.007 A 
HETATM   27  C15 UNL     1      21.356  -1.176  54.596  1.00  0.00     0.001 A 
HETATM   28  C16 UNL     1      22.657  -1.322  55.101  1.00  0.00     0.000 A 
HETATM   29  C17 UNL     1      23.678  -0.763  54.333  1.00  0.00     0.001 A 
HETATM   30  C18 UNL     1      23.436  -0.104  53.146  1.00  0.00     0.007 A 
ENDBRANCH  24  25
ENDBRANCH   6  24
TORSDOF 5
ENDMDL
MODEL 7
REMARK VINA RESULT:      -8.1      4.175      7.231
REMARK  5 active torsions:
REMARK  status: ('A' for Active; 'I' for Inactive)
REMARK    1  A    between atoms: N1_1  and  C1_2 
REMARK    2  A    between atoms: C2_4  and  N3_5 
REMARK    3  A    between atoms: N3_5  and  C3_6 
REMARK    4  A    between atoms: C11_16  and  C12_17 
REMARK    5  A    between atoms: C12_17  and  C13_18 
ROOT
HETATM    1  C1  UNL     1      25.607   4.197  50.219  1.00  0.00     0.137 C 
HETATM    2  N2  UNL     1      25.149   5.343  50.706  1.00  0.00    -0.215 NA
HETATM    3  C2  UNL     1      23.993   5.541  51.588  1.00  0.00     0.138 C 
HETATM    4  C9  UNL     1      23.525   4.289  51.708  1.00  0.00     0.016 C 
HETATM    5  C10 UNL     1      23.970   3.309  52.762  1.00  0.00     0.018 C 
HETATM    6  C11 UNL     1      24.517   2.539  51.764  1.00  0.00    -0.035 C 
HETATM    7  C19 UNL     1      24.859   2.887  50.329  1.00  0.00     0.318 C 
HETATM    8  N4  UNL     1      23.550   3.023  49.690  1.00  0.00     0.103 N 
HETATM    9  C20 UNL     1      22.598   3.627  50.671  1.00  0.00     0.313 C 
HETATM   10  H16 UNL     1      23.266   2.032  49.470  1.00  0.00     0.317 HD
ENDROOT
BRANCH   3  11
HETATM   11  N3  UNL     1      24.073   6.973  51.782  1.00  0.00    -0.340 N 
HETATM   12  H3  UNL     1      24.558   7.207  52.650  1.00  0.00     0.167 HD
BRANCH  11  13
HETATM   13  C3  UNL     1      23.442   7.673  50.687  1.00  0.00     0.035 A 
HETATM   14  C4  UNL     1      22.089   7.393  50.740  1.00  0.00     0.032 A 
HETATM   15  C5  UNL     1      21.207   7.932  49.794  1.00  0.00     0.046 A 
HETATM   16  C6  UNL     1      21.726   8.749  48.806  1.00  0.00     0.133 A 
HETATM   17  F1  UNL     1      20.942   9.310  47.854  1.00  0.00    -0.205 F 
HETATM   18  C7  UNL     1      23.079   9.012  48.775  1.00  0.00     0.051 A 
HETATM   19 BR1  UNL     1      23.916  10.121  47.448  1.00  0.00    -0.048 Br
HETATM   20  C8  UNL     1      23.953   8.487  49.702  1.00  0.00     0.051 A 
ENDBRANCH  11  13
ENDBRANCH   3  11
BRANCH   1  21
HETATM   21  N1  UNL     1      26.917   4.247  49.542  1.00  0.00    -0.385 N 
HETATM   22  H1  UNL     1      27.838   4.476  50.006  1.00  0.00     0.157 HD
HETATM   23  H2  UNL     1      26.815   4.023  48.528  1.00  0.00     0.157 HD
ENDBRANCH   1  21
BRANCH   6  24
HETATM   24  C12 UNL     1      24.857   1.069  52.033  1.00  0.00     0.075 C 
BRANCH  24  25
HETATM   25  C13 UNL     1      26.213   0.905  52.538  1.00  0.00    -0.054 A 
HETATM   26  C14 UNL     1      26.680  -0.411  52.649  1.00  0.00     0.007 A 
HETATM   27  C15 UNL     1      27.943  -0.719  53.106  1.00  0.00     0.001 A 
HETATM   28  C16 UNL     1      28.826   0.303  53.486  1.00  0.00     0.000 A 
HETATM   29  C17 UNL     1      28.343   1.605  53.368  1.00  0.00     0.001 A 
HETATM   30  C18 UNL     1      27.074   1.886  52.907  1.00  0.00     0.007 A 
ENDBRANCH  24  25
ENDBRANCH   6  24
TORSDOF 5
ENDMDL
MODEL 8
REMARK VINA RESULT:      -8.1      1.698      2.621
REMARK  5 active torsions:
REMARK  status: ('A' for Active; 'I' for Inactive)
REMARK    1  A    between atoms: N1_1  and  C1_2 
REMARK    2  A    between atoms: C2_4  and  N3_5 
REMARK    3  A    between atoms: N3_5  and  C3_6 
REMARK    4  A    between atoms: C11_16  and  C12_17 
REMARK    5  A    between atoms: C12_17  and  C13_18 
ROOT
HETATM    1  C1  UNL     1      24.021   5.280  51.653  1.00  0.00     0.137 C 
HETATM    2  N2  UNL     1      23.989   3.968  51.455  1.00  0.00    -0.215 NA
HETATM    3  C2  UNL     1      24.373   3.238  50.241  1.00  0.00     0.138 C 
HETATM    4  C9  UNL     1      24.698   4.242  49.411  1.00  0.00     0.016 C 
HETATM    5  C10 UNL     1      26.073   4.846  49.300  1.00  0.00     0.018 C 
HETATM    6  C11 UNL     1      25.560   6.017  49.806  1.00  0.00    -0.035 C 
HETATM    7  C19 UNL     1      24.266   6.283  50.547  1.00  0.00     0.318 C 
HETATM    8  N4  UNL     1      23.242   6.124  49.514  1.00  0.00     0.103 N 
HETATM    9  C20 UNL     1      23.662   5.030  48.588  1.00  0.00     0.313 C 
HETATM   10  H16 UNL     1      23.240   7.049  49.008  1.00  0.00     0.317 HD
ENDROOT
BRANCH   3  11
HETATM   11  N3  UNL     1      24.162   1.880  50.694  1.00  0.00    -0.340 N 
HETATM   12  H3  UNL     1      23.433   1.413  50.151  1.00  0.00     0.167 HD
BRANCH  11  13
HETATM   13  C3  UNL     1      25.047   1.564  51.791  1.00  0.00     0.035 A 
HETATM   14  C4  UNL     1      24.410   0.625  52.581  1.00  0.00     0.032 A 
HETATM   15  C5  UNL     1      25.023   0.122  53.736  1.00  0.00     0.046 A 
HETATM   16  C6  UNL     1      26.283   0.591  54.065  1.00  0.00     0.133 A 
HETATM   17  F1  UNL     1      26.946   0.156  55.163  1.00  0.00    -0.205 F 
HETATM   18  C7  UNL     1      26.897   1.528  53.260  1.00  0.00     0.051 A 
HETATM   19 BR1  UNL     1      28.637   2.259  53.618  1.00  0.00    -0.048 Br
HETATM   20  C8  UNL     1      26.300   2.026  52.122  1.00  0.00     0.051 A 
ENDBRANCH  11  13
ENDBRANCH   3  11
BRANCH   1  21
HETATM   21  N1  UNL     1      23.799   5.743  53.036  1.00  0.00    -0.385 N 
HETATM   22  H1  UNL     1      24.319   5.397  53.888  1.00  0.00     0.157 HD
HETATM   23  H2  UNL     1      23.047   6.466  53.065  1.00  0.00     0.157 HD
ENDBRANCH   1  21
BRANCH   6  24
HETATM   24  C12 UNL     1      26.333   7.329  49.629  1.00  0.00     0.075 C 
BRANCH  24  25
HETATM   25  C13 UNL     1      26.440   7.715  48.229  1.00  0.00    -0.054 A 
HETATM   26  C14 UNL     1      27.736   7.791  47.703  1.00  0.00     0.007 A 
HETATM   27  C15 UNL     1      27.990   8.140  46.394  1.00  0.00     0.001 A 
HETATM   28  C16 UNL     1      26.932   8.437  45.522  1.00  0.00     0.000 A 
HETATM   29  C17 UNL     1      25.650   8.356  46.065  1.00  0.00     0.001 A 
HETATM   30  C18 UNL     1      25.423   8.005  47.379  1.00  0.00     0.007 A 
ENDBRANCH  24  25
ENDBRANCH   6  24
TORSDOF 5
ENDMDL
MODEL 9
REMARK VINA RESULT:      -8.1      3.034      6.347
REMARK  5 active torsions:
REMARK  status: ('A' for Active; 'I' for Inactive)
REMARK    1  A    between atoms: N1_1  and  C1_2 
REMARK    2  A    between atoms: C2_4  and  N3_5 
REMARK    3  A    between atoms: N3_5  and  C3_6 
REMARK    4  A    between atoms: C11_16  and  C12_17 
REMARK    5  A    between atoms: C12_17  and  C13_18 
ROOT
HETATM    1  C1  UNL     1      21.743   2.156  49.723  1.00  0.00     0.137 C 
HETATM    2  N2  UNL     1      21.875   3.448  49.452  1.00  0.00    -0.215 NA
HETATM    3  C2  UNL     1      21.977   4.556  50.409  1.00  0.00     0.138 C 
HETATM    4  C9  UNL     1      21.850   3.915  51.582  1.00  0.00     0.016 C 
HETATM    5  C10 UNL     1      22.997   3.332  52.365  1.00  0.00     0.018 C 
HETATM    6  C11 UNL     1      22.477   2.082  52.127  1.00  0.00    -0.035 C 
HETATM    7  C19 UNL     1      21.454   1.620  51.108  1.00  0.00     0.318 C 
HETATM    8  N4  UNL     1      20.201   2.196  51.598  1.00  0.00     0.103 N 
HETATM    9  C20 UNL     1      20.490   3.534  52.195  1.00  0.00     0.313 C 
HETATM   10  H16 UNL     1      19.884   1.524  52.345  1.00  0.00     0.317 HD
ENDROOT
BRANCH   3  11
HETATM   11  N3  UNL     1      22.153   5.660  49.490  1.00  0.00    -0.340 N 
HETATM   12  H3  UNL     1      21.297   5.851  48.966  1.00  0.00     0.167 HD
BRANCH  11  13
HETATM   13  C3  UNL     1      23.496   6.185  49.573  1.00  0.00     0.035 A 
HETATM   14  C4  UNL     1      23.439   7.358  50.302  1.00  0.00     0.032 A 
HETATM   15  C5  UNL     1      24.597   8.107  50.549  1.00  0.00     0.046 A 
HETATM   16  C6  UNL     1      25.798   7.643  50.044  1.00  0.00     0.133 A 
HETATM   17  F1  UNL     1      26.963   8.305  50.238  1.00  0.00    -0.205 F 
HETATM   18  C7  UNL     1      25.828   6.469  49.319  1.00  0.00     0.051 A 
HETATM   19 BR1  UNL     1      27.431   5.730  48.560  1.00  0.00    -0.048 Br
HETATM   20  C8  UNL     1      24.694   5.726  49.073  1.00  0.00     0.051 A 
ENDBRANCH  11  13
ENDBRANCH   3  11
BRANCH   1  21
HETATM   21  N1  UNL     1      21.890   1.226  48.586  1.00  0.00    -0.385 N 
HETATM   22  H1  UNL     1      21.461   0.263  48.524  1.00  0.00     0.157 HD
HETATM   23  H2  UNL     1      22.485   1.650  47.841  1.00  0.00     0.157 HD
ENDBRANCH   1  21
BRANCH   6  24
HETATM   24  C12 UNL     1      22.920   0.895  52.988  1.00  0.00     0.075 C 
BRANCH  24  25
HETATM   25  C13 UNL     1      24.315   0.547  52.764  1.00  0.00    -0.054 A 
HETATM   26  C14 UNL     1      24.817  -0.527  53.511  1.00  0.00     0.007 A 
HETATM   27  C15 UNL     1      26.117  -0.971  53.400  1.00  0.00     0.001 A 
HETATM   28  C16 UNL     1      27.005  -0.345  52.511  1.00  0.00     0.000 A 
HETATM   29  C17 UNL     1      26.487   0.720  51.777  1.00  0.00     0.001 A 
HETATM   30  C18 UNL     1      25.182   1.145  51.907  1.00  0.00     0.007 A 
ENDBRANCH  24  25
ENDBRANCH   6  24
TORSDOF 5
ENDMDL
