MODEL 1
REMARK VINA RESULT:      -9.5      0.000      0.000
REMARK  6 active torsions:
REMARK  status: ('A' for Active; 'I' for Inactive)
REMARK    1  A    between atoms: C7_7  and  C8_8 
REMARK    2  A    between atoms: C8_8  and  C9_9 
REMARK    3  A    between atoms: C8_8  and  C15_20 
REMARK    4  A    between atoms: C9_9  and  N1_10 
REMARK    5  A    between atoms: C20_25  and  O1_26 
REMARK    6  A    between atoms: O1_26  and  S1_27 
ROOT
HETATM    1  C8  UNL     1      25.280   0.092  52.908  1.00  0.00     0.005 C 
ENDROOT
BRANCH   1   2
HETATM    2  C7  UNL     1      24.097  -0.343  53.613  1.00  0.00    -0.018 A 
HETATM    3  C2  UNL     1      23.932  -0.916  54.833  1.00  0.00    -0.051 A 
HETATM    4  C1  UNL     1      25.105  -0.978  55.735  1.00  0.00     0.049 C 
HETATM    5  C3  UNL     1      22.736  -1.407  55.308  1.00  0.00     0.007 A 
HETATM    6  C4  UNL     1      21.597  -1.346  54.552  1.00  0.00     0.001 A 
HETATM    7  C5  UNL     1      21.712  -0.765  53.288  1.00  0.00     0.001 A 
HETATM    8  C6  UNL     1      22.942  -0.290  52.864  1.00  0.00     0.013 A 
ENDBRANCH   1   2
BRANCH   1   9
HETATM    9  C9  UNL     1      25.349   1.135  52.112  1.00  0.00     0.132 C 
BRANCH   9  10
HETATM   10  N1  UNL     1      25.582   2.338  51.424  1.00  0.00    -0.245 NA
HETATM   11  C10 UNL     1      24.682   2.826  50.630  1.00  0.00     0.128 C 
HETATM   12  C11 UNL     1      23.597   3.315  49.740  1.00  0.00     0.102 C 
HETATM   13  N5  UNL     1      25.494   3.918  50.314  1.00  0.00    -0.227 NA
HETATM   14  C12 UNL     1      23.595   4.794  49.553  1.00  0.00     0.157 C 
HETATM   15  N2  UNL     1      23.530   5.567  50.766  1.00  0.00    -0.283 NA
HETATM   16  C13 UNL     1      24.498   6.387  51.057  1.00  0.00     0.216 C 
HETATM   17  N3  UNL     1      25.662   6.575  50.219  1.00  0.00    -0.294 N 
HETATM   18  N4  UNL     1      26.446   5.398  50.020  1.00  0.00    -0.293 N 
HETATM   19  H14 UNL     1      26.019   7.428  49.738  1.00  0.00     0.187 HD
HETATM   20  C14 UNL     1      26.449   4.042  49.502  1.00  0.00     0.225 C 
HETATM   21  H15 UNL     1      27.404   5.638  50.418  1.00  0.00     0.187 HD
ENDBRANCH   9  10
ENDBRANCH   1   9
BRANCH   1  22
HETATM   22  C15 UNL     1      26.546  -0.612  53.002  1.00  0.00     0.011 A 
HETATM   23  C16 UNL     1      26.807  -1.884  52.534  1.00  0.00     0.015 A 
HETATM   24  C17 UNL     1      27.953  -2.614  52.659  1.00  0.00     0.001 A 
HETATM   25  C18 UNL     1      28.988  -2.040  53.322  1.00  0.00     0.003 A 
HETATM   26  C19 UNL     1      28.828  -0.774  53.825  1.00  0.00     0.039 A 
HETATM   27  C20 UNL     1      27.639  -0.100  53.660  1.00  0.00     0.095 A 
BRANCH  27  28
HETATM   28  O1  UNL     1      27.658   1.160  54.239  1.00  0.00    -0.281 OA
BRANCH  28  29
HETATM   29  S1  UNL     1      28.697   2.428  53.640  1.00  0.00    -0.017 SA
HETATM   30  H21 UNL     1      30.036   2.230  53.993  1.00  0.00     0.134 HD
ENDBRANCH  28  29
ENDBRANCH  27  28
ENDBRANCH   1  22
TORSDOF 6
ENDMDL
MODEL 2
REMARK VINA RESULT:      -9.3      3.228      6.759
REMARK  6 active torsions:
REMARK  status: ('A' for Active; 'I' for Inactive)
REMARK    1  A    between atoms: C7_7  and  C8_8 
REMARK    2  A    between atoms: C8_8  and  C9_9 
REMARK    3  A    between atoms: C8_8  and  C15_20 
REMARK    4  A    between atoms: C9_9  and  N1_10 
REMARK    5  A    between atoms: C20_25  and  O1_26 
REMARK    6  A    between atoms: O1_26  and  S1_27 
ROOT
HETATM    1  C8  UNL     1      25.089   3.445  50.221  1.00  0.00     0.005 C 
ENDROOT
BRANCH   1   2
HETATM    2  C7  UNL     1      23.838   2.803  49.886  1.00  0.00    -0.018 A 
HETATM    3  C2  UNL     1      22.977   2.061  50.627  1.00  0.00    -0.051 A 
HETATM    4  C1  UNL     1      23.196   1.998  52.091  1.00  0.00     0.049 C 
HETATM    5  C3  UNL     1      21.885   1.394  50.116  1.00  0.00     0.007 A 
HETATM    6  C4  UNL     1      21.590   1.439  48.781  1.00  0.00     0.001 A 
HETATM    7  C5  UNL     1      22.445   2.191  47.973  1.00  0.00     0.001 A 
HETATM    8  C6  UNL     1      23.528   2.839  48.544  1.00  0.00     0.013 A 
ENDBRANCH   1   2
BRANCH   1   9
HETATM    9  C9  UNL     1      26.088   2.873  50.853  1.00  0.00     0.132 C 
BRANCH   9  10
HETATM   10  N1  UNL     1      27.067   2.370  51.728  1.00  0.00    -0.245 NA
HETATM   11  C10 UNL     1      26.723   1.794  52.837  1.00  0.00     0.128 C 
HETATM   12  C11 UNL     1      26.243   1.148  54.086  1.00  0.00     0.102 C 
HETATM   13  N5  UNL     1      28.059   1.562  53.177  1.00  0.00    -0.227 NA
HETATM   14  C12 UNL     1      27.179   0.124  54.630  1.00  0.00     0.157 C 
HETATM   15  N2  UNL     1      27.536  -0.931  53.717  1.00  0.00    -0.283 NA
HETATM   16  C13 UNL     1      28.782  -1.097  53.383  1.00  0.00     0.216 C 
HETATM   17  N3  UNL     1      29.859  -0.270  53.884  1.00  0.00    -0.294 N 
HETATM   18  N4  UNL     1      29.743   1.115  53.556  1.00  0.00    -0.293 N 
HETATM   19  H14 UNL     1      30.700  -0.521  54.445  1.00  0.00     0.187 HD
HETATM   20  C14 UNL     1      28.930   2.309  53.696  1.00  0.00     0.225 C 
HETATM   21  H15 UNL     1      30.613   1.333  52.981  1.00  0.00     0.187 HD
ENDBRANCH   9  10
ENDBRANCH   1   9
BRANCH   1  22
HETATM   22  C15 UNL     1      25.365   4.832  49.895  1.00  0.00     0.011 A 
HETATM   23  C16 UNL     1      26.296   5.284  48.983  1.00  0.00     0.015 A 
HETATM   24  C17 UNL     1      26.643   6.571  48.692  1.00  0.00     0.001 A 
HETATM   25  C18 UNL     1      26.002   7.556  49.370  1.00  0.00     0.003 A 
HETATM   26  C19 UNL     1      25.055   7.209  50.300  1.00  0.00     0.039 A 
HETATM   27  C20 UNL     1      24.761   5.886  50.540  1.00  0.00     0.095 A 
BRANCH  27  28
HETATM   28  O1  UNL     1      23.787   5.726  51.513  1.00  0.00    -0.281 OA
BRANCH  28  29
HETATM   29  S1  UNL     1      22.089   5.899  51.149  1.00  0.00    -0.017 SA
HETATM   30  H21 UNL     1      21.872   6.475  49.893  1.00  0.00     0.134 HD
ENDBRANCH  28  29
ENDBRANCH  27  28
ENDBRANCH   1  22
TORSDOF 6
ENDMDL
MODEL 3
REMARK VINA RESULT:      -9.0      3.229      6.603
REMARK  6 active torsions:
REMARK  status: ('A' for Active; 'I' for Inactive)
REMARK    1  A    between atoms: C7_7  and  C8_8 
REMARK    2  A    between atoms: C8_8  and  C9_9 
REMARK    3  A    between atoms: C8_8  and  C15_20 
REMARK    4  A    between atoms: C9_9  and  N1_10 
REMARK    5  A    between atoms: C20_25  and  O1_26 
REMARK    6  A    between atoms: O1_26  and  S1_27 
ROOT
HETATM    1  C8  UNL     1      23.578   1.762  51.302  1.00  0.00     0.005 C 
ENDROOT
BRANCH   1   2
HETATM    2  C7  UNL     1      23.085   2.446  50.129  1.00  0.00    -0.018 A 
HETATM    3  C2  UNL     1      22.254   2.047  49.132  1.00  0.00    -0.051 A 
HETATM    4  C1  UNL     1      21.546   0.755  49.294  1.00  0.00     0.049 C 
HETATM    5  C3  UNL     1      21.992   2.780  47.996  1.00  0.00     0.007 A 
HETATM    6  C4  UNL     1      22.572   4.002  47.794  1.00  0.00     0.001 A 
HETATM    7  C5  UNL     1      23.435   4.461  48.789  1.00  0.00     0.001 A 
HETATM    8  C6  UNL     1      23.662   3.678  49.910  1.00  0.00     0.013 A 
ENDBRANCH   1   2
BRANCH   1   9
HETATM    9  C9  UNL     1      24.842   1.652  51.640  1.00  0.00     0.132 C 
BRANCH   9  10
HETATM   10  N1  UNL     1      26.123   1.623  52.218  1.00  0.00    -0.245 NA
HETATM   11  C10 UNL     1      26.306   1.093  53.387  1.00  0.00     0.128 C 
HETATM   12  C11 UNL     1      26.426   0.468  54.729  1.00  0.00     0.102 C 
HETATM   13  N5  UNL     1      27.673   1.381  53.348  1.00  0.00    -0.227 NA
HETATM   14  C12 UNL     1      27.777  -0.098  55.008  1.00  0.00     0.157 C 
HETATM   15  N2  UNL     1      28.251  -1.060  54.046  1.00  0.00    -0.283 NA
HETATM   16  C13 UNL     1      29.345  -0.819  53.384  1.00  0.00     0.216 C 
HETATM   17  N3  UNL     1      30.133   0.382  53.556  1.00  0.00    -0.294 N 
HETATM   18  N4  UNL     1      29.441   1.594  53.253  1.00  0.00    -0.293 N 
HETATM   19  H14 UNL     1      31.121   0.505  53.866  1.00  0.00     0.187 HD
HETATM   20  C14 UNL     1      28.311   2.438  53.595  1.00  0.00     0.225 C 
HETATM   21  H15 UNL     1      29.996   2.033  52.457  1.00  0.00     0.187 HD
ENDBRANCH   9  10
ENDBRANCH   1   9
BRANCH   1  22
HETATM   22  C15 UNL     1      22.696   1.097  52.243  1.00  0.00     0.011 A 
HETATM   23  C16 UNL     1      22.825  -0.196  52.706  1.00  0.00     0.015 A 
HETATM   24  C17 UNL     1      21.988  -0.889  53.532  1.00  0.00     0.001 A 
HETATM   25  C18 UNL     1      20.879  -0.246  53.975  1.00  0.00     0.003 A 
HETATM   26  C19 UNL     1      20.661   1.047  53.572  1.00  0.00     0.039 A 
HETATM   27  C20 UNL     1      21.551   1.679  52.734  1.00  0.00     0.095 A 
BRANCH  27  28
HETATM   28  O1  UNL     1      21.164   2.975  52.429  1.00  0.00    -0.281 OA
BRANCH  28  29
HETATM   29  S1  UNL     1      19.635   3.320  51.663  1.00  0.00    -0.017 SA
HETATM   30  H21 UNL     1      18.973   2.158  51.251  1.00  0.00     0.134 HD
ENDBRANCH  28  29
ENDBRANCH  27  28
ENDBRANCH   1  22
TORSDOF 6
ENDMDL
MODEL 4
REMARK VINA RESULT:      -8.9      3.053      7.217
REMARK  6 active torsions:
REMARK  status: ('A' for Active; 'I' for Inactive)
REMARK    1  A    between atoms: C7_7  and  C8_8 
REMARK    2  A    between atoms: C8_8  and  C9_9 
REMARK    3  A    between atoms: C8_8  and  C15_20 
REMARK    4  A    between atoms: C9_9  and  N1_10 
REMARK    5  A    between atoms: C20_25  and  O1_26 
REMARK    6  A    between atoms: O1_26  and  S1_27 
ROOT
HETATM    1  C8  UNL     1      25.043   3.727  50.386  1.00  0.00     0.005 C 
ENDROOT
BRANCH   1   2
HETATM    2  C7  UNL     1      25.105   5.153  50.167  1.00  0.00    -0.018 A 
HETATM    3  C2  UNL     1      26.004   5.927  49.505  1.00  0.00    -0.051 A 
HETATM    4  C1  UNL     1      27.037   5.249  48.690  1.00  0.00     0.049 C 
HETATM    5  C3  UNL     1      25.996   7.305  49.508  1.00  0.00     0.007 A 
HETATM    6  C4  UNL     1      25.047   8.005  50.202  1.00  0.00     0.001 A 
HETATM    7  C5  UNL     1      24.098   7.257  50.898  1.00  0.00     0.001 A 
HETATM    8  C6  UNL     1      24.157   5.873  50.860  1.00  0.00     0.013 A 
ENDBRANCH   1   2
BRANCH   1   9
HETATM    9  C9  UNL     1      25.946   3.018  51.025  1.00  0.00     0.132 C 
BRANCH   9  10
HETATM   10  N1  UNL     1      26.958   2.467  51.830  1.00  0.00    -0.245 NA
HETATM   11  C10 UNL     1      26.662   1.868  52.941  1.00  0.00     0.128 C 
HETATM   12  C11 UNL     1      26.235   1.200  54.197  1.00  0.00     0.102 C 
HETATM   13  N5  UNL     1      28.008   1.595  53.199  1.00  0.00    -0.227 NA
HETATM   14  C12 UNL     1      27.173   0.138  54.660  1.00  0.00     0.157 C 
HETATM   15  N2  UNL     1      27.451  -0.899  53.700  1.00  0.00    -0.283 NA
HETATM   16  C13 UNL     1      28.672  -1.087  53.292  1.00  0.00     0.216 C 
HETATM   17  N3  UNL     1      29.796  -0.300  53.754  1.00  0.00    -0.294 N 
HETATM   18  N4  UNL     1      29.699   1.096  53.470  1.00  0.00    -0.293 N 
HETATM   19  H14 UNL     1      30.661  -0.588  54.259  1.00  0.00     0.187 HD
HETATM   20  C14 UNL     1      28.925   2.305  53.687  1.00  0.00     0.225 C 
HETATM   21  H15 UNL     1      30.541   1.308  52.853  1.00  0.00     0.187 HD
ENDBRANCH   9  10
ENDBRANCH   1   9
BRANCH   1  22
HETATM   22  C15 UNL     1      23.949   2.910  49.894  1.00  0.00     0.011 A 
HETATM   23  C16 UNL     1      23.528   2.816  48.584  1.00  0.00     0.015 A 
HETATM   24  C17 UNL     1      22.466   2.121  48.083  1.00  0.00     0.001 A 
HETATM   25  C18 UNL     1      21.710   1.419  48.963  1.00  0.00     0.003 A 
HETATM   26  C19 UNL     1      22.049   1.447  50.292  1.00  0.00     0.039 A 
HETATM   27  C20 UNL     1      23.135   2.174  50.723  1.00  0.00     0.095 A 
BRANCH  27  28
HETATM   28  O1  UNL     1      23.320   2.090  52.095  1.00  0.00    -0.281 OA
BRANCH  28  29
HETATM   29  S1  UNL     1      22.614   0.803  53.038  1.00  0.00    -0.017 SA
HETATM   30  H21 UNL     1      21.222   0.752  52.909  1.00  0.00     0.134 HD
ENDBRANCH  28  29
ENDBRANCH  27  28
ENDBRANCH   1  22
TORSDOF 6
ENDMDL
MODEL 5
REMARK VINA RESULT:      -8.9      2.900      5.949
REMARK  6 active torsions:
REMARK  status: ('A' for Active; 'I' for Inactive)
REMARK    1  A    between atoms: C7_7  and  C8_8 
REMARK    2  A    between atoms: C8_8  and  C9_9 
REMARK    3  A    between atoms: C8_8  and  C15_20 
REMARK    4  A    between atoms: C9_9  and  N1_10 
REMARK    5  A    between atoms: C20_25  and  O1_26 
REMARK    6  A    between atoms: O1_26  and  S1_27 
ROOT
HETATM    1  C8  UNL     1      23.401   1.509  51.844  1.00  0.00     0.005 C 
ENDROOT
BRANCH   1   2
HETATM    2  C7  UNL     1      22.440   0.745  52.604  1.00  0.00    -0.018 A 
HETATM    3  C2  UNL     1      21.220   1.068  53.103  1.00  0.00    -0.051 A 
HETATM    4  C1  UNL     1      20.620   2.358  52.688  1.00  0.00     0.049 C 
HETATM    5  C3  UNL     1      20.480   0.260  53.939  1.00  0.00     0.007 A 
HETATM    6  C4  UNL     1      20.946  -0.965  54.332  1.00  0.00     0.001 A 
HETATM    7  C5  UNL     1      22.197  -1.347  53.846  1.00  0.00     0.001 A 
HETATM    8  C6  UNL     1      22.896  -0.491  53.010  1.00  0.00     0.013 A 
ENDBRANCH   1   2
BRANCH   1   9
HETATM    9  C9  UNL     1      24.657   1.697  52.179  1.00  0.00     0.132 C 
BRANCH   9  10
HETATM   10  N1  UNL     1      26.001   1.659  52.588  1.00  0.00    -0.245 NA
HETATM   11  C10 UNL     1      26.330   1.123  53.721  1.00  0.00     0.128 C 
HETATM   12  C11 UNL     1      26.618   0.490  55.034  1.00  0.00     0.102 C 
HETATM   13  N5  UNL     1      27.682   1.403  53.508  1.00  0.00    -0.227 NA
HETATM   14  C12 UNL     1      27.989  -0.085  55.135  1.00  0.00     0.157 C 
HETATM   15  N2  UNL     1      28.330  -1.044  54.117  1.00  0.00    -0.283 NA
HETATM   16  C13 UNL     1      29.331  -0.807  53.320  1.00  0.00     0.216 C 
HETATM   17  N3  UNL     1      30.143   0.389  53.395  1.00  0.00    -0.294 N 
HETATM   18  N4  UNL     1      29.425   1.606  53.188  1.00  0.00    -0.293 N 
HETATM   19  H14 UNL     1      31.162   0.505  53.575  1.00  0.00     0.187 HD
HETATM   20  C14 UNL     1      28.353   2.455  53.676  1.00  0.00     0.225 C 
HETATM   21  H15 UNL     1      29.876   2.046  52.329  1.00  0.00     0.187 HD
ENDBRANCH   9  10
ENDBRANCH   1   9
BRANCH   1  22
HETATM   22  C15 UNL     1      23.058   2.177  50.602  1.00  0.00     0.011 A 
HETATM   23  C16 UNL     1      22.450   1.599  49.507  1.00  0.00     0.015 A 
HETATM   24  C17 UNL     1      22.171   2.162  48.296  1.00  0.00     0.001 A 
HETATM   25  C18 UNL     1      22.523   3.460  48.117  1.00  0.00     0.003 A 
HETATM   26  C19 UNL     1      23.133   4.126  49.150  1.00  0.00     0.039 A 
HETATM   27  C20 UNL     1      23.384   3.488  50.344  1.00  0.00     0.095 A 
BRANCH  27  28
HETATM   28  O1  UNL     1      24.010   4.313  51.265  1.00  0.00    -0.281 OA
BRANCH  28  29
HETATM   29  S1  UNL     1      23.827   6.048  51.217  1.00  0.00    -0.017 SA
HETATM   30  H21 UNL     1      22.597   6.466  51.736  1.00  0.00     0.134 HD
ENDBRANCH  28  29
ENDBRANCH  27  28
ENDBRANCH   1  22
TORSDOF 6
ENDMDL
MODEL 6
REMARK VINA RESULT:      -8.4      2.924      6.626
REMARK  6 active torsions:
REMARK  status: ('A' for Active; 'I' for Inactive)
REMARK    1  A    between atoms: C7_7  and  C8_8 
REMARK    2  A    between atoms: C8_8  and  C9_9 
REMARK    3  A    between atoms: C8_8  and  C15_20 
REMARK    4  A    between atoms: C9_9  and  N1_10 
REMARK    5  A    between atoms: C20_25  and  O1_26 
REMARK    6  A    between atoms: O1_26  and  S1_27 
ROOT
HETATM    1  C8  UNL     1      24.459   3.062  50.999  1.00  0.00     0.005 C 
ENDROOT
BRANCH   1   2
HETATM    2  C7  UNL     1      23.389   2.115  50.787  1.00  0.00    -0.018 A 
HETATM    3  C2  UNL     1      22.541   1.930  49.742  1.00  0.00    -0.051 A 
HETATM    4  C1  UNL     1      22.810   2.673  48.489  1.00  0.00     0.049 C 
HETATM    5  C3  UNL     1      21.469   1.064  49.753  1.00  0.00     0.007 A 
HETATM    6  C4  UNL     1      21.182   0.310  50.858  1.00  0.00     0.001 A 
HETATM    7  C5  UNL     1      22.024   0.462  51.960  1.00  0.00     0.001 A 
HETATM    8  C6  UNL     1      23.086   1.349  51.891  1.00  0.00     0.013 A 
ENDBRANCH   1   2
BRANCH   1   9
HETATM    9  C9  UNL     1      25.608   2.791  51.576  1.00  0.00     0.132 C 
BRANCH   9  10
HETATM   10  N1  UNL     1      26.754   2.271  52.202  1.00  0.00    -0.245 NA
HETATM   11  C10 UNL     1      26.659   1.645  53.332  1.00  0.00     0.128 C 
HETATM   12  C11 UNL     1      26.461   0.942  54.626  1.00  0.00     0.102 C 
HETATM   13  N5  UNL     1      28.039   1.424  53.372  1.00  0.00    -0.227 NA
HETATM   14  C12 UNL     1      27.500  -0.087  54.915  1.00  0.00     0.157 C 
HETATM   15  N2  UNL     1      27.665  -1.097  53.903  1.00  0.00    -0.283 NA
HETATM   16  C13 UNL     1      28.813  -1.228  53.306  1.00  0.00     0.216 C 
HETATM   17  N3  UNL     1      29.964  -0.402  53.603  1.00  0.00    -0.294 N 
HETATM   18  N4  UNL     1      29.769   0.993  53.366  1.00  0.00    -0.293 N 
HETATM   19  H14 UNL     1      30.908  -0.660  53.961  1.00  0.00     0.187 HD
HETATM   20  C14 UNL     1      28.993   2.166  53.726  1.00  0.00     0.225 C 
HETATM   21  H15 UNL     1      30.495   1.249  52.629  1.00  0.00     0.187 HD
ENDBRANCH   9  10
ENDBRANCH   1   9
BRANCH   1  22
HETATM   22  C15 UNL     1      24.361   4.453  50.596  1.00  0.00     0.011 A 
HETATM   23  C16 UNL     1      23.370   5.339  50.964  1.00  0.00     0.015 A 
HETATM   24  C17 UNL     1      23.194   6.630  50.558  1.00  0.00     0.001 A 
HETATM   25  C18 UNL     1      24.096   7.135  49.680  1.00  0.00     0.003 A 
HETATM   26  C19 UNL     1      25.122   6.331  49.253  1.00  0.00     0.039 A 
HETATM   27  C20 UNL     1      25.233   5.036  49.707  1.00  0.00     0.095 A 
BRANCH  27  28
HETATM   28  O1  UNL     1      26.323   4.374  49.164  1.00  0.00    -0.281 OA
BRANCH  28  29
HETATM   29  S1  UNL     1      27.710   5.240  48.552  1.00  0.00    -0.017 SA
HETATM   30  H21 UNL     1      27.348   6.401  47.861  1.00  0.00     0.134 HD
ENDBRANCH  28  29
ENDBRANCH  27  28
ENDBRANCH   1  22
TORSDOF 6
ENDMDL
MODEL 7
REMARK VINA RESULT:      -8.4      3.247      6.856
REMARK  6 active torsions:
REMARK  status: ('A' for Active; 'I' for Inactive)
REMARK    1  A    between atoms: C7_7  and  C8_8 
REMARK    2  A    between atoms: C8_8  and  C9_9 
REMARK    3  A    between atoms: C8_8  and  C15_20 
REMARK    4  A    between atoms: C9_9  and  N1_10 
REMARK    5  A    between atoms: C20_25  and  O1_26 
REMARK    6  A    between atoms: O1_26  and  S1_27 
ROOT
HETATM    1  C8  UNL     1      24.192   3.020  51.303  1.00  0.00     0.005 C 
ENDROOT
BRANCH   1   2
HETATM    2  C7  UNL     1      23.822   4.221  50.590  1.00  0.00    -0.018 A 
HETATM    3  C2  UNL     1      22.793   5.091  50.760  1.00  0.00    -0.051 A 
HETATM    4  C1  UNL     1      21.959   4.952  51.976  1.00  0.00     0.049 C 
HETATM    5  C3  UNL     1      22.496   6.123  49.897  1.00  0.00     0.007 A 
HETATM    6  C4  UNL     1      23.246   6.344  48.774  1.00  0.00     0.001 A 
HETATM    7  C5  UNL     1      24.318   5.478  48.554  1.00  0.00     0.001 A 
HETATM    8  C6  UNL     1      24.567   4.457  49.456  1.00  0.00     0.013 A 
ENDBRANCH   1   2
BRANCH   1   9
HETATM    9  C9  UNL     1      25.408   2.713  51.690  1.00  0.00     0.132 C 
BRANCH   9  10
HETATM   10  N1  UNL     1      26.599   2.258  52.283  1.00  0.00    -0.245 NA
HETATM   11  C10 UNL     1      26.569   1.607  53.403  1.00  0.00     0.128 C 
HETATM   12  C11 UNL     1      26.444   0.870  54.687  1.00  0.00     0.102 C 
HETATM   13  N5  UNL     1      27.961   1.476  53.411  1.00  0.00    -0.227 NA
HETATM   14  C12 UNL     1      27.554  -0.094  54.936  1.00  0.00     0.157 C 
HETATM   15  N2  UNL     1      27.762  -1.073  53.901  1.00  0.00    -0.283 NA
HETATM   16  C13 UNL     1      28.904  -1.118  53.279  1.00  0.00     0.216 C 
HETATM   17  N3  UNL     1      30.005  -0.224  53.569  1.00  0.00    -0.294 N 
HETATM   18  N4  UNL     1      29.715   1.159  53.362  1.00  0.00    -0.293 N 
HETATM   19  H14 UNL     1      30.971  -0.426  53.903  1.00  0.00     0.187 HD
HETATM   20  C14 UNL     1      28.872   2.272  53.760  1.00  0.00     0.225 C 
HETATM   21  H15 UNL     1      30.407   1.474  52.616  1.00  0.00     0.187 HD
ENDBRANCH   9  10
ENDBRANCH   1   9
BRANCH   1  22
HETATM   22  C15 UNL     1      23.226   1.997  51.658  1.00  0.00     0.011 A 
HETATM   23  C16 UNL     1      23.022   1.472  52.917  1.00  0.00     0.015 A 
HETATM   24  C17 UNL     1      22.180   0.464  53.290  1.00  0.00     0.001 A 
HETATM   25  C18 UNL     1      21.433  -0.114  52.317  1.00  0.00     0.003 A 
HETATM   26  C19 UNL     1      21.563   0.339  51.029  1.00  0.00     0.039 A 
HETATM   27  C20 UNL     1      22.436   1.360  50.730  1.00  0.00     0.095 A 
BRANCH  27  28
HETATM   28  O1  UNL     1      22.438   1.679  49.380  1.00  0.00    -0.281 OA
BRANCH  28  29
HETATM   29  S1  UNL     1      21.017   2.305  48.583  1.00  0.00    -0.017 SA
HETATM   30  H21 UNL     1      20.648   1.535  47.475  1.00  0.00     0.134 HD
ENDBRANCH  28  29
ENDBRANCH  27  28
ENDBRANCH   1  22
TORSDOF 6
ENDMDL
MODEL 8
REMARK VINA RESULT:      -8.2      3.421      6.738
REMARK  6 active torsions:
REMARK  status: ('A' for Active; 'I' for Inactive)
REMARK    1  A    between atoms: C7_7  and  C8_8 
REMARK    2  A    between atoms: C8_8  and  C9_9 
REMARK    3  A    between atoms: C8_8  and  C15_20 
REMARK    4  A    between atoms: C9_9  and  N1_10 
REMARK    5  A    between atoms: C20_25  and  O1_26 
REMARK    6  A    between atoms: O1_26  and  S1_27 
ROOT
HETATM    1  C8  UNL     1      22.308   1.624  51.834  1.00  0.00     0.005 C 
ENDROOT
BRANCH   1   2
HETATM    2  C7  UNL     1      22.306   2.949  51.257  1.00  0.00    -0.018 A 
HETATM    3  C2  UNL     1      22.542   3.383  49.993  1.00  0.00    -0.051 A 
HETATM    4  C1  UNL     1      22.657   2.368  48.920  1.00  0.00     0.049 C 
HETATM    5  C3  UNL     1      22.642   4.708  49.630  1.00  0.00     0.007 A 
HETATM    6  C4  UNL     1      22.503   5.706  50.556  1.00  0.00     0.001 A 
HETATM    7  C5  UNL     1      22.257   5.314  51.872  1.00  0.00     0.001 A 
HETATM    8  C6  UNL     1      22.169   3.965  52.177  1.00  0.00     0.013 A 
ENDBRANCH   1   2
BRANCH   1   9
HETATM    9  C9  UNL     1      23.377   0.969  52.225  1.00  0.00     0.132 C 
BRANCH   9  10
HETATM   10  N1  UNL     1      24.638   0.401  52.475  1.00  0.00    -0.245 NA
HETATM   11  C10 UNL     1      25.719   1.096  52.302  1.00  0.00     0.128 C 
HETATM   12  C11 UNL     1      26.905   1.963  52.079  1.00  0.00     0.102 C 
HETATM   13  N5  UNL     1      26.521   0.021  52.694  1.00  0.00    -0.227 NA
HETATM   14  C12 UNL     1      28.085   1.591  52.910  1.00  0.00     0.157 C 
HETATM   15  N2  UNL     1      27.849   1.551  54.330  1.00  0.00    -0.283 NA
HETATM   16  C13 UNL     1      28.020   0.436  54.979  1.00  0.00     0.216 C 
HETATM   17  N3  UNL     1      28.443  -0.796  54.347  1.00  0.00    -0.294 N 
HETATM   18  N4  UNL     1      27.555  -1.281  53.339  1.00  0.00    -0.293 N 
HETATM   19  H14 UNL     1      29.288  -1.383  54.508  1.00  0.00     0.187 HD
HETATM   20  C14 UNL     1      26.928  -0.990  52.063  1.00  0.00     0.225 C 
HETATM   21  H15 UNL     1      27.244  -2.238  53.688  1.00  0.00     0.187 HD
ENDBRANCH   9  10
ENDBRANCH   1   9
BRANCH   1  22
HETATM   22  C15 UNL     1      21.091   0.859  52.032  1.00  0.00     0.011 A 
HETATM   23  C16 UNL     1      20.065   0.711  51.122  1.00  0.00     0.015 A 
HETATM   24  C17 UNL     1      18.874   0.063  51.284  1.00  0.00     0.001 A 
HETATM   25  C18 UNL     1      18.643  -0.522  52.486  1.00  0.00     0.003 A 
HETATM   26  C19 UNL     1      19.605  -0.432  53.459  1.00  0.00     0.039 A 
HETATM   27  C20 UNL     1      20.782   0.241  53.221  1.00  0.00     0.095 A 
BRANCH  27  28
HETATM   28  O1  UNL     1      21.629   0.234  54.319  1.00  0.00    -0.281 OA
BRANCH  28  29
HETATM   29  S1  UNL     1      22.295  -1.249  54.954  1.00  0.00    -0.017 SA
HETATM   30  H21 UNL     1      23.479  -1.036  55.669  1.00  0.00     0.134 HD
ENDBRANCH  28  29
ENDBRANCH  27  28
ENDBRANCH   1  22
TORSDOF 6
ENDMDL
MODEL 9
REMARK VINA RESULT:      -8.1      3.116      7.741
REMARK  6 active torsions:
REMARK  status: ('A' for Active; 'I' for Inactive)
REMARK    1  A    between atoms: C7_7  and  C8_8 
REMARK    2  A    between atoms: C8_8  and  C9_9 
REMARK    3  A    between atoms: C8_8  and  C15_20 
REMARK    4  A    between atoms: C9_9  and  N1_10 
REMARK    5  A    between atoms: C20_25  and  O1_26 
REMARK    6  A    between atoms: O1_26  and  S1_27 
ROOT
HETATM    1  C8  UNL     1      24.446   3.402  50.009  1.00  0.00     0.005 C 
ENDROOT
BRANCH   1   2
HETATM    2  C7  UNL     1      25.368   4.415  49.553  1.00  0.00    -0.018 A 
HETATM    3  C2  UNL     1      25.186   5.719  49.219  1.00  0.00    -0.051 A 
HETATM    4  C1  UNL     1      23.871   6.334  49.515  1.00  0.00     0.049 C 
HETATM    5  C3  UNL     1      26.155   6.523  48.661  1.00  0.00     0.007 A 
HETATM    6  C4  UNL     1      27.408   6.041  48.398  1.00  0.00     0.001 A 
HETATM    7  C5  UNL     1      27.649   4.706  48.723  1.00  0.00     0.001 A 
HETATM    8  C6  UNL     1      26.635   3.945  49.282  1.00  0.00     0.013 A 
ENDBRANCH   1   2
BRANCH   1   9
HETATM    9  C9  UNL     1      24.618   2.639  51.064  1.00  0.00     0.132 C 
BRANCH   9  10
HETATM   10  N1  UNL     1      24.725   1.641  52.049  1.00  0.00    -0.245 NA
HETATM   11  C10 UNL     1      25.663   0.750  51.982  1.00  0.00     0.128 C 
HETATM   12  C11 UNL     1      26.767  -0.233  51.828  1.00  0.00     0.102 C 
HETATM   13  N5  UNL     1      25.220   0.137  53.157  1.00  0.00    -0.227 NA
HETATM   14  C12 UNL     1      27.228  -0.823  53.117  1.00  0.00     0.157 C 
HETATM   15  N2  UNL     1      27.641   0.127  54.116  1.00  0.00    -0.283 NA
HETATM   16  C13 UNL     1      27.017   0.172  55.257  1.00  0.00     0.216 C 
HETATM   17  N3  UNL     1      25.907  -0.694  55.593  1.00  0.00    -0.294 N 
HETATM   18  N4  UNL     1      24.773  -0.564  54.735  1.00  0.00    -0.293 N 
HETATM   19  H14 UNL     1      25.803  -1.396  56.356  1.00  0.00     0.187 HD
HETATM   20  C14 UNL     1      24.290  -0.685  53.371  1.00  0.00     0.225 C 
HETATM   21  H15 UNL     1      23.980  -0.256  55.376  1.00  0.00     0.187 HD
ENDBRANCH   9  10
ENDBRANCH   1   9
BRANCH   1  22
HETATM   22  C15 UNL     1      23.205   3.108  49.314  1.00  0.00     0.011 A 
HETATM   23  C16 UNL     1      23.078   2.765  47.984  1.00  0.00     0.015 A 
HETATM   24  C17 UNL     1      21.935   2.550  47.270  1.00  0.00     0.001 A 
HETATM   25  C18 UNL     1      20.756   2.680  47.927  1.00  0.00     0.003 A 
HETATM   26  C19 UNL     1      20.777   3.018  49.257  1.00  0.00     0.039 A 
HETATM   27  C20 UNL     1      21.971   3.222  49.910  1.00  0.00     0.095 A 
BRANCH  27  28
HETATM   28  O1  UNL     1      21.796   3.561  51.243  1.00  0.00    -0.281 OA
BRANCH  28  29
HETATM   29  S1  UNL     1      20.257   3.374  52.043  1.00  0.00    -0.017 SA
HETATM   30  H21 UNL     1      19.750   2.075  51.922  1.00  0.00     0.134 HD
ENDBRANCH  28  29
ENDBRANCH  27  28
ENDBRANCH   1  22
TORSDOF 6
ENDMDL
