MODEL 1
REMARK VINA RESULT:      -8.7      0.000      0.000
REMARK  5 active torsions:
REMARK  status: ('A' for Active; 'I' for Inactive)
REMARK    1  A    between atoms: O1_1  and  C1_2 
REMARK    2  A    between atoms: C1_2  and  N1_3 
REMARK    3  A    between atoms: N1_3  and  C2_4 
REMARK    4  A    between atoms: C9_14  and  C10_15 
REMARK    5  A    between atoms: C13_18  and  O2_19 
ROOT
HETATM    1  C2  UNL     1      25.173   5.887  49.573  1.00  0.00     0.108 C 
HETATM    2  C3  UNL     1      24.980   7.347  49.527  1.00  0.00     0.137 C 
HETATM    3  S1  UNL     1      24.086   7.642  51.178  1.00  0.00    -0.208 SA
HETATM    4  C4  UNL     1      22.621   6.587  51.077  1.00  0.00     0.140 C 
HETATM    5  C5  UNL     1      21.658   5.718  51.066  1.00  0.00     0.009 C 
HETATM    6  C6  UNL     1      21.922   4.398  51.565  1.00  0.00     0.026 C 
HETATM    7  C7  UNL     1      23.070   4.074  52.035  1.00  0.00     0.024 C 
HETATM    8  N2  UNL     1      24.295   4.210  52.397  1.00  0.00    -0.350 N 
HETATM    9  C8  UNL     1      24.658   3.633  50.998  1.00  0.00     0.175 A 
HETATM   10  N3  UNL     1      26.016   3.080  51.391  1.00  0.00    -0.245 NA
HETATM   11  C9  UNL     1      26.095   2.235  52.395  1.00  0.00     0.045 C 
HETATM   12  C16 UNL     1      24.820   2.253  53.078  1.00  0.00     0.082 C 
HETATM   13  C17 UNL     1      23.689   2.737  51.969  1.00  0.00     0.073 A 
HETATM   14  C18 UNL     1      23.415   1.430  51.595  1.00  0.00     0.034 A 
HETATM   15  C19 UNL     1      23.967   2.450  50.562  1.00  0.00     0.132 A 
HETATM   16 BR1  UNL     1      22.614   2.559  49.204  1.00  0.00    -0.084 Br
HETATM   17  N4  UNL     1      24.896   4.754  50.262  1.00  0.00    -0.336 N 
HETATM   18  H9  UNL     1      25.209   4.425  52.999  1.00  0.00     0.163 HD
HETATM   19  H19 UNL     1      25.583   5.303  50.916  1.00  0.00     0.165 HD
ENDROOT
BRANCH  11  20
HETATM   20  C10 UNL     1      27.142   1.370  52.842  1.00  0.00    -0.012 A 
HETATM   21  C11 UNL     1      26.941   0.012  52.632  1.00  0.00     0.016 A 
HETATM   22  C12 UNL     1      27.863  -0.925  53.008  1.00  0.00     0.037 A 
HETATM   23  C13 UNL     1      28.996  -0.375  53.606  1.00  0.00     0.065 A 
HETATM   24  C14 UNL     1      29.200   0.953  53.817  1.00  0.00     0.037 A 
HETATM   25  C15 UNL     1      28.273   1.880  53.437  1.00  0.00     0.016 A 
BRANCH  23  26
HETATM   26  O2  UNL     1      30.023  -1.223  54.040  1.00  0.00    -0.361 OA
HETATM   27  H12 UNL     1      30.942  -0.810  54.170  1.00  0.00     0.217 HD
ENDBRANCH  23  26
ENDBRANCH  11  20
BRANCH   1  28
HETATM   28  N1  UNL     1      25.774   5.177  48.687  1.00  0.00    -0.251 NA
BRANCH  28  29
HETATM   29  C1  UNL     1      27.207   5.276  48.578  1.00  0.00     0.315 C 
BRANCH  29  30
HETATM   30  O1  UNL     1      27.858   4.563  49.584  1.00  0.00    -0.380 OA
HETATM   31  H1  UNL     1      28.406   5.217  50.089  1.00  0.00     0.211 HD
ENDBRANCH  29  30
ENDBRANCH  28  29
ENDBRANCH   1  28
TORSDOF 5
ENDMDL
MODEL 2
REMARK VINA RESULT:      -7.8      1.765      2.274
REMARK  5 active torsions:
REMARK  status: ('A' for Active; 'I' for Inactive)
REMARK    1  A    between atoms: O1_1  and  C1_2 
REMARK    2  A    between atoms: C1_2  and  N1_3 
REMARK    3  A    between atoms: N1_3  and  C2_4 
REMARK    4  A    between atoms: C9_14  and  C10_15 
REMARK    5  A    between atoms: C13_18  and  O2_19 
ROOT
HETATM    1  C2  UNL     1      23.404   5.784  49.380  1.00  0.00     0.108 C 
HETATM    2  C3  UNL     1      22.988   7.196  49.300  1.00  0.00     0.137 C 
HETATM    3  S1  UNL     1      21.606   7.235  50.604  1.00  0.00    -0.208 SA
HETATM    4  C4  UNL     1      20.440   5.972  50.045  1.00  0.00     0.140 C 
HETATM    5  C5  UNL     1      19.687   4.965  49.728  1.00  0.00     0.009 C 
HETATM    6  C6  UNL     1      20.011   3.673  50.262  1.00  0.00     0.026 C 
HETATM    7  C7  UNL     1      21.005   3.502  51.054  1.00  0.00     0.024 C 
HETATM    8  N2  UNL     1      22.025   3.805  51.775  1.00  0.00    -0.350 N 
HETATM    9  C8  UNL     1      22.880   3.387  50.544  1.00  0.00     0.175 A 
HETATM   10  N3  UNL     1      24.133   3.030  51.323  1.00  0.00    -0.245 NA
HETATM   11  C9  UNL     1      24.052   2.143  52.290  1.00  0.00     0.045 C 
HETATM   12  C16 UNL     1      22.648   1.915  52.552  1.00  0.00     0.082 C 
HETATM   13  C17 UNL     1      21.834   2.287  51.159  1.00  0.00     0.073 A 
HETATM   14  C18 UNL     1      21.910   0.981  50.698  1.00  0.00     0.034 A 
HETATM   15  C19 UNL     1      22.563   2.143  49.899  1.00  0.00     0.132 A 
HETATM   16 BR1  UNL     1      21.677   2.127  48.196  1.00  0.00    -0.084 Br
HETATM   17  N4  UNL     1      23.131   4.578  49.933  1.00  0.00    -0.336 N 
HETATM   18  H9  UNL     1      22.666   4.121  52.630  1.00  0.00     0.163 HD
HETATM   19  H19 UNL     1      23.489   5.184  50.774  1.00  0.00     0.165 HD
ENDROOT
BRANCH  11  20
HETATM   20  C10 UNL     1      25.050   1.426  53.021  1.00  0.00    -0.012 A 
HETATM   21  C11 UNL     1      26.259   2.084  53.203  1.00  0.00     0.016 A 
HETATM   22  C12 UNL     1      27.300   1.515  53.885  1.00  0.00     0.037 A 
HETATM   23  C13 UNL     1      27.012   0.238  54.366  1.00  0.00     0.065 A 
HETATM   24  C14 UNL     1      25.830  -0.414  54.190  1.00  0.00     0.037 A 
HETATM   25  C15 UNL     1      24.799   0.164  53.507  1.00  0.00     0.016 A 
BRANCH  23  26
HETATM   26  O2  UNL     1      27.989  -0.461  55.084  1.00  0.00    -0.361 OA
HETATM   27  H12 UNL     1      28.935  -0.451  54.712  1.00  0.00     0.217 HD
ENDBRANCH  23  26
ENDBRANCH  11  20
BRANCH   1  28
HETATM   28  N1  UNL     1      24.353   5.239  48.707  1.00  0.00    -0.251 NA
BRANCH  28  29
HETATM   29  C1  UNL     1      25.716   5.540  49.067  1.00  0.00     0.315 C 
BRANCH  29  30
HETATM   30  O1  UNL     1      26.017   5.130  50.365  1.00  0.00    -0.380 OA
HETATM   31  H1  UNL     1      26.229   5.949  50.881  1.00  0.00     0.211 HD
ENDBRANCH  29  30
ENDBRANCH  28  29
ENDBRANCH   1  28
TORSDOF 5
ENDMDL
MODEL 3
REMARK VINA RESULT:      -7.7      2.851      3.789
REMARK  5 active torsions:
REMARK  status: ('A' for Active; 'I' for Inactive)
REMARK    1  A    between atoms: O1_1  and  C1_2 
REMARK    2  A    between atoms: C1_2  and  N1_3 
REMARK    3  A    between atoms: N1_3  and  C2_4 
REMARK    4  A    between atoms: C9_14  and  C10_15 
REMARK    5  A    between atoms: C13_18  and  O2_19 
ROOT
HETATM    1  C2  UNL     1      24.792   5.180  49.896  1.00  0.00     0.108 C 
HETATM    2  C3  UNL     1      25.360   6.540  49.889  1.00  0.00     0.137 C 
HETATM    3  S1  UNL     1      23.981   7.507  50.770  1.00  0.00    -0.208 SA
HETATM    4  C4  UNL     1      22.513   7.193  49.763  1.00  0.00     0.140 C 
HETATM    5  C5  UNL     1      21.437   6.843  49.130  1.00  0.00     0.009 C 
HETATM    6  C6  UNL     1      20.741   5.663  49.563  1.00  0.00     0.026 C 
HETATM    7  C7  UNL     1      21.148   4.972  50.563  1.00  0.00     0.024 C 
HETATM    8  N2  UNL     1      21.880   4.632  51.563  1.00  0.00    -0.350 N 
HETATM    9  C8  UNL     1      22.618   3.695  50.562  1.00  0.00     0.175 A 
HETATM   10  N3  UNL     1      23.107   2.697  51.596  1.00  0.00    -0.245 NA
HETATM   11  C9  UNL     1      22.231   2.114  52.385  1.00  0.00     0.045 C 
HETATM   12  C16 UNL     1      20.976   2.815  52.231  1.00  0.00     0.082 C 
HETATM   13  C17 UNL     1      20.998   3.514  50.730  1.00  0.00     0.073 A 
HETATM   14  C18 UNL     1      20.398   2.410  50.144  1.00  0.00     0.034 A 
HETATM   15  C19 UNL     1      21.815   2.868  49.703  1.00  0.00     0.132 A 
HETATM   16 BR1  UNL     1      21.640   3.286  47.837  1.00  0.00    -0.084 Br
HETATM   17  N4  UNL     1      23.701   4.436  50.198  1.00  0.00    -0.336 N 
HETATM   18  H9  UNL     1      22.301   4.543  52.592  1.00  0.00     0.163 HD
HETATM   19  H19 UNL     1      24.089   4.749  51.174  1.00  0.00     0.165 HD
ENDROOT
BRANCH  11  20
HETATM   20  C10 UNL     1      22.328   0.986  53.259  1.00  0.00    -0.012 A 
HETATM   21  C11 UNL     1      23.585   0.404  53.363  1.00  0.00     0.016 A 
HETATM   22  C12 UNL     1      23.819  -0.679  54.165  1.00  0.00     0.037 A 
HETATM   23  C13 UNL     1      22.684  -1.115  54.847  1.00  0.00     0.065 A 
HETATM   24  C14 UNL     1      21.449  -0.552  54.749  1.00  0.00     0.037 A 
HETATM   25  C15 UNL     1      21.228   0.529  53.945  1.00  0.00     0.016 A 
BRANCH  23  26
HETATM   26  O2  UNL     1      22.781  -2.218  55.705  1.00  0.00    -0.361 OA
HETATM   27  H12 UNL     1      22.060  -2.930  55.628  1.00  0.00     0.217 HD
ENDBRANCH  23  26
ENDBRANCH  11  20
BRANCH   1  28
HETATM   28  N1  UNL     1      25.361   4.123  49.438  1.00  0.00    -0.251 NA
BRANCH  28  29
HETATM   29  C1  UNL     1      26.461   3.556  50.176  1.00  0.00     0.315 C 
BRANCH  29  30
HETATM   30  O1  UNL     1      26.117   3.280  51.499  1.00  0.00    -0.380 OA
HETATM   31  H1  UNL     1      25.250   3.730  51.668  1.00  0.00     0.211 HD
ENDBRANCH  29  30
ENDBRANCH  28  29
ENDBRANCH   1  28
TORSDOF 5
ENDMDL
MODEL 4
REMARK VINA RESULT:      -7.5      3.954      5.302
REMARK  5 active torsions:
REMARK  status: ('A' for Active; 'I' for Inactive)
REMARK    1  A    between atoms: O1_1  and  C1_2 
REMARK    2  A    between atoms: C1_2  and  N1_3 
REMARK    3  A    between atoms: N1_3  and  C2_4 
REMARK    4  A    between atoms: C9_14  and  C10_15 
REMARK    5  A    between atoms: C13_18  and  O2_19 
ROOT
HETATM    1  C2  UNL     1      19.711   4.229  49.300  1.00  0.00     0.108 C 
HETATM    2  C3  UNL     1      19.029   4.304  47.996  1.00  0.00     0.137 C 
HETATM    3  S1  UNL     1      20.362   3.577  46.853  1.00  0.00    -0.208 SA
HETATM    4  C4  UNL     1      21.799   4.640  47.124  1.00  0.00     0.140 C 
HETATM    5  C5  UNL     1      22.868   5.306  47.434  1.00  0.00     0.009 C 
HETATM    6  C6  UNL     1      23.683   4.828  48.515  1.00  0.00     0.026 C 
HETATM    7  C7  UNL     1      23.388   3.758  49.157  1.00  0.00     0.024 C 
HETATM    8  N2  UNL     1      22.740   2.695  49.476  1.00  0.00    -0.350 N 
HETATM    9  C8  UNL     1      22.035   3.580  50.545  1.00  0.00     0.175 A 
HETATM   10  N3  UNL     1      21.686   2.449  51.496  1.00  0.00    -0.245 NA
HETATM   11  C9  UNL     1      22.648   1.671  51.942  1.00  0.00     0.045 C 
HETATM   12  C16 UNL     1      23.829   1.948  51.156  1.00  0.00     0.082 C 
HETATM   13  C17 UNL     1      23.671   3.493  50.580  1.00  0.00     0.073 A 
HETATM   14  C18 UNL     1      24.333   4.029  51.674  1.00  0.00     0.034 A 
HETATM   15  C19 UNL     1      22.861   4.420  51.369  1.00  0.00     0.132 A 
HETATM   16 BR1  UNL     1      22.905   6.319  51.086  1.00  0.00    -0.084 Br
HETATM   17  N4  UNL     1      20.876   3.935  49.926  1.00  0.00    -0.336 N 
HETATM   18  H9  UNL     1      22.381   1.641  49.518  1.00  0.00     0.163 HD
HETATM   19  H19 UNL     1      20.512   2.965  49.570  1.00  0.00     0.165 HD
ENDROOT
BRANCH  11  20
HETATM   20  C10 UNL     1      22.693   0.713  53.002  1.00  0.00    -0.012 A 
HETATM   21  C11 UNL     1      23.944   0.185  53.292  1.00  0.00     0.016 A 
HETATM   22  C12 UNL     1      24.131  -0.739  54.283  1.00  0.00     0.037 A 
HETATM   23  C13 UNL     1      22.954  -1.077  54.950  1.00  0.00     0.065 A 
HETATM   24  C14 UNL     1      21.724  -0.566  54.672  1.00  0.00     0.037 A 
HETATM   25  C15 UNL     1      21.550   0.356  53.680  1.00  0.00     0.016 A 
BRANCH  23  26
HETATM   26  O2  UNL     1      23.000  -2.014  55.990  1.00  0.00    -0.361 OA
HETATM   27  H12 UNL     1      23.916  -2.244  56.367  1.00  0.00     0.217 HD
ENDBRANCH  23  26
ENDBRANCH  11  20
BRANCH   1  28
HETATM   28  N1  UNL     1      19.212   4.574  50.432  1.00  0.00    -0.251 NA
BRANCH  28  29
HETATM   29  C1  UNL     1      18.365   3.639  51.128  1.00  0.00     0.315 C 
BRANCH  29  30
HETATM   30  O1  UNL     1      18.936   3.206  52.325  1.00  0.00    -0.380 OA
HETATM   31  H1  UNL     1      19.619   2.528  52.086  1.00  0.00     0.211 HD
ENDBRANCH  29  30
ENDBRANCH  28  29
ENDBRANCH   1  28
TORSDOF 5
ENDMDL
MODEL 5
REMARK VINA RESULT:      -7.4      6.102      9.402
REMARK  5 active torsions:
REMARK  status: ('A' for Active; 'I' for Inactive)
REMARK    1  A    between atoms: O1_1  and  C1_2 
REMARK    2  A    between atoms: C1_2  and  N1_3 
REMARK    3  A    between atoms: N1_3  and  C2_4 
REMARK    4  A    between atoms: C9_14  and  C10_15 
REMARK    5  A    between atoms: C13_18  and  O2_19 
ROOT
HETATM    1  C2  UNL     1      33.780   4.682  47.244  1.00  0.00     0.108 C 
HETATM    2  C3  UNL     1      35.077   4.305  47.833  1.00  0.00     0.137 C 
HETATM    3  S1  UNL     1      35.278   5.659  49.150  1.00  0.00    -0.208 SA
HETATM    4  C4  UNL     1      35.185   7.201  48.212  1.00  0.00     0.140 C 
HETATM    5  C5  UNL     1      34.966   8.301  47.560  1.00  0.00     0.009 C 
HETATM    6  C6  UNL     1      33.613   8.766  47.439  1.00  0.00     0.026 C 
HETATM    7  C7  UNL     1      32.634   8.134  47.974  1.00  0.00     0.024 C 
HETATM    8  N2  UNL     1      32.023   7.229  48.651  1.00  0.00    -0.350 N 
HETATM    9  C8  UNL     1      31.785   6.525  47.283  1.00  0.00     0.175 A 
HETATM   10  N3  UNL     1      30.538   5.766  47.700  1.00  0.00    -0.245 NA
HETATM   11  C9  UNL     1      29.515   6.436  48.182  1.00  0.00     0.045 C 
HETATM   12  C16 UNL     1      29.968   7.782  48.455  1.00  0.00     0.082 C 
HETATM   13  C17 UNL     1      31.256   8.065  47.453  1.00  0.00     0.073 A 
HETATM   14  C18 UNL     1      30.442   8.592  46.461  1.00  0.00     0.034 A 
HETATM   15  C19 UNL     1      31.299   7.324  46.193  1.00  0.00     0.132 A 
HETATM   16 BR1  UNL     1      32.468   7.816  44.751  1.00  0.00    -0.084 Br
HETATM   17  N4  UNL     1      32.794   5.611  47.236  1.00  0.00    -0.336 N 
HETATM   18  H9  UNL     1      31.561   6.659  49.490  1.00  0.00     0.163 HD
HETATM   19  H19 UNL     1      32.703   5.133  48.218  1.00  0.00     0.165 HD
ENDROOT
BRANCH  11  20
HETATM   20  C10 UNL     1      28.154   6.069  48.423  1.00  0.00    -0.012 A 
HETATM   21  C11 UNL     1      27.940   4.753  48.812  1.00  0.00     0.016 A 
HETATM   22  C12 UNL     1      26.688   4.269  49.076  1.00  0.00     0.037 A 
HETATM   23  C13 UNL     1      25.683   5.222  48.918  1.00  0.00     0.065 A 
HETATM   24  C14 UNL     1      25.884   6.512  48.536  1.00  0.00     0.037 A 
HETATM   25  C15 UNL     1      27.138   6.985  48.274  1.00  0.00     0.016 A 
BRANCH  23  26
HETATM   26  O2  UNL     1      24.351   4.862  49.158  1.00  0.00    -0.361 OA
HETATM   27  H12 UNL     1      23.665   5.131  48.458  1.00  0.00     0.217 HD
ENDBRANCH  23  26
ENDBRANCH  11  20
BRANCH   1  28
HETATM   28  N1  UNL     1      33.163   4.049  46.311  1.00  0.00    -0.251 NA
BRANCH  28  29
HETATM   29  C1  UNL     1      32.524   2.798  46.630  1.00  0.00     0.315 C 
BRANCH  29  30
HETATM   30  O1  UNL     1      31.154   2.828  46.368  1.00  0.00    -0.380 OA
HETATM   31  H1  UNL     1      30.752   3.451  47.027  1.00  0.00     0.211 HD
ENDBRANCH  29  30
ENDBRANCH  28  29
ENDBRANCH   1  28
TORSDOF 5
ENDMDL
MODEL 6
REMARK VINA RESULT:      -7.2      3.435      4.744
REMARK  5 active torsions:
REMARK  status: ('A' for Active; 'I' for Inactive)
REMARK    1  A    between atoms: O1_1  and  C1_2 
REMARK    2  A    between atoms: C1_2  and  N1_3 
REMARK    3  A    between atoms: N1_3  and  C2_4 
REMARK    4  A    between atoms: C9_14  and  C10_15 
REMARK    5  A    between atoms: C13_18  and  O2_19 
ROOT
HETATM    1  C2  UNL     1      19.709   4.224  49.623  1.00  0.00     0.108 C 
HETATM    2  C3  UNL     1      18.641   4.148  48.611  1.00  0.00     0.137 C 
HETATM    3  S1  UNL     1      19.662   3.861  47.035  1.00  0.00    -0.208 SA
HETATM    4  C4  UNL     1      20.787   5.274  46.978  1.00  0.00     0.140 C 
HETATM    5  C5  UNL     1      21.692   6.202  47.022  1.00  0.00     0.009 C 
HETATM    6  C6  UNL     1      22.911   5.937  47.733  1.00  0.00     0.026 C 
HETATM    7  C7  UNL     1      23.126   4.807  48.299  1.00  0.00     0.024 C 
HETATM    8  N2  UNL     1      22.911   3.595  48.671  1.00  0.00    -0.350 N 
HETATM    9  C8  UNL     1      22.398   4.213  50.004  1.00  0.00     0.175 A 
HETATM   10  N3  UNL     1      22.682   2.999  50.871  1.00  0.00    -0.245 NA
HETATM   11  C9  UNL     1      23.901   2.507  50.901  1.00  0.00     0.045 C 
HETATM   12  C16 UNL     1      24.646   3.129  49.829  1.00  0.00     0.082 C 
HETATM   13  C17 UNL     1      23.919   4.585  49.523  1.00  0.00     0.073 A 
HETATM   14  C18 UNL     1      24.746   5.250  50.417  1.00  0.00     0.034 A 
HETATM   15  C19 UNL     1      23.207   5.223  50.629  1.00  0.00     0.132 A 
HETATM   16 BR1  UNL     1      22.671   7.066  50.580  1.00  0.00    -0.084 Br
HETATM   17  N4  UNL     1      21.050   4.249  49.820  1.00  0.00    -0.336 N 
HETATM   18  H9  UNL     1      22.868   2.482  48.693  1.00  0.00     0.163 HD
HETATM   19  H19 UNL     1      20.848   3.227  49.478  1.00  0.00     0.165 HD
ENDROOT
BRANCH  11  20
HETATM   20  C10 UNL     1      24.534   1.565  51.771  1.00  0.00    -0.012 A 
HETATM   21  C11 UNL     1      25.910   1.437  51.630  1.00  0.00     0.016 A 
HETATM   22  C12 UNL     1      26.641   0.575  52.399  1.00  0.00     0.037 A 
HETATM   23  C13 UNL     1      25.869  -0.136  53.317  1.00  0.00     0.065 A 
HETATM   24  C14 UNL     1      24.521  -0.018  53.460  1.00  0.00     0.037 A 
HETATM   25  C15 UNL     1      23.801   0.846  52.686  1.00  0.00     0.016 A 
BRANCH  23  26
HETATM   26  O2  UNL     1      26.491  -1.056  54.170  1.00  0.00    -0.361 OA
HETATM   27  H12 UNL     1      27.448  -1.320  53.949  1.00  0.00     0.217 HD
ENDBRANCH  23  26
ENDBRANCH  11  20
BRANCH   1  28
HETATM   28  N1  UNL     1      19.541   4.380  50.887  1.00  0.00    -0.251 NA
BRANCH  28  29
HETATM   29  C1  UNL     1      19.232   3.224  51.690  1.00  0.00     0.315 C 
BRANCH  29  30
HETATM   30  O1  UNL     1      20.166   3.030  52.708  1.00  0.00    -0.380 OA
HETATM   31  H1  UNL     1      21.006   3.465  52.412  1.00  0.00     0.211 HD
ENDBRANCH  29  30
ENDBRANCH  28  29
ENDBRANCH   1  28
TORSDOF 5
ENDMDL
MODEL 7
REMARK VINA RESULT:      -6.9      2.903      3.552
REMARK  5 active torsions:
REMARK  status: ('A' for Active; 'I' for Inactive)
REMARK    1  A    between atoms: O1_1  and  C1_2 
REMARK    2  A    between atoms: C1_2  and  N1_3 
REMARK    3  A    between atoms: N1_3  and  C2_4 
REMARK    4  A    between atoms: C9_14  and  C10_15 
REMARK    5  A    between atoms: C13_18  and  O2_19 
ROOT
HETATM    1  C2  UNL     1      22.357   4.618  47.572  1.00  0.00     0.108 C 
HETATM    2  C3  UNL     1      22.592   5.659  46.555  1.00  0.00     0.137 C 
HETATM    3  S1  UNL     1      23.372   7.027  47.617  1.00  0.00    -0.208 SA
HETATM    4  C4  UNL     1      22.134   7.350  48.894  1.00  0.00     0.140 C 
HETATM    5  C5  UNL     1      21.316   7.471  49.893  1.00  0.00     0.009 C 
HETATM    6  C6  UNL     1      21.502   6.622  51.036  1.00  0.00     0.026 C 
HETATM    7  C7  UNL     1      22.461   5.774  51.096  1.00  0.00     0.024 C 
HETATM    8  N2  UNL     1      23.509   5.127  50.729  1.00  0.00    -0.350 N 
HETATM    9  C8  UNL     1      22.522   4.037  50.219  1.00  0.00     0.175 A 
HETATM   10  N3  UNL     1      23.491   2.873  50.321  1.00  0.00    -0.245 NA
HETATM   11  C9  UNL     1      24.071   2.624  51.474  1.00  0.00     0.045 C 
HETATM   12  C16 UNL     1      23.821   3.756  52.338  1.00  0.00     0.082 C 
HETATM   13  C17 UNL     1      22.432   4.476  51.795  1.00  0.00     0.073 A 
HETATM   14  C18 UNL     1      21.639   3.717  52.643  1.00  0.00     0.034 A 
HETATM   15  C19 UNL     1      21.465   3.626  51.101  1.00  0.00     0.132 A 
HETATM   16 BR1  UNL     1      19.656   4.180  50.777  1.00  0.00    -0.084 Br
HETATM   17  N4  UNL     1      22.408   4.330  48.894  1.00  0.00    -0.336 N 
HETATM   18  H9  UNL     1      24.570   4.829  50.560  1.00  0.00     0.163 HD
HETATM   19  H19 UNL     1      23.460   4.418  48.598  1.00  0.00     0.165 HD
ENDROOT
BRANCH  11  20
HETATM   20  C10 UNL     1      24.810   1.498  51.954  1.00  0.00    -0.012 A 
HETATM   21  C11 UNL     1      24.126   0.638  52.803  1.00  0.00     0.016 A 
HETATM   22  C12 UNL     1      24.713  -0.478  53.333  1.00  0.00     0.037 A 
HETATM   23  C13 UNL     1      26.036  -0.650  52.929  1.00  0.00     0.065 A 
HETATM   24  C14 UNL     1      26.714   0.188  52.099  1.00  0.00     0.037 A 
HETATM   25  C15 UNL     1      26.118   1.300  51.576  1.00  0.00     0.016 A 
BRANCH  23  26
HETATM   26  O2  UNL     1      26.758  -1.755  53.397  1.00  0.00    -0.361 OA
HETATM   27  H12 UNL     1      27.125  -1.703  54.343  1.00  0.00     0.217 HD
ENDBRANCH  23  26
ENDBRANCH  11  20
BRANCH   1  28
HETATM   28  N1  UNL     1      21.864   3.451  47.356  1.00  0.00    -0.251 NA
BRANCH  28  29
HETATM   29  C1  UNL     1      20.437   3.321  47.203  1.00  0.00     0.315 C 
BRANCH  29  30
HETATM   30  O1  UNL     1      19.929   2.244  47.929  1.00  0.00    -0.380 OA
HETATM   31  H1  UNL     1      19.617   1.575  47.267  1.00  0.00     0.211 HD
ENDBRANCH  29  30
ENDBRANCH  28  29
ENDBRANCH   1  28
TORSDOF 5
ENDMDL
MODEL 8
REMARK VINA RESULT:      -6.8      3.812      4.821
REMARK  5 active torsions:
REMARK  status: ('A' for Active; 'I' for Inactive)
REMARK    1  A    between atoms: O1_1  and  C1_2 
REMARK    2  A    between atoms: C1_2  and  N1_3 
REMARK    3  A    between atoms: N1_3  and  C2_4 
REMARK    4  A    between atoms: C9_14  and  C10_15 
REMARK    5  A    between atoms: C13_18  and  O2_19 
ROOT
HETATM    1  C2  UNL     1      21.243   6.773  50.320  1.00  0.00     0.108 C 
HETATM    2  C3  UNL     1      20.235   7.708  49.791  1.00  0.00     0.137 C 
HETATM    3  S1  UNL     1      19.445   6.646  48.427  1.00  0.00    -0.208 SA
HETATM    4  C4  UNL     1      20.834   6.199  47.360  1.00  0.00     0.140 C 
HETATM    5  C5  UNL     1      21.849   5.755  46.686  1.00  0.00     0.009 C 
HETATM    6  C6  UNL     1      22.480   4.541  47.120  1.00  0.00     0.026 C 
HETATM    7  C7  UNL     1      22.050   3.885  48.135  1.00  0.00     0.024 C 
HETATM    8  N2  UNL     1      21.302   3.587  49.136  1.00  0.00    -0.350 N 
HETATM    9  C8  UNL     1      22.364   4.319  50.007  1.00  0.00     0.175 A 
HETATM   10  N3  UNL     1      22.071   3.570  51.294  1.00  0.00    -0.245 NA
HETATM   11  C9  UNL     1      22.137   2.257  51.297  1.00  0.00     0.045 C 
HETATM   12  C16 UNL     1      22.220   1.823  49.920  1.00  0.00     0.082 C 
HETATM   13  C17 UNL     1      22.870   3.081  49.061  1.00  0.00     0.073 A 
HETATM   14  C18 UNL     1      24.162   2.607  49.236  1.00  0.00     0.034 A 
HETATM   15  C19 UNL     1      23.748   4.002  49.783  1.00  0.00     0.132 A 
HETATM   16 BR1  UNL     1      24.898   5.246  48.880  1.00  0.00    -0.084 Br
HETATM   17  N4  UNL     1      21.828   5.562  50.153  1.00  0.00    -0.336 N 
HETATM   18  H9  UNL     1      20.478   3.170  49.761  1.00  0.00     0.163 HD
HETATM   19  H19 UNL     1      20.807   5.324  50.471  1.00  0.00     0.165 HD
ENDROOT
BRANCH  11  20
HETATM   20  C10 UNL     1      22.165   1.300  52.359  1.00  0.00    -0.012 A 
HETATM   21  C11 UNL     1      20.994   1.175  53.095  1.00  0.00     0.016 A 
HETATM   22  C12 UNL     1      20.882   0.296  54.137  1.00  0.00     0.037 A 
HETATM   23  C13 UNL     1      22.043  -0.440  54.365  1.00  0.00     0.065 A 
HETATM   24  C14 UNL     1      23.195  -0.323  53.650  1.00  0.00     0.037 A 
HETATM   25  C15 UNL     1      23.296   0.558  52.613  1.00  0.00     0.016 A 
BRANCH  23  26
HETATM   26  O2  UNL     1      22.068  -1.380  55.404  1.00  0.00    -0.361 OA
HETATM   27  H12 UNL     1      21.410  -2.152  55.347  1.00  0.00     0.217 HD
ENDBRANCH  23  26
ENDBRANCH  11  20
BRANCH   1  28
HETATM   28  N1  UNL     1      22.040   7.000  51.302  1.00  0.00    -0.251 NA
BRANCH  28  29
HETATM   29  C1  UNL     1      23.334   7.571  51.023  1.00  0.00     0.315 C 
BRANCH  29  30
HETATM   30  O1  UNL     1      24.326   7.046  51.852  1.00  0.00    -0.380 OA
HETATM   31  H1  UNL     1      25.093   7.673  51.811  1.00  0.00     0.211 HD
ENDBRANCH  29  30
ENDBRANCH  28  29
ENDBRANCH   1  28
TORSDOF 5
ENDMDL
MODEL 9
REMARK VINA RESULT:      -6.8      3.735      5.434
REMARK  5 active torsions:
REMARK  status: ('A' for Active; 'I' for Inactive)
REMARK    1  A    between atoms: O1_1  and  C1_2 
REMARK    2  A    between atoms: C1_2  and  N1_3 
REMARK    3  A    between atoms: N1_3  and  C2_4 
REMARK    4  A    between atoms: C9_14  and  C10_15 
REMARK    5  A    between atoms: C13_18  and  O2_19 
ROOT
HETATM    1  C2  UNL     1      20.500   3.746  48.107  1.00  0.00     0.108 C 
HETATM    2  C3  UNL     1      19.089   4.138  47.938  1.00  0.00     0.137 C 
HETATM    3  S1  UNL     1      18.873   5.333  49.400  1.00  0.00    -0.208 SA
HETATM    4  C4  UNL     1      19.313   4.341  50.845  1.00  0.00     0.140 C 
HETATM    5  C5  UNL     1      19.774   3.675  51.859  1.00  0.00     0.009 C 
HETATM    6  C6  UNL     1      21.179   3.748  52.143  1.00  0.00     0.026 C 
HETATM    7  C7  UNL     1      21.972   4.466  51.436  1.00  0.00     0.024 C 
HETATM    8  N2  UNL     1      22.347   5.279  50.514  1.00  0.00    -0.350 N 
HETATM    9  C8  UNL     1      22.693   4.007  49.687  1.00  0.00     0.175 A 
HETATM   10  N3  UNL     1      23.750   4.658  48.812  1.00  0.00    -0.245 NA
HETATM   11  C9  UNL     1      24.768   5.261  49.384  1.00  0.00     0.045 C 
HETATM   12  C16 UNL     1      24.463   5.386  50.792  1.00  0.00     0.082 C 
HETATM   13  C17 UNL     1      23.391   4.177  51.158  1.00  0.00     0.073 A 
HETATM   14  C18 UNL     1      24.410   3.302  51.506  1.00  0.00     0.034 A 
HETATM   15  C19 UNL     1      23.442   2.967  50.338  1.00  0.00     0.132 A 
HETATM   16 BR1  UNL     1      22.582   1.333  50.864  1.00  0.00    -0.084 Br
HETATM   17  N4  UNL     1      21.590   3.847  48.904  1.00  0.00    -0.336 N 
HETATM   18  H9  UNL     1      22.595   6.210  49.954  1.00  0.00     0.163 HD
HETATM   19  H19 UNL     1      21.466   4.854  48.491  1.00  0.00     0.165 HD
ENDROOT
BRANCH  11  20
HETATM   20  C10 UNL     1      26.015   5.736  48.869  1.00  0.00    -0.012 A 
HETATM   21  C11 UNL     1      27.067   4.830  48.894  1.00  0.00     0.016 A 
HETATM   22  C12 UNL     1      28.313   5.152  48.431  1.00  0.00     0.037 A 
HETATM   23  C13 UNL     1      28.400   6.455  47.942  1.00  0.00     0.065 A 
HETATM   24  C14 UNL     1      27.375   7.349  47.916  1.00  0.00     0.037 A 
HETATM   25  C15 UNL     1      26.135   7.017  48.382  1.00  0.00     0.016 A 
BRANCH  23  26
HETATM   26  O2  UNL     1      29.621   6.918  47.436  1.00  0.00    -0.361 OA
HETATM   27  H12 UNL     1      30.161   7.544  48.027  1.00  0.00     0.217 HD
ENDBRANCH  23  26
ENDBRANCH  11  20
BRANCH   1  28
HETATM   28  N1  UNL     1      21.160   2.959  47.336  1.00  0.00    -0.251 NA
BRANCH  28  29
HETATM   29  C1  UNL     1      21.606   3.455  46.059  1.00  0.00     0.315 C 
BRANCH  29  30
HETATM   30  O1  UNL     1      22.225   4.701  46.169  1.00  0.00    -0.380 OA
HETATM   31  H1  UNL     1      21.500   5.374  46.231  1.00  0.00     0.211 HD
ENDBRANCH  29  30
ENDBRANCH  28  29
ENDBRANCH   1  28
TORSDOF 5
ENDMDL
