MODEL 1
REMARK VINA RESULT:      -7.6      0.000      0.000
REMARK  7 active torsions:
REMARK  status: ('A' for Active; 'I' for Inactive)
REMARK    1  A    between atoms: O1_2  and  C2_3 
REMARK    2  A    between atoms: C2_3  and  C3_4 
REMARK    3  A    between atoms: C3_4  and  O2_5 
REMARK    4  A    between atoms: O2_5  and  C4_6 
REMARK    5  A    between atoms: C8_12  and  N3_13 
REMARK    6  A    between atoms: N3_13  and  C9_14 
REMARK    7  A    between atoms: C10_15  and  C12_17 
ROOT
HETATM    1  C4  UNL     1      20.894   0.130  53.216  1.00  0.00     0.107 A 
HETATM    2  C5  UNL     1      21.258  -0.597  54.355  1.00  0.00     0.072 A 
HETATM    3  C6  UNL     1      22.610  -0.750  54.617  1.00  0.00     0.077 A 
HETATM    4  N1  UNL     1      23.017  -1.434  55.690  1.00  0.00    -0.241 NA
HETATM    5  C7  UNL     1      24.314  -1.612  55.991  1.00  0.00     0.236 A 
HETATM    6  N2  UNL     1      25.243  -1.064  55.155  1.00  0.00    -0.223 NA
HETATM    7  C8  UNL     1      24.825  -0.376  54.076  1.00  0.00     0.144 A 
HETATM    8  C13 UNL     1      23.508  -0.177  53.742  1.00  0.00     0.075 A 
HETATM    9  C14 UNL     1      23.174   0.540  52.620  1.00  0.00     0.121 A 
HETATM   10  C15 UNL     1      21.829   0.699  52.349  1.00  0.00     0.136 A 
HETATM   11  O3  UNL     1      21.441   1.410  51.233  1.00  0.00    -0.344 OA
HETATM   12  C16 UNL     1      22.403   1.741  50.247  1.00  0.00     0.202 C 
HETATM   13  C17 UNL     1      23.676   2.157  50.948  1.00  0.00     0.202 C 
HETATM   14  O4  UNL     1      24.130   1.091  51.779  1.00  0.00    -0.345 OA
ENDROOT
BRANCH   7  15
HETATM   15  N3  UNL     1      25.884   0.139  53.294  1.00  0.00    -0.350 N 
HETATM   16  H10 UNL     1      26.352   0.875  52.737  1.00  0.00     0.166 HD
BRANCH  15  17
HETATM   17  C9  UNL     1      27.039  -0.662  53.007  1.00  0.00     0.093 C 
HETATM   18  C10 UNL     1      28.253  -0.408  53.529  1.00  0.00    -0.055 C 
HETATM   19  C11 UNL     1      29.574  -1.072  53.390  1.00  0.00     0.046 C 
BRANCH  18  20
HETATM   20  C12 UNL     1      28.340   0.772  54.439  1.00  0.00     0.149 C 
HETATM   21 CL1  UNL     1      28.670   2.255  53.526  1.00  0.00    -0.126 Cl
ENDBRANCH  18  20
ENDBRANCH  15  17
ENDBRANCH   7  15
BRANCH   1  22
HETATM   22  O2  UNL     1      19.536   0.321  52.893  1.00  0.00    -0.346 OA
BRANCH  22  23
HETATM   23  C3  UNL     1      18.789  -0.747  52.344  1.00  0.00     0.201 C 
BRANCH  23  24
HETATM   24  C2  UNL     1      17.787  -1.310  53.312  1.00  0.00     0.193 C 
BRANCH  24  25
HETATM   25  O1  UNL     1      18.136  -2.509  53.880  1.00  0.00    -0.394 OA
HETATM   26  C1  UNL     1      17.191  -3.464  53.546  1.00  0.00     0.201 C 
ENDBRANCH  24  25
ENDBRANCH  23  24
ENDBRANCH  22  23
ENDBRANCH   1  22
TORSDOF 7
ENDMDL
MODEL 2
REMARK VINA RESULT:      -7.3      2.311      4.069
REMARK  7 active torsions:
REMARK  status: ('A' for Active; 'I' for Inactive)
REMARK    1  A    between atoms: O1_2  and  C2_3 
REMARK    2  A    between atoms: C2_3  and  C3_4 
REMARK    3  A    between atoms: C3_4  and  O2_5 
REMARK    4  A    between atoms: O2_5  and  C4_6 
REMARK    5  A    between atoms: C8_12  and  N3_13 
REMARK    6  A    between atoms: N3_13  and  C9_14 
REMARK    7  A    between atoms: C10_15  and  C12_17 
ROOT
HETATM    1  C4  UNL     1      21.840   2.023  51.857  1.00  0.00     0.107 A 
HETATM    2  C5  UNL     1      22.803   2.673  51.077  1.00  0.00     0.072 A 
HETATM    3  C6  UNL     1      24.132   2.330  51.275  1.00  0.00     0.077 A 
HETATM    4  N1  UNL     1      25.095   2.916  50.559  1.00  0.00    -0.241 NA
HETATM    5  C7  UNL     1      26.396   2.622  50.710  1.00  0.00     0.236 A 
HETATM    6  N2  UNL     1      26.732   1.681  51.640  1.00  0.00    -0.223 NA
HETATM    7  C8  UNL     1      25.756   1.095  52.357  1.00  0.00     0.144 A 
HETATM    8  C13 UNL     1      24.418   1.374  52.226  1.00  0.00     0.075 A 
HETATM    9  C14 UNL     1      23.491   0.724  53.002  1.00  0.00     0.121 A 
HETATM   10  C15 UNL     1      22.164   1.057  52.813  1.00  0.00     0.136 A 
HETATM   11  O3  UNL     1      21.193   0.434  53.569  1.00  0.00    -0.344 OA
HETATM   12  C16 UNL     1      21.574  -0.334  54.696  1.00  0.00     0.202 C 
HETATM   13  C17 UNL     1      22.811  -1.125  54.335  1.00  0.00     0.202 C 
HETATM   14  O4  UNL     1      23.848  -0.230  53.943  1.00  0.00    -0.345 OA
ENDROOT
BRANCH   7  15
HETATM   15  N3  UNL     1      26.237   0.141  53.283  1.00  0.00    -0.350 N 
HETATM   16  H10 UNL     1      26.212  -0.375  54.180  1.00  0.00     0.166 HD
BRANCH  15  17
HETATM   17  C9  UNL     1      27.397  -0.649  52.986  1.00  0.00     0.093 C 
HETATM   18  C10 UNL     1      28.553  -0.536  53.666  1.00  0.00    -0.055 C 
HETATM   19  C11 UNL     1      29.865  -1.223  53.554  1.00  0.00     0.046 C 
BRANCH  18  20
HETATM   20  C12 UNL     1      28.568   0.471  54.766  1.00  0.00     0.149 C 
HETATM   21 CL1  UNL     1      29.113   2.051  54.174  1.00  0.00    -0.126 Cl
ENDBRANCH  18  20
ENDBRANCH  15  17
ENDBRANCH   7  15
BRANCH   1  22
HETATM   22  O2  UNL     1      20.473   2.326  51.705  1.00  0.00    -0.346 OA
BRANCH  22  23
HETATM   23  C3  UNL     1      20.035   3.666  51.818  1.00  0.00     0.201 C 
BRANCH  23  24
HETATM   24  C2  UNL     1      18.677   3.885  51.215  1.00  0.00     0.193 C 
BRANCH  24  25
HETATM   25  O1  UNL     1      17.634   3.865  52.107  1.00  0.00    -0.394 OA
HETATM   26  C1  UNL     1      16.442   3.995  51.416  1.00  0.00     0.201 C 
ENDBRANCH  24  25
ENDBRANCH  23  24
ENDBRANCH  22  23
ENDBRANCH   1  22
TORSDOF 7
ENDMDL
MODEL 3
REMARK VINA RESULT:      -7.2      3.375      6.964
REMARK  7 active torsions:
REMARK  status: ('A' for Active; 'I' for Inactive)
REMARK    1  A    between atoms: O1_2  and  C2_3 
REMARK    2  A    between atoms: C2_3  and  C3_4 
REMARK    3  A    between atoms: C3_4  and  O2_5 
REMARK    4  A    between atoms: O2_5  and  C4_6 
REMARK    5  A    between atoms: C8_12  and  N3_13 
REMARK    6  A    between atoms: N3_13  and  C9_14 
REMARK    7  A    between atoms: C10_15  and  C12_17 
ROOT
HETATM    1  C4  UNL     1      26.150  -0.049  52.621  1.00  0.00     0.107 A 
HETATM    2  C5  UNL     1      25.264  -0.764  53.435  1.00  0.00     0.072 A 
HETATM    3  C6  UNL     1      23.965  -0.292  53.544  1.00  0.00     0.077 A 
HETATM    4  N1  UNL     1      23.075  -0.933  54.306  1.00  0.00    -0.241 NA
HETATM    5  C7  UNL     1      21.806  -0.520  54.446  1.00  0.00     0.236 A 
HETATM    6  N2  UNL     1      21.424   0.606  53.775  1.00  0.00    -0.223 NA
HETATM    7  C8  UNL     1      22.327   1.246  53.009  1.00  0.00     0.144 A 
HETATM    8  C13 UNL     1      23.631   0.848  52.846  1.00  0.00     0.075 A 
HETATM    9  C14 UNL     1      24.482   1.566  52.043  1.00  0.00     0.121 A 
HETATM   10  C15 UNL     1      25.779   1.104  51.926  1.00  0.00     0.136 A 
HETATM   11  O3  UNL     1      26.675   1.789  51.132  1.00  0.00    -0.344 OA
HETATM   12  C16 UNL     1      26.342   3.082  50.661  1.00  0.00     0.202 C 
HETATM   13  C17 UNL     1      24.886   3.077  50.250  1.00  0.00     0.202 C 
HETATM   14  O4  UNL     1      24.080   2.708  51.367  1.00  0.00    -0.345 OA
ENDROOT
BRANCH   7  15
HETATM   15  N3  UNL     1      21.806   2.394  52.369  1.00  0.00    -0.350 N 
HETATM   16  H10 UNL     1      21.882   3.340  51.957  1.00  0.00     0.166 HD
BRANCH  15  17
HETATM   17  C9  UNL     1      20.416   2.471  52.019  1.00  0.00     0.093 C 
HETATM   18  C10 UNL     1      19.985   2.526  50.746  1.00  0.00    -0.055 C 
HETATM   19  C11 UNL     1      18.633   2.608  50.138  1.00  0.00     0.046 C 
BRANCH  18  20
HETATM   20  C12 UNL     1      21.044   2.504  49.695  1.00  0.00     0.149 C 
HETATM   21 CL1  UNL     1      21.454   0.841  49.241  1.00  0.00    -0.126 Cl
ENDBRANCH  18  20
ENDBRANCH  15  17
ENDBRANCH   7  15
BRANCH   1  22
HETATM   22  O2  UNL     1      27.484  -0.476  52.469  1.00  0.00    -0.346 OA
BRANCH  22  23
HETATM   23  C3  UNL     1      28.280  -0.710  53.614  1.00  0.00     0.201 C 
BRANCH  23  24
HETATM   24  C2  UNL     1      29.331   0.344  53.815  1.00  0.00     0.193 C 
BRANCH  24  25
HETATM   25  O1  UNL     1      28.939   1.421  54.568  1.00  0.00    -0.394 OA
HETATM   26  C1  UNL     1      28.768   2.518  53.740  1.00  0.00     0.201 C 
ENDBRANCH  24  25
ENDBRANCH  23  24
ENDBRANCH  22  23
ENDBRANCH   1  22
TORSDOF 7
ENDMDL
MODEL 4
REMARK VINA RESULT:      -7.2      3.028      7.042
REMARK  7 active torsions:
REMARK  status: ('A' for Active; 'I' for Inactive)
REMARK    1  A    between atoms: O1_2  and  C2_3 
REMARK    2  A    between atoms: C2_3  and  C3_4 
REMARK    3  A    between atoms: C3_4  and  O2_5 
REMARK    4  A    between atoms: O2_5  and  C4_6 
REMARK    5  A    between atoms: C8_12  and  N3_13 
REMARK    6  A    between atoms: N3_13  and  C9_14 
REMARK    7  A    between atoms: C10_15  and  C12_17 
ROOT
HETATM    1  C4  UNL     1      25.769   0.783  52.708  1.00  0.00     0.107 A 
HETATM    2  C5  UNL     1      25.612  -0.083  53.797  1.00  0.00     0.072 A 
HETATM    3  C6  UNL     1      24.322  -0.442  54.154  1.00  0.00     0.077 A 
HETATM    4  N1  UNL     1      24.111  -1.267  55.183  1.00  0.00    -0.241 NA
HETATM    5  C7  UNL     1      22.884  -1.647  55.572  1.00  0.00     0.236 A 
HETATM    6  N2  UNL     1      21.816  -1.162  54.874  1.00  0.00    -0.223 NA
HETATM    7  C8  UNL     1      22.037  -0.332  53.838  1.00  0.00     0.144 A 
HETATM    8  C13 UNL     1      23.279   0.075  53.417  1.00  0.00     0.075 A 
HETATM    9  C14 UNL     1      23.408   0.926  52.347  1.00  0.00     0.121 A 
HETATM   10  C15 UNL     1      24.689   1.291  51.982  1.00  0.00     0.136 A 
HETATM   11  O3  UNL     1      24.874   2.144  50.914  1.00  0.00    -0.344 OA
HETATM   12  C16 UNL     1      23.763   2.837  50.376  1.00  0.00     0.202 C 
HETATM   13  C17 UNL     1      22.587   1.887  50.332  1.00  0.00     0.202 C 
HETATM   14  O4  UNL     1      22.314   1.411  51.647  1.00  0.00    -0.345 OA
ENDROOT
BRANCH   7  15
HETATM   15  N3  UNL     1      20.850   0.098  53.200  1.00  0.00    -0.350 N 
HETATM   16  H10 UNL     1      20.307   0.714  52.570  1.00  0.00     0.166 HD
BRANCH  15  17
HETATM   17  C9  UNL     1      19.605  -0.574  53.440  1.00  0.00     0.093 C 
HETATM   18  C10 UNL     1      18.583  -0.555  52.565  1.00  0.00    -0.055 C 
HETATM   19  C11 UNL     1      17.225  -1.156  52.580  1.00  0.00     0.046 C 
BRANCH  18  20
HETATM   20  C12 UNL     1      18.813   0.216  51.308  1.00  0.00     0.149 C 
HETATM   21 CL1  UNL     1      17.488  -0.035  50.158  1.00  0.00    -0.126 Cl
ENDBRANCH  18  20
ENDBRANCH  15  17
ENDBRANCH   7  15
BRANCH   1  22
HETATM   22  O2  UNL     1      27.054   1.188  52.295  1.00  0.00    -0.346 OA
BRANCH  22  23
HETATM   23  C3  UNL     1      27.802   2.076  53.102  1.00  0.00     0.201 C 
BRANCH  23  24
HETATM   24  C2  UNL     1      29.083   1.467  53.598  1.00  0.00     0.193 C 
BRANCH  24  25
HETATM   25  O1  UNL     1      28.931   0.376  54.414  1.00  0.00    -0.394 OA
HETATM   26  C1  UNL     1      29.563  -0.714  53.839  1.00  0.00     0.201 C 
ENDBRANCH  24  25
ENDBRANCH  23  24
ENDBRANCH  22  23
ENDBRANCH   1  22
TORSDOF 7
ENDMDL
MODEL 5
REMARK VINA RESULT:      -7.1      3.892      7.493
REMARK  7 active torsions:
REMARK  status: ('A' for Active; 'I' for Inactive)
REMARK    1  A    between atoms: O1_2  and  C2_3 
REMARK    2  A    between atoms: C2_3  and  C3_4 
REMARK    3  A    between atoms: C3_4  and  O2_5 
REMARK    4  A    between atoms: O2_5  and  C4_6 
REMARK    5  A    between atoms: C8_12  and  N3_13 
REMARK    6  A    between atoms: N3_13  and  C9_14 
REMARK    7  A    between atoms: C10_15  and  C12_17 
ROOT
HETATM    1  C4  UNL     1      25.785   0.762  52.720  1.00  0.00     0.107 A 
HETATM    2  C5  UNL     1      26.710   1.524  51.998  1.00  0.00     0.072 A 
HETATM    3  C6  UNL     1      26.215   2.453  51.096  1.00  0.00     0.077 A 
HETATM    4  N1  UNL     1      27.050   3.210  50.379  1.00  0.00    -0.241 NA
HETATM    5  C7  UNL     1      26.625   4.124  49.493  1.00  0.00     0.236 A 
HETATM    6  N2  UNL     1      25.279   4.274  49.328  1.00  0.00    -0.223 NA
HETATM    7  C8  UNL     1      24.444   3.508  50.055  1.00  0.00     0.144 A 
HETATM    8  C13 UNL     1      24.847   2.566  50.968  1.00  0.00     0.075 A 
HETATM    9  C14 UNL     1      23.922   1.829  51.665  1.00  0.00     0.121 A 
HETATM   10  C15 UNL     1      24.404   0.901  52.567  1.00  0.00     0.136 A 
HETATM   11  O3  UNL     1      23.515   0.134  53.292  1.00  0.00    -0.344 OA
HETATM   12  C16 UNL     1      22.148   0.116  52.924  1.00  0.00     0.202 C 
HETATM   13  C17 UNL     1      21.737   1.524  52.556  1.00  0.00     0.202 C 
HETATM   14  O4  UNL     1      22.556   1.993  51.488  1.00  0.00    -0.345 OA
ENDROOT
BRANCH   7  15
HETATM   15  N3  UNL     1      23.078   3.761  49.791  1.00  0.00    -0.350 N 
HETATM   16  H10 UNL     1      22.077   3.805  50.050  1.00  0.00     0.166 HD
BRANCH  15  17
HETATM   17  C9  UNL     1      22.654   4.221  48.500  1.00  0.00     0.093 C 
HETATM   18  C10 UNL     1      22.244   3.389  47.526  1.00  0.00    -0.055 C 
HETATM   19  C11 UNL     1      21.768   3.612  46.137  1.00  0.00     0.046 C 
BRANCH  18  20
HETATM   20  C12 UNL     1      22.254   1.935  47.861  1.00  0.00     0.149 C 
HETATM   21 CL1  UNL     1      20.761   1.465  48.693  1.00  0.00    -0.126 Cl
ENDBRANCH  18  20
ENDBRANCH  15  17
ENDBRANCH   7  15
BRANCH   1  22
HETATM   22  O2  UNL     1      26.223  -0.200  53.652  1.00  0.00    -0.346 OA
BRANCH  22  23
HETATM   23  C3  UNL     1      26.827   0.219  54.860  1.00  0.00     0.201 C 
BRANCH  23  24
HETATM   24  C2  UNL     1      28.319   0.050  54.851  1.00  0.00     0.193 C 
BRANCH  24  25
HETATM   25  O1  UNL     1      28.779  -1.023  54.131  1.00  0.00    -0.394 OA
HETATM   26  C1  UNL     1      29.977  -0.685  53.525  1.00  0.00     0.201 C 
ENDBRANCH  24  25
ENDBRANCH  23  24
ENDBRANCH  22  23
ENDBRANCH   1  22
TORSDOF 7
ENDMDL
MODEL 6
REMARK VINA RESULT:      -7.0      3.525      7.678
REMARK  7 active torsions:
REMARK  status: ('A' for Active; 'I' for Inactive)
REMARK    1  A    between atoms: O1_2  and  C2_3 
REMARK    2  A    between atoms: C2_3  and  C3_4 
REMARK    3  A    between atoms: C3_4  and  O2_5 
REMARK    4  A    between atoms: O2_5  and  C4_6 
REMARK    5  A    between atoms: C8_12  and  N3_13 
REMARK    6  A    between atoms: N3_13  and  C9_14 
REMARK    7  A    between atoms: C10_15  and  C12_17 
ROOT
HETATM    1  C4  UNL     1      25.357   0.057  53.395  1.00  0.00     0.107 A 
HETATM    2  C5  UNL     1      25.580   0.935  52.328  1.00  0.00     0.072 A 
HETATM    3  C6  UNL     1      24.472   1.489  51.707  1.00  0.00     0.077 A 
HETATM    4  N1  UNL     1      24.623   2.334  50.684  1.00  0.00    -0.241 NA
HETATM    5  C7  UNL     1      23.585   2.899  50.047  1.00  0.00     0.236 A 
HETATM    6  N2  UNL     1      22.328   2.586  50.475  1.00  0.00    -0.223 NA
HETATM    7  C8  UNL     1      22.183   1.734  51.507  1.00  0.00     0.144 A 
HETATM    8  C13 UNL     1      23.224   1.141  52.178  1.00  0.00     0.075 A 
HETATM    9  C14 UNL     1      22.982   0.282  53.221  1.00  0.00     0.121 A 
HETATM   10  C15 UNL     1      24.079  -0.276  53.848  1.00  0.00     0.136 A 
HETATM   11  O3  UNL     1      23.889  -1.145  54.902  1.00  0.00    -0.344 OA
HETATM   12  C16 UNL     1      22.594  -1.658  55.158  1.00  0.00     0.202 C 
HETATM   13  C17 UNL     1      21.596  -0.538  54.972  1.00  0.00     0.202 C 
HETATM   14  O4  UNL     1      21.698  -0.027  53.646  1.00  0.00    -0.345 OA
ENDROOT
BRANCH   7  15
HETATM   15  N3  UNL     1      20.834   1.493  51.852  1.00  0.00    -0.350 N 
HETATM   16  H10 UNL     1      20.062   1.342  52.524  1.00  0.00     0.166 HD
BRANCH  15  17
HETATM   17  C9  UNL     1      19.832   1.351  50.834  1.00  0.00     0.093 C 
HETATM   18  C10 UNL     1      18.766   0.540  50.966  1.00  0.00    -0.055 C 
HETATM   19  C11 UNL     1      17.618   0.224  50.079  1.00  0.00     0.046 C 
BRANCH  18  20
HETATM   20  C12 UNL     1      18.676  -0.219  52.248  1.00  0.00     0.149 C 
HETATM   21 CL1  UNL     1      17.158  -1.129  52.342  1.00  0.00    -0.126 Cl
ENDBRANCH  18  20
ENDBRANCH  15  17
ENDBRANCH   7  15
BRANCH   1  22
HETATM   22  O2  UNL     1      26.441  -0.540  54.068  1.00  0.00    -0.346 OA
BRANCH  22  23
HETATM   23  C3  UNL     1      27.308   0.260  54.849  1.00  0.00     0.201 C 
BRANCH  23  24
HETATM   24  C2  UNL     1      28.739   0.166  54.405  1.00  0.00     0.193 C 
BRANCH  24  25
HETATM   25  O1  UNL     1      29.088   1.007  53.379  1.00  0.00    -0.394 OA
HETATM   26  C1  UNL     1      28.695   2.297  53.695  1.00  0.00     0.201 C 
ENDBRANCH  24  25
ENDBRANCH  23  24
ENDBRANCH  22  23
ENDBRANCH   1  22
TORSDOF 7
ENDMDL
MODEL 7
REMARK VINA RESULT:      -7.0      2.549      3.174
REMARK  7 active torsions:
REMARK  status: ('A' for Active; 'I' for Inactive)
REMARK    1  A    between atoms: O1_2  and  C2_3 
REMARK    2  A    between atoms: C2_3  and  C3_4 
REMARK    3  A    between atoms: C3_4  and  O2_5 
REMARK    4  A    between atoms: O2_5  and  C4_6 
REMARK    5  A    between atoms: C8_12  and  N3_13 
REMARK    6  A    between atoms: N3_13  and  C9_14 
REMARK    7  A    between atoms: C10_15  and  C12_17 
ROOT
HETATM    1  C4  UNL     1      20.310   2.635  52.470  1.00  0.00     0.107 A 
HETATM    2  C5  UNL     1      20.080   1.475  53.218  1.00  0.00     0.072 A 
HETATM    3  C6  UNL     1      21.173   0.682  53.530  1.00  0.00     0.077 A 
HETATM    4  N1  UNL     1      21.015  -0.437  54.242  1.00  0.00    -0.241 NA
HETATM    5  C7  UNL     1      22.039  -1.240  54.573  1.00  0.00     0.236 A 
HETATM    6  N2  UNL     1      23.288  -0.884  54.155  1.00  0.00    -0.223 NA
HETATM    7  C8  UNL     1      23.440   0.245  53.439  1.00  0.00     0.144 A 
HETATM    8  C13 UNL     1      22.414   1.086  53.085  1.00  0.00     0.075 A 
HETATM    9  C14 UNL     1      22.663   2.219  52.351  1.00  0.00     0.121 A 
HETATM   10  C15 UNL     1      21.581   3.017  52.034  1.00  0.00     0.136 A 
HETATM   11  O3  UNL     1      21.778   4.166  51.297  1.00  0.00    -0.344 OA
HETATM   12  C16 UNL     1      23.022   4.378  50.656  1.00  0.00     0.202 C 
HETATM   13  C17 UNL     1      24.121   3.941  51.597  1.00  0.00     0.202 C 
HETATM   14  O4  UNL     1      23.939   2.568  51.934  1.00  0.00    -0.345 OA
ENDROOT
BRANCH   7  15
HETATM   15  N3  UNL     1      24.780   0.499  53.070  1.00  0.00    -0.350 N 
HETATM   16  H10 UNL     1      25.514   0.939  52.487  1.00  0.00     0.166 HD
BRANCH  15  17
HETATM   17  C9  UNL     1      25.866  -0.099  53.793  1.00  0.00     0.093 C 
HETATM   18  C10 UNL     1      27.003   0.559  54.083  1.00  0.00    -0.055 C 
HETATM   19  C11 UNL     1      28.243   0.171  54.802  1.00  0.00     0.046 C 
BRANCH  18  20
HETATM   20  C12 UNL     1      27.081   1.971  53.605  1.00  0.00     0.149 C 
HETATM   21 CL1  UNL     1      28.750   2.566  53.652  1.00  0.00    -0.126 Cl
ENDBRANCH  18  20
ENDBRANCH  15  17
ENDBRANCH   7  15
BRANCH   1  22
HETATM   22  O2  UNL     1      19.242   3.484  52.118  1.00  0.00    -0.346 OA
BRANCH  22  23
HETATM   23  C3  UNL     1      18.340   3.090  51.102  1.00  0.00     0.201 C 
BRANCH  23  24
HETATM   24  C2  UNL     1      16.903   3.248  51.510  1.00  0.00     0.193 C 
BRANCH  24  25
HETATM   25  O1  UNL     1      16.675   4.177  52.493  1.00  0.00    -0.394 OA
HETATM   26  C1  UNL     1      15.356   4.088  52.907  1.00  0.00     0.201 C 
ENDBRANCH  24  25
ENDBRANCH  23  24
ENDBRANCH  22  23
ENDBRANCH   1  22
TORSDOF 7
ENDMDL
MODEL 8
REMARK VINA RESULT:      -6.8      3.575      7.160
REMARK  7 active torsions:
REMARK  status: ('A' for Active; 'I' for Inactive)
REMARK    1  A    between atoms: O1_2  and  C2_3 
REMARK    2  A    between atoms: C2_3  and  C3_4 
REMARK    3  A    between atoms: C3_4  and  O2_5 
REMARK    4  A    between atoms: O2_5  and  C4_6 
REMARK    5  A    between atoms: C8_12  and  N3_13 
REMARK    6  A    between atoms: N3_13  and  C9_14 
REMARK    7  A    between atoms: C10_15  and  C12_17 
ROOT
HETATM    1  C4  UNL     1      26.313   0.939  53.267  1.00  0.00     0.107 A 
HETATM    2  C5  UNL     1      27.002   1.837  52.445  1.00  0.00     0.072 A 
HETATM    3  C6  UNL     1      26.291   2.455  51.427  1.00  0.00     0.077 A 
HETATM    4  N1  UNL     1      26.895   3.322  50.611  1.00  0.00    -0.241 NA
HETATM    5  C7  UNL     1      26.254   3.948  49.611  1.00  0.00     0.236 A 
HETATM    6  N2  UNL     1      24.929   3.675  49.433  1.00  0.00    -0.223 NA
HETATM    7  C8  UNL     1      24.328   2.800  50.260  1.00  0.00     0.144 A 
HETATM    8  C13 UNL     1      24.955   2.145  51.291  1.00  0.00     0.075 A 
HETATM    9  C14 UNL     1      24.259   1.267  52.085  1.00  0.00     0.121 A 
HETATM   10  C15 UNL     1      24.957   0.646  53.102  1.00  0.00     0.136 A 
HETATM   11  O3  UNL     1      24.305  -0.246  53.928  1.00  0.00    -0.344 OA
HETATM   12  C16 UNL     1      23.016  -0.711  53.571  1.00  0.00     0.202 C 
HETATM   13  C17 UNL     1      22.227   0.454  53.018  1.00  0.00     0.202 C 
HETATM   14  O4  UNL     1      22.912   0.999  51.893  1.00  0.00    -0.345 OA
ENDROOT
BRANCH   7  15
HETATM   15  N3  UNL     1      22.958   2.605  49.971  1.00  0.00    -0.350 N 
HETATM   16  H10 UNL     1      22.094   2.038  49.913  1.00  0.00     0.166 HD
BRANCH  15  17
HETATM   17  C9  UNL     1      22.155   3.684  49.469  1.00  0.00     0.093 C 
HETATM   18  C10 UNL     1      21.315   4.393  50.244  1.00  0.00    -0.055 C 
HETATM   19  C11 UNL     1      20.397   5.528  49.970  1.00  0.00     0.046 C 
BRANCH  18  20
HETATM   20  C12 UNL     1      21.257   3.994  51.681  1.00  0.00     0.149 C 
HETATM   21 CL1  UNL     1      22.513   4.820  52.620  1.00  0.00    -0.126 Cl
ENDBRANCH  18  20
ENDBRANCH  15  17
ENDBRANCH   7  15
BRANCH   1  22
HETATM   22  O2  UNL     1      26.978   0.277  54.319  1.00  0.00    -0.346 OA
BRANCH  22  23
HETATM   23  C3  UNL     1      28.361   0.002  54.210  1.00  0.00     0.201 C 
BRANCH  23  24
HETATM   24  C2  UNL     1      28.660  -1.078  53.210  1.00  0.00     0.193 C 
BRANCH  24  25
HETATM   25  O1  UNL     1      27.967  -2.247  53.391  1.00  0.00    -0.394 OA
HETATM   26  C1  UNL     1      27.044  -2.392  52.370  1.00  0.00     0.201 C 
ENDBRANCH  24  25
ENDBRANCH  23  24
ENDBRANCH  22  23
ENDBRANCH   1  22
TORSDOF 7
ENDMDL
MODEL 9
REMARK VINA RESULT:      -6.5      3.741      6.951
REMARK  7 active torsions:
REMARK  status: ('A' for Active; 'I' for Inactive)
REMARK    1  A    between atoms: O1_2  and  C2_3 
REMARK    2  A    between atoms: C2_3  and  C3_4 
REMARK    3  A    between atoms: C3_4  and  O2_5 
REMARK    4  A    between atoms: O2_5  and  C4_6 
REMARK    5  A    between atoms: C8_12  and  N3_13 
REMARK    6  A    between atoms: N3_13  and  C9_14 
REMARK    7  A    between atoms: C10_15  and  C12_17 
ROOT
HETATM    1  C4  UNL     1      24.358   0.346  52.766  1.00  0.00     0.107 A 
HETATM    2  C5  UNL     1      23.013   0.241  53.137  1.00  0.00     0.072 A 
HETATM    3  C6  UNL     1      22.148   1.239  52.716  1.00  0.00     0.077 A 
HETATM    4  N1  UNL     1      20.853   1.191  53.040  1.00  0.00    -0.241 NA
HETATM    5  C7  UNL     1      19.973   2.130  52.658  1.00  0.00     0.236 A 
HETATM    6  N2  UNL     1      20.436   3.172  51.908  1.00  0.00    -0.223 NA
HETATM    7  C8  UNL     1      21.742   3.213  51.586  1.00  0.00     0.144 A 
HETATM    8  C13 UNL     1      22.667   2.268  51.960  1.00  0.00     0.075 A 
HETATM    9  C14 UNL     1      23.981   2.393  51.584  1.00  0.00     0.121 A 
HETATM   10  C15 UNL     1      24.853   1.404  51.998  1.00  0.00     0.136 A 
HETATM   11  O3  UNL     1      26.184   1.482  51.648  1.00  0.00    -0.344 OA
HETATM   12  C16 UNL     1      26.692   2.686  51.103  1.00  0.00     0.202 C 
HETATM   13  C17 UNL     1      25.669   3.238  50.136  1.00  0.00     0.202 C 
HETATM   14  O4  UNL     1      24.438   3.457  50.821  1.00  0.00    -0.345 OA
ENDROOT
BRANCH   7  15
HETATM   15  N3  UNL     1      22.094   4.339  50.808  1.00  0.00    -0.350 N 
HETATM   16  H10 UNL     1      22.711   4.867  50.166  1.00  0.00     0.166 HD
BRANCH  15  17
HETATM   17  C9  UNL     1      21.237   5.490  50.756  1.00  0.00     0.093 C 
HETATM   18  C10 UNL     1      21.654   6.693  50.322  1.00  0.00    -0.055 C 
HETATM   19  C11 UNL     1      20.977   8.007  50.176  1.00  0.00     0.046 C 
BRANCH  18  20
HETATM   20  C12 UNL     1      23.080   6.774  49.889  1.00  0.00     0.149 C 
HETATM   21 CL1  UNL     1      23.908   8.127  50.679  1.00  0.00    -0.126 Cl
ENDBRANCH  18  20
ENDBRANCH  15  17
ENDBRANCH   7  15
BRANCH   1  22
HETATM   22  O2  UNL     1      25.289  -0.634  53.162  1.00  0.00    -0.346 OA
BRANCH  22  23
HETATM   23  C3  UNL     1      25.630  -0.765  54.528  1.00  0.00     0.201 C 
BRANCH  23  24
HETATM   24  C2  UNL     1      26.692   0.208  54.956  1.00  0.00     0.193 C 
BRANCH  24  25
HETATM   25  O1  UNL     1      27.952  -0.320  55.076  1.00  0.00    -0.394 OA
HETATM   26  C1  UNL     1      28.849   0.482  54.390  1.00  0.00     0.201 C 
ENDBRANCH  24  25
ENDBRANCH  23  24
ENDBRANCH  22  23
ENDBRANCH   1  22
TORSDOF 7
ENDMDL
