MODEL 1
REMARK VINA RESULT:      -9.3      0.000      0.000
REMARK  4 active torsions:
REMARK  status: ('A' for Active; 'I' for Inactive)
REMARK    1  A    between atoms: C7_7  and  N1_8 
REMARK    2  A    between atoms: N1_8  and  C8_9 
REMARK    3  A    between atoms: C10_12  and  N3_13 
REMARK    4  A    between atoms: C19_23  and  N5_24 
ROOT
HETATM    1  C1  UNL     1      28.805   2.461  53.809  1.00  0.00     0.018 C 
HETATM    2  C2  UNL     1      27.720   1.933  53.743  1.00  0.00    -0.078 C 
HETATM    3  C3  UNL     1      26.421   1.321  53.670  1.00  0.00     0.019 A 
HETATM    4  C4  UNL     1      26.172   0.022  54.029  1.00  0.00     0.021 A 
HETATM    5  C5  UNL     1      24.884  -0.479  53.924  1.00  0.00     0.004 A 
HETATM    6  C6  UNL     1      23.803   0.276  53.464  1.00  0.00     0.029 A 
HETATM    7  C7  UNL     1      24.111   1.560  53.122  1.00  0.00     0.033 A 
HETATM    8  C20 UNL     1      25.376   2.094  53.212  1.00  0.00     0.050 A 
ENDROOT
BRANCH   7   9
HETATM    9  N1  UNL     1      23.088   2.419  52.643  1.00  0.00    -0.357 N 
HETATM   10  H5  UNL     1      22.120   2.448  53.024  1.00  0.00     0.166 HD
BRANCH   9  11
HETATM   11  C8  UNL     1      23.315   3.346  51.558  1.00  0.00     0.061 C 
HETATM   12  C9  UNL     1      22.934   4.622  51.723  1.00  0.00     0.163 C 
HETATM   13  N2  UNL     1      23.088   5.632  50.761  1.00  0.00    -0.074 NA
HETATM   14  C10 UNL     1      23.778   6.679  51.051  1.00  0.00     0.719 C 
HETATM   15  N4  UNL     1      23.575   7.269  49.773  1.00  0.00    -0.075 NA
HETATM   16  C11 UNL     1      24.271   6.931  48.740  1.00  0.00     0.145 C 
HETATM   17  C12 UNL     1      25.158   5.925  49.278  1.00  0.00    -0.021 C 
HETATM   18  C13 UNL     1      26.228   6.700  49.362  1.00  0.00    -0.017 C 
HETATM   19  C17 UNL     1      25.466   4.555  49.753  1.00  0.00     0.046 C 
HETATM   20  C14 UNL     1      27.221   6.375  48.581  1.00  0.00     0.012 C 
HETATM   21  C15 UNL     1      27.619   4.973  48.532  1.00  0.00    -0.002 C 
HETATM   22  C16 UNL     1      26.757   4.130  49.100  1.00  0.00    -0.017 C 
HETATM   23  C18 UNL     1      24.410   3.599  49.318  1.00  0.00     0.055 C 
HETATM   24  C19 UNL     1      23.944   2.684  50.418  1.00  0.00     0.269 C 
BRANCH  14  25
HETATM   25  N3  UNL     1      24.413   6.916  52.275  1.00  0.00    -0.231 N 
HETATM   26  H7  UNL     1      24.517   7.933  52.524  1.00  0.00     0.174 HD
HETATM   27  H8  UNL     1      24.767   6.167  52.915  1.00  0.00     0.174 HD
ENDBRANCH  14  25
BRANCH  24  28
HETATM   28  N5  UNL     1      22.940   1.787  49.843  1.00  0.00     0.088 N 
HETATM   29  H17 UNL     1      22.472   2.163  49.013  1.00  0.00     0.313 HD
HETATM   30  H18 UNL     1      22.213   1.505  50.531  1.00  0.00     0.313 HD
ENDBRANCH  24  28
ENDBRANCH   9  11
ENDBRANCH   7   9
TORSDOF 4
ENDMDL
MODEL 2
REMARK VINA RESULT:      -8.6      1.270      2.504
REMARK  4 active torsions:
REMARK  status: ('A' for Active; 'I' for Inactive)
REMARK    1  A    between atoms: C7_7  and  N1_8 
REMARK    2  A    between atoms: N1_8  and  C8_9 
REMARK    3  A    between atoms: C10_12  and  N3_13 
REMARK    4  A    between atoms: C19_23  and  N5_24 
ROOT
HETATM    1  C1  UNL     1      21.644  -2.026  54.022  1.00  0.00     0.018 C 
HETATM    2  C2  UNL     1      22.341  -1.066  53.787  1.00  0.00    -0.078 C 
HETATM    3  C3  UNL     1      23.159   0.079  53.492  1.00  0.00     0.019 A 
HETATM    4  C4  UNL     1      24.514   0.117  53.693  1.00  0.00     0.021 A 
HETATM    5  C5  UNL     1      25.218   1.268  53.377  1.00  0.00     0.004 A 
HETATM    6  C6  UNL     1      24.617   2.416  52.856  1.00  0.00     0.029 A 
HETATM    7  C7  UNL     1      23.267   2.320  52.678  1.00  0.00     0.033 A 
HETATM    8  C20 UNL     1      22.533   1.195  52.979  1.00  0.00     0.050 A 
ENDROOT
BRANCH   7   9
HETATM    9  N1  UNL     1      22.552   3.427  52.154  1.00  0.00    -0.357 N 
HETATM   10  H5  UNL     1      21.647   3.773  52.533  1.00  0.00     0.166 HD
BRANCH   9  11
HETATM   11  C8  UNL     1      23.035   4.182  51.021  1.00  0.00     0.061 C 
HETATM   12  C9  UNL     1      22.772   5.497  50.974  1.00  0.00     0.163 C 
HETATM   13  N2  UNL     1      23.173   6.356  49.940  1.00  0.00    -0.074 NA
HETATM   14  C10 UNL     1      23.921   7.368  50.216  1.00  0.00     0.719 C 
HETATM   15  N4  UNL     1      23.974   7.803  48.863  1.00  0.00    -0.075 NA
HETATM   16  C11 UNL     1      24.777   7.274  48.002  1.00  0.00     0.145 C 
HETATM   17  C12 UNL     1      25.461   6.272  48.787  1.00  0.00    -0.021 C 
HETATM   18  C13 UNL     1      26.583   6.955  48.952  1.00  0.00    -0.017 C 
HETATM   19  C17 UNL     1      25.548   4.954  49.459  1.00  0.00     0.046 C 
HETATM   20  C14 UNL     1      27.641   6.447  48.384  1.00  0.00     0.012 C 
HETATM   21  C15 UNL     1      27.891   5.020  48.560  1.00  0.00    -0.002 C 
HETATM   22  C16 UNL     1      26.869   4.337  49.075  1.00  0.00    -0.017 C 
HETATM   23  C18 UNL     1      24.472   4.046  48.972  1.00  0.00     0.055 C 
HETATM   24  C19 UNL     1      23.753   3.325  50.081  1.00  0.00     0.269 C 
BRANCH  14  25
HETATM   25  N3  UNL     1      24.387   7.705  51.491  1.00  0.00    -0.231 N 
HETATM   26  H7  UNL     1      25.336   8.160  51.503  1.00  0.00     0.174 HD
HETATM   27  H8  UNL     1      23.862   7.533  52.380  1.00  0.00     0.174 HD
ENDBRANCH  14  25
BRANCH  24  28
HETATM   28  N5  UNL     1      22.756   2.453  49.458  1.00  0.00     0.088 N 
HETATM   29  H17 UNL     1      22.226   1.883  50.124  1.00  0.00     0.313 HD
HETATM   30  H18 UNL     1      23.168   1.821  48.740  1.00  0.00     0.313 HD
ENDBRANCH  24  28
ENDBRANCH   9  11
ENDBRANCH   7   9
TORSDOF 4
ENDMDL
MODEL 3
REMARK VINA RESULT:      -8.4      1.881      6.207
REMARK  4 active torsions:
REMARK  status: ('A' for Active; 'I' for Inactive)
REMARK    1  A    between atoms: C7_7  and  N1_8 
REMARK    2  A    between atoms: N1_8  and  C8_9 
REMARK    3  A    between atoms: C10_12  and  N3_13 
REMARK    4  A    between atoms: C19_23  and  N5_24 
ROOT
HETATM    1  C1  UNL     1      28.291   7.977  47.585  1.00  0.00     0.018 C 
HETATM    2  C2  UNL     1      27.722   7.012  48.040  1.00  0.00    -0.078 C 
HETATM    3  C3  UNL     1      27.036   5.876  48.594  1.00  0.00     0.019 A 
HETATM    4  C4  UNL     1      27.599   4.631  48.709  1.00  0.00     0.021 A 
HETATM    5  C5  UNL     1      26.857   3.597  49.258  1.00  0.00     0.004 A 
HETATM    6  C6  UNL     1      25.545   3.750  49.710  1.00  0.00     0.029 A 
HETATM    7  C7  UNL     1      25.038   5.009  49.570  1.00  0.00     0.033 A 
HETATM    8  C20 UNL     1      25.742   6.062  49.030  1.00  0.00     0.050 A 
ENDROOT
BRANCH   7   9
HETATM    9  N1  UNL     1      23.713   5.280  49.997  1.00  0.00    -0.357 N 
HETATM   10  H5  UNL     1      23.160   6.110  49.700  1.00  0.00     0.166 HD
BRANCH   9  11
HETATM   11  C8  UNL     1      23.006   4.403  50.900  1.00  0.00     0.061 C 
HETATM   12  C9  UNL     1      21.805   3.938  50.526  1.00  0.00     0.163 C 
HETATM   13  N2  UNL     1      21.004   3.081  51.296  1.00  0.00    -0.074 NA
HETATM   14  C10 UNL     1      20.663   1.936  50.817  1.00  0.00     0.719 C 
HETATM   15  N4  UNL     1      19.924   1.576  51.977  1.00  0.00    -0.075 NA
HETATM   16  C11 UNL     1      20.493   1.114  53.039  1.00  0.00     0.145 C 
HETATM   17  C12 UNL     1      21.889   1.104  52.667  1.00  0.00    -0.021 C 
HETATM   18  C13 UNL     1      21.970  -0.196  52.430  1.00  0.00    -0.017 C 
HETATM   19  C17 UNL     1      23.196   1.761  52.429  1.00  0.00     0.046 C 
HETATM   20  C14 UNL     1      22.744  -0.868  53.236  1.00  0.00     0.012 C 
HETATM   21  C15 UNL     1      24.069  -0.324  53.519  1.00  0.00    -0.002 C 
HETATM   22  C16 UNL     1      24.250   0.934  53.121  1.00  0.00    -0.017 C 
HETATM   23  C18 UNL     1      23.219   3.119  53.042  1.00  0.00     0.055 C 
HETATM   24  C19 UNL     1      23.770   4.178  52.125  1.00  0.00     0.269 C 
BRANCH  14  25
HETATM   25  N3  UNL     1      21.028   1.445  49.558  1.00  0.00    -0.231 N 
HETATM   26  H7  UNL     1      20.510   0.579  49.260  1.00  0.00     0.174 HD
HETATM   27  H8  UNL     1      21.752   1.879  48.938  1.00  0.00     0.174 HD
ENDBRANCH  14  25
BRANCH  24  28
HETATM   28  N5  UNL     1      23.763   5.441  52.865  1.00  0.00     0.088 N 
HETATM   29  H17 UNL     1      23.537   6.259  52.292  1.00  0.00     0.313 HD
HETATM   30  H18 UNL     1      24.662   5.623  53.357  1.00  0.00     0.313 HD
ENDBRANCH  24  28
ENDBRANCH   9  11
ENDBRANCH   7   9
TORSDOF 4
ENDMDL
MODEL 4
REMARK VINA RESULT:      -8.4      1.864      2.538
REMARK  4 active torsions:
REMARK  status: ('A' for Active; 'I' for Inactive)
REMARK    1  A    between atoms: C7_7  and  N1_8 
REMARK    2  A    between atoms: N1_8  and  C8_9 
REMARK    3  A    between atoms: C10_12  and  N3_13 
REMARK    4  A    between atoms: C19_23  and  N5_24 
ROOT
HETATM    1  C1  UNL     1      26.247  -0.574  53.226  1.00  0.00     0.018 C 
HETATM    2  C2  UNL     1      25.051  -0.468  53.365  1.00  0.00    -0.078 C 
HETATM    3  C3  UNL     1      23.628  -0.324  53.522  1.00  0.00     0.019 A 
HETATM    4  C4  UNL     1      22.948  -0.691  54.654  1.00  0.00     0.021 A 
HETATM    5  C5  UNL     1      21.574  -0.513  54.711  1.00  0.00     0.004 A 
HETATM    6  C6  UNL     1      20.827   0.027  53.662  1.00  0.00     0.029 A 
HETATM    7  C7  UNL     1      21.558   0.373  52.562  1.00  0.00     0.033 A 
HETATM    8  C20 UNL     1      22.921   0.212  52.467  1.00  0.00     0.050 A 
ENDROOT
BRANCH   7   9
HETATM    9  N1  UNL     1      20.901   0.933  51.436  1.00  0.00    -0.357 N 
HETATM   10  H5  UNL     1      20.016   0.564  51.031  1.00  0.00     0.166 HD
BRANCH   9  11
HETATM   11  C8  UNL     1      21.422   2.089  50.744  1.00  0.00     0.061 C 
HETATM   12  C9  UNL     1      21.062   3.305  51.180  1.00  0.00     0.163 C 
HETATM   13  N2  UNL     1      21.486   4.516  50.610  1.00  0.00    -0.074 NA
HETATM   14  C10 UNL     1      22.125   5.366  51.336  1.00  0.00     0.719 C 
HETATM   15  N4  UNL     1      22.263   6.298  50.271  1.00  0.00    -0.075 NA
HETATM   16  C11 UNL     1      23.177   6.179  49.367  1.00  0.00     0.145 C 
HETATM   17  C12 UNL     1      23.866   4.976  49.776  1.00  0.00    -0.021 C 
HETATM   18  C13 UNL     1      24.912   5.581  50.316  1.00  0.00    -0.017 C 
HETATM   19  C17 UNL     1      23.994   3.504  49.892  1.00  0.00     0.046 C 
HETATM   20  C14 UNL     1      26.052   5.376  49.717  1.00  0.00     0.012 C 
HETATM   21  C15 UNL     1      26.395   4.004  49.355  1.00  0.00    -0.002 C 
HETATM   22  C16 UNL     1      25.388   3.136  49.449  1.00  0.00    -0.017 C 
HETATM   23  C18 UNL     1      23.040   2.820  48.976  1.00  0.00     0.055 C 
HETATM   24  C19 UNL     1      22.284   1.696  49.632  1.00  0.00     0.269 C 
BRANCH  14  25
HETATM   25  N3  UNL     1      22.450   5.193  52.686  1.00  0.00    -0.231 N 
HETATM   26  H7  UNL     1      23.141   5.892  53.062  1.00  0.00     0.174 HD
HETATM   27  H8  UNL     1      22.057   4.442  53.300  1.00  0.00     0.174 HD
ENDBRANCH  14  25
BRANCH  24  28
HETATM   28  N5  UNL     1      21.417   1.102  48.614  1.00  0.00     0.088 N 
HETATM   29  H17 UNL     1      21.014   0.200  48.885  1.00  0.00     0.313 HD
HETATM   30  H18 UNL     1      21.895   0.986  47.698  1.00  0.00     0.313 HD
ENDBRANCH  24  28
ENDBRANCH   9  11
ENDBRANCH   7   9
TORSDOF 4
ENDMDL
MODEL 5
REMARK VINA RESULT:      -8.3      1.866      6.594
REMARK  4 active torsions:
REMARK  status: ('A' for Active; 'I' for Inactive)
REMARK    1  A    between atoms: C7_7  and  N1_8 
REMARK    2  A    between atoms: N1_8  and  C8_9 
REMARK    3  A    between atoms: C10_12  and  N3_13 
REMARK    4  A    between atoms: C19_23  and  N5_24 
ROOT
HETATM    1  C1  UNL     1      29.642   5.449  48.068  1.00  0.00     0.018 C 
HETATM    2  C2  UNL     1      28.489   5.751  48.271  1.00  0.00    -0.078 C 
HETATM    3  C3  UNL     1      27.114   6.091  48.517  1.00  0.00     0.019 A 
HETATM    4  C4  UNL     1      26.420   7.024  47.790  1.00  0.00     0.021 A 
HETATM    5  C5  UNL     1      25.095   7.283  48.102  1.00  0.00     0.004 A 
HETATM    6  C6  UNL     1      24.410   6.638  49.135  1.00  0.00     0.029 A 
HETATM    7  C7  UNL     1      25.150   5.721  49.822  1.00  0.00     0.033 A 
HETATM    8  C20 UNL     1      26.468   5.435  49.543  1.00  0.00     0.050 A 
ENDROOT
BRANCH   7   9
HETATM    9  N1  UNL     1      24.555   5.004  50.892  1.00  0.00    -0.357 N 
HETATM   10  H5  UNL     1      23.916   5.427  51.596  1.00  0.00     0.166 HD
BRANCH   9  11
HETATM   11  C8  UNL     1      24.796   3.595  51.096  1.00  0.00     0.061 C 
HETATM   12  C9  UNL     1      26.033   3.203  51.435  1.00  0.00     0.163 C 
HETATM   13  N2  UNL     1      26.416   1.872  51.663  1.00  0.00    -0.074 NA
HETATM   14  C10 UNL     1      26.904   1.545  52.809  1.00  0.00     0.719 C 
HETATM   15  N4  UNL     1      27.076   0.183  52.439  1.00  0.00    -0.075 NA
HETATM   16  C11 UNL     1      26.102  -0.664  52.461  1.00  0.00     0.145 C 
HETATM   17  C12 UNL     1      24.994   0.145  52.915  1.00  0.00    -0.021 C 
HETATM   18  C13 UNL     1      24.995  -0.291  54.165  1.00  0.00    -0.017 C 
HETATM   19  C17 UNL     1      23.925   1.150  52.713  1.00  0.00     0.046 C 
HETATM   20  C14 UNL     1      23.939  -0.966  54.526  1.00  0.00     0.012 C 
HETATM   21  C15 UNL     1      22.631  -0.418  54.186  1.00  0.00    -0.002 C 
HETATM   22  C16 UNL     1      22.660   0.591  53.315  1.00  0.00    -0.017 C 
HETATM   23  C18 UNL     1      23.671   1.361  51.260  1.00  0.00     0.055 C 
HETATM   24  C19 UNL     1      23.582   2.813  50.875  1.00  0.00     0.269 C 
BRANCH  14  25
HETATM   25  N3  UNL     1      27.097   2.417  53.886  1.00  0.00    -0.231 N 
HETATM   26  H7  UNL     1      27.164   3.433  53.619  1.00  0.00     0.174 HD
HETATM   27  H8  UNL     1      27.172   2.118  54.886  1.00  0.00     0.174 HD
ENDBRANCH  14  25
BRANCH  24  28
HETATM   28  N5  UNL     1      23.300   2.866  49.439  1.00  0.00     0.088 N 
HETATM   29  H17 UNL     1      23.187   1.947  49.002  1.00  0.00     0.313 HD
HETATM   30  H18 UNL     1      24.021   3.396  48.908  1.00  0.00     0.313 HD
ENDBRANCH  24  28
ENDBRANCH   9  11
ENDBRANCH   7   9
TORSDOF 4
ENDMDL
MODEL 6
REMARK VINA RESULT:      -8.1      2.385      4.820
REMARK  4 active torsions:
REMARK  status: ('A' for Active; 'I' for Inactive)
REMARK    1  A    between atoms: C7_7  and  N1_8 
REMARK    2  A    between atoms: N1_8  and  C8_9 
REMARK    3  A    between atoms: C10_12  and  N3_13 
REMARK    4  A    between atoms: C19_23  and  N5_24 
ROOT
HETATM    1  C1  UNL     1      22.090  -1.017  54.408  1.00  0.00     0.018 C 
HETATM    2  C2  UNL     1      23.092  -0.578  53.894  1.00  0.00    -0.078 C 
HETATM    3  C3  UNL     1      24.273  -0.043  53.270  1.00  0.00     0.019 A 
HETATM    4  C4  UNL     1      25.361  -0.802  52.928  1.00  0.00     0.021 A 
HETATM    5  C5  UNL     1      26.454  -0.195  52.329  1.00  0.00     0.004 A 
HETATM    6  C6  UNL     1      26.514   1.172  52.050  1.00  0.00     0.029 A 
HETATM    7  C7  UNL     1      25.403   1.876  52.414  1.00  0.00     0.033 A 
HETATM    8  C20 UNL     1      24.299   1.311  53.009  1.00  0.00     0.050 A 
ENDROOT
BRANCH   7   9
HETATM    9  N1  UNL     1      25.354   3.274  52.177  1.00  0.00    -0.357 N 
HETATM   10  H5  UNL     1      26.091   3.945  52.476  1.00  0.00     0.166 HD
BRANCH   9  11
HETATM   11  C8  UNL     1      24.249   3.893  51.483  1.00  0.00     0.061 C 
HETATM   12  C9  UNL     1      24.267   3.906  50.142  1.00  0.00     0.163 C 
HETATM   13  N2  UNL     1      23.268   4.471  49.335  1.00  0.00    -0.074 NA
HETATM   14  C10 UNL     1      22.649   3.728  48.484  1.00  0.00     0.719 C 
HETATM   15  N4  UNL     1      21.832   4.794  48.020  1.00  0.00    -0.075 NA
HETATM   16  C11 UNL     1      20.776   5.178  48.656  1.00  0.00     0.145 C 
HETATM   17  C12 UNL     1      20.752   4.284  49.791  1.00  0.00    -0.021 C 
HETATM   18  C13 UNL     1      19.806   3.482  49.327  1.00  0.00    -0.017 C 
HETATM   19  C17 UNL     1      21.213   3.832  51.124  1.00  0.00     0.046 C 
HETATM   20  C14 UNL     1      18.688   3.483  49.998  1.00  0.00     0.012 C 
HETATM   21  C15 UNL     1      18.766   3.381  51.452  1.00  0.00    -0.002 C 
HETATM   22  C16 UNL     1      19.987   3.554  51.957  1.00  0.00    -0.017 C 
HETATM   23  C18 UNL     1      21.981   4.910  51.807  1.00  0.00     0.055 C 
HETATM   24  C19 UNL     1      23.267   4.428  52.423  1.00  0.00     0.269 C 
BRANCH  14  25
HETATM   25  N3  UNL     1      22.885   2.363  48.279  1.00  0.00    -0.231 N 
HETATM   26  H7  UNL     1      23.543   1.925  48.973  1.00  0.00     0.174 HD
HETATM   27  H8  UNL     1      22.460   1.796  47.509  1.00  0.00     0.174 HD
ENDBRANCH  14  25
BRANCH  24  28
HETATM   28  N5  UNL     1      23.893   5.577  53.080  1.00  0.00     0.088 N 
HETATM   29  H17 UNL     1      24.417   5.339  53.927  1.00  0.00     0.313 HD
HETATM   30  H18 UNL     1      23.210   6.325  53.317  1.00  0.00     0.313 HD
ENDBRANCH  24  28
ENDBRANCH   9  11
ENDBRANCH   7   9
TORSDOF 4
ENDMDL
MODEL 7
REMARK VINA RESULT:      -8.1      3.242      4.119
REMARK  4 active torsions:
REMARK  status: ('A' for Active; 'I' for Inactive)
REMARK    1  A    between atoms: C7_7  and  N1_8 
REMARK    2  A    between atoms: N1_8  and  C8_9 
REMARK    3  A    between atoms: C10_12  and  N3_13 
REMARK    4  A    between atoms: C19_23  and  N5_24 
ROOT
HETATM    1  C1  UNL     1      26.025   0.950  51.955  1.00  0.00     0.018 C 
HETATM    2  C2  UNL     1      25.144   0.501  52.650  1.00  0.00    -0.078 C 
HETATM    3  C3  UNL     1      24.087  -0.016  53.476  1.00  0.00     0.019 A 
HETATM    4  C4  UNL     1      24.297  -0.843  54.549  1.00  0.00     0.021 A 
HETATM    5  C5  UNL     1      23.212  -1.289  55.288  1.00  0.00     0.004 A 
HETATM    6  C6  UNL     1      21.891  -0.941  54.996  1.00  0.00     0.029 A 
HETATM    7  C7  UNL     1      21.744  -0.118  53.918  1.00  0.00     0.033 A 
HETATM    8  C20 UNL     1      22.795   0.347  53.161  1.00  0.00     0.050 A 
ENDROOT
BRANCH   7   9
HETATM    9  N1  UNL     1      20.445   0.301  53.532  1.00  0.00    -0.357 N 
HETATM   10  H5  UNL     1      19.566  -0.015  53.992  1.00  0.00     0.166 HD
BRANCH   9  11
HETATM   11  C8  UNL     1      20.232   1.222  52.440  1.00  0.00     0.061 C 
HETATM   12  C9  UNL     1      20.277   2.537  52.700  1.00  0.00     0.163 C 
HETATM   13  N2  UNL     1      20.089   3.548  51.744  1.00  0.00    -0.074 NA
HETATM   14  C10 UNL     1      21.026   4.407  51.542  1.00  0.00     0.719 C 
HETATM   15  N4  UNL     1      20.288   5.102  50.545  1.00  0.00    -0.075 NA
HETATM   16  C11 UNL     1      20.223   4.687  49.324  1.00  0.00     0.145 C 
HETATM   17  C12 UNL     1      21.027   3.486  49.359  1.00  0.00    -0.021 C 
HETATM   18  C13 UNL     1      22.103   4.013  48.797  1.00  0.00    -0.017 C 
HETATM   19  C17 UNL     1      21.251   2.057  49.680  1.00  0.00     0.046 C 
HETATM   20  C14 UNL     1      22.418   3.534  47.625  1.00  0.00     0.012 C 
HETATM   21  C15 UNL     1      22.423   2.084  47.461  1.00  0.00    -0.002 C 
HETATM   22  C16 UNL     1      21.856   1.409  48.460  1.00  0.00    -0.017 C 
HETATM   23  C18 UNL     1      19.956   1.372  49.953  1.00  0.00     0.055 C 
HETATM   24  C19 UNL     1      19.986   0.511  51.188  1.00  0.00     0.269 C 
BRANCH  14  25
HETATM   25  N3  UNL     1      22.257   4.433  52.207  1.00  0.00    -0.231 N 
HETATM   26  H7  UNL     1      22.645   3.484  52.446  1.00  0.00     0.174 HD
HETATM   27  H8  UNL     1      22.776   5.306  52.462  1.00  0.00     0.174 HD
ENDBRANCH  14  25
BRANCH  24  28
HETATM   28  N5  UNL     1      18.671  -0.119  51.310  1.00  0.00     0.088 N 
HETATM   29  H17 UNL     1      17.886   0.526  51.182  1.00  0.00     0.313 HD
HETATM   30  H18 UNL     1      18.545  -0.613  52.218  1.00  0.00     0.313 HD
ENDBRANCH  24  28
ENDBRANCH   9  11
ENDBRANCH   7   9
TORSDOF 4
ENDMDL
MODEL 8
REMARK VINA RESULT:      -7.7      2.097      6.867
REMARK  4 active torsions:
REMARK  status: ('A' for Active; 'I' for Inactive)
REMARK    1  A    between atoms: C7_7  and  N1_8 
REMARK    2  A    between atoms: N1_8  and  C8_9 
REMARK    3  A    between atoms: C10_12  and  N3_13 
REMARK    4  A    between atoms: C19_23  and  N5_24 
ROOT
HETATM    1  C1  UNL     1      26.947   9.992  47.750  1.00  0.00     0.018 C 
HETATM    2  C2  UNL     1      27.097   8.818  47.999  1.00  0.00    -0.078 C 
HETATM    3  C3  UNL     1      27.270   7.426  48.314  1.00  0.00     0.019 A 
HETATM    4  C4  UNL     1      28.276   6.650  47.800  1.00  0.00     0.021 A 
HETATM    5  C5  UNL     1      28.362   5.315  48.164  1.00  0.00     0.004 A 
HETATM    6  C6  UNL     1      27.464   4.701  49.040  1.00  0.00     0.029 A 
HETATM    7  C7  UNL     1      26.485   5.521  49.519  1.00  0.00     0.033 A 
HETATM    8  C20 UNL     1      26.366   6.850  49.182  1.00  0.00     0.050 A 
ENDROOT
BRANCH   7   9
HETATM    9  N1  UNL     1      25.518   5.002  50.417  1.00  0.00    -0.357 N 
HETATM   10  H5  UNL     1      24.804   5.580  50.908  1.00  0.00     0.166 HD
BRANCH   9  11
HETATM   11  C8  UNL     1      25.444   3.595  50.732  1.00  0.00     0.061 C 
HETATM   12  C9  UNL     1      26.531   3.001  51.248  1.00  0.00     0.163 C 
HETATM   13  N2  UNL     1      26.610   1.645  51.601  1.00  0.00    -0.074 NA
HETATM   14  C10 UNL     1      26.890   1.325  52.816  1.00  0.00     0.719 C 
HETATM   15  N4  UNL     1      26.824  -0.070  52.552  1.00  0.00    -0.075 NA
HETATM   16  C11 UNL     1      25.703  -0.708  52.501  1.00  0.00     0.145 C 
HETATM   17  C12 UNL     1      24.737   0.335  52.763  1.00  0.00    -0.021 C 
HETATM   18  C13 UNL     1      24.510   0.012  54.027  1.00  0.00    -0.017 C 
HETATM   19  C17 UNL     1      23.922   1.508  52.368  1.00  0.00     0.046 C 
HETATM   20  C14 UNL     1      23.306  -0.414  54.290  1.00  0.00     0.012 C 
HETATM   21  C15 UNL     1      22.181   0.347  53.756  1.00  0.00    -0.002 C 
HETATM   22  C16 UNL     1      22.511   1.256  52.838  1.00  0.00    -0.017 C 
HETATM   23  C18 UNL     1      23.881   1.642  50.885  1.00  0.00     0.055 C 
HETATM   24  C19 UNL     1      24.130   3.047  50.406  1.00  0.00     0.269 C 
BRANCH  14  25
HETATM   25  N3  UNL     1      27.133   2.230  53.855  1.00  0.00    -0.231 N 
HETATM   26  H7  UNL     1      26.349   2.908  54.036  1.00  0.00     0.174 HD
HETATM   27  H8  UNL     1      28.011   2.258  54.425  1.00  0.00     0.174 HD
ENDBRANCH  14  25
BRANCH  24  28
HETATM   28  N5  UNL     1      24.027   3.034  48.946  1.00  0.00     0.088 N 
HETATM   29  H17 UNL     1      24.535   3.795  48.486  1.00  0.00     0.313 HD
HETATM   30  H18 UNL     1      23.042   3.048  48.613  1.00  0.00     0.313 HD
ENDBRANCH  24  28
ENDBRANCH   9  11
ENDBRANCH   7   9
TORSDOF 4
ENDMDL
MODEL 9
REMARK VINA RESULT:      -7.7      2.868      3.680
REMARK  4 active torsions:
REMARK  status: ('A' for Active; 'I' for Inactive)
REMARK    1  A    between atoms: C7_7  and  N1_8 
REMARK    2  A    between atoms: N1_8  and  C8_9 
REMARK    3  A    between atoms: C10_12  and  N3_13 
REMARK    4  A    between atoms: C19_23  and  N5_24 
ROOT
HETATM    1  C1  UNL     1      22.485  -1.281  55.189  1.00  0.00     0.018 C 
HETATM    2  C2  UNL     1      21.874  -0.858  54.236  1.00  0.00    -0.078 C 
HETATM    3  C3  UNL     1      21.159  -0.340  53.101  1.00  0.00     0.019 A 
HETATM    4  C4  UNL     1      19.794  -0.380  52.980  1.00  0.00     0.021 A 
HETATM    5  C5  UNL     1      19.195   0.147  51.846  1.00  0.00     0.004 A 
HETATM    6  C6  UNL     1      19.913   0.727  50.799  1.00  0.00     0.029 A 
HETATM    7  C7  UNL     1      21.266   0.738  50.975  1.00  0.00     0.033 A 
HETATM    8  C20 UNL     1      21.899   0.226  52.085  1.00  0.00     0.050 A 
ENDROOT
BRANCH   7   9
HETATM    9  N1  UNL     1      22.096   1.304  49.973  1.00  0.00    -0.357 N 
HETATM   10  H5  UNL     1      22.673   0.749  49.308  1.00  0.00     0.166 HD
BRANCH   9  11
HETATM   11  C8  UNL     1      22.208   2.732  49.790  1.00  0.00     0.061 C 
HETATM   12  C9  UNL     1      21.593   3.536  50.670  1.00  0.00     0.163 C 
HETATM   13  N2  UNL     1      21.612   4.939  50.621  1.00  0.00    -0.074 NA
HETATM   14  C10 UNL     1      22.083   5.598  51.622  1.00  0.00     0.719 C 
HETATM   15  N4  UNL     1      21.846   6.859  51.009  1.00  0.00    -0.075 NA
HETATM   16  C11 UNL     1      22.648   7.359  50.130  1.00  0.00     0.145 C 
HETATM   17  C12 UNL     1      23.673   6.344  50.031  1.00  0.00    -0.021 C 
HETATM   18  C13 UNL     1      24.577   6.976  50.763  1.00  0.00    -0.017 C 
HETATM   19  C17 UNL     1      24.199   5.042  49.559  1.00  0.00     0.046 C 
HETATM   20  C14 UNL     1      25.654   7.349  50.130  1.00  0.00     0.012 C 
HETATM   21  C15 UNL     1      26.304   6.376  49.257  1.00  0.00    -0.002 C 
HETATM   22  C16 UNL     1      25.580   5.286  49.004  1.00  0.00    -0.017 C 
HETATM   23  C18 UNL     1      23.360   4.509  48.449  1.00  0.00     0.055 C 
HETATM   24  C19 UNL     1      23.010   3.054  48.612  1.00  0.00     0.269 C 
BRANCH  14  25
HETATM   25  N3  UNL     1      22.595   5.032  52.795  1.00  0.00    -0.231 N 
HETATM   26  H7  UNL     1      23.640   5.104  52.895  1.00  0.00     0.174 HD
HETATM   27  H8  UNL     1      22.015   4.567  53.532  1.00  0.00     0.174 HD
ENDBRANCH  14  25
BRANCH  24  28
HETATM   28  N5  UNL     1      22.220   2.663  47.444  1.00  0.00     0.088 N 
HETATM   29  H17 UNL     1      22.331   3.285  46.638  1.00  0.00     0.313 HD
HETATM   30  H18 UNL     1      21.205   2.578  47.655  1.00  0.00     0.313 HD
ENDBRANCH  24  28
ENDBRANCH   9  11
ENDBRANCH   7   9
TORSDOF 4
ENDMDL
