MODEL 1
REMARK VINA RESULT:      -8.3      0.000      0.000
REMARK  3 active torsions:
REMARK  status: ('A' for Active; 'I' for Inactive)
REMARK    1  A    between atoms: C7_7  and  N1_8 
REMARK    2  A    between atoms: N1_8  and  C8_9 
REMARK    3  A    between atoms: C12_14  and  N3_15 
REMARK       I    between atoms: N3_15  and  C13_16 
ROOT
HETATM    1  C1  UNL     1      22.339  -1.120  54.521  1.00  0.00     0.018 C 
HETATM    2  C2  UNL     1      23.206  -0.565  53.958  1.00  0.00    -0.078 C 
HETATM    3  C3  UNL     1      24.330   0.134  53.259  1.00  0.00     0.019 A 
HETATM    4  C4  UNL     1      25.424  -0.658  53.023  1.00  0.00     0.021 A 
HETATM    5  C5  UNL     1      26.447   0.001  52.392  1.00  0.00     0.004 A 
HETATM    6  C6  UNL     1      26.470   1.349  51.987  1.00  0.00     0.029 A 
HETATM    7  C7  UNL     1      25.285   2.028  52.296  1.00  0.00     0.029 A 
HETATM    8  C18 UNL     1      24.196   1.460  52.928  1.00  0.00     0.049 A 
ENDROOT
BRANCH   7   9
HETATM    9  N1  UNL     1      25.215   3.402  51.935  1.00  0.00    -0.381 N 
HETATM   10  H5  UNL     1      25.560   4.132  52.613  1.00  0.00     0.160 HD
BRANCH   9  11
HETATM   11  C8  UNL     1      24.708   3.976  50.697  1.00  0.00     0.118 A 
HETATM   12  C9  UNL     1      24.109   5.292  50.864  1.00  0.00    -0.003 A 
HETATM   13  N2  UNL     1      25.150   4.638  50.283  1.00  0.00     0.000 N 
HETATM   14  C10 UNL     1      26.234   4.923  49.413  1.00  0.00     0.018 A 
HETATM   15  C15 UNL     1      25.617   6.048  49.554  1.00  0.00     0.068 A 
HETATM   16  C16 UNL     1      25.867   4.519  49.785  1.00  0.00     0.024 A 
HETATM   17  C11 UNL     1      27.095   5.764  48.553  1.00  0.00     0.014 A 
HETATM   18  C17 UNL     1      26.829   3.755  49.293  1.00  0.00    -0.024 A 
HETATM   19  C12 UNL     1      26.434   6.905  48.724  1.00  0.00     0.016 A 
BRANCH  19  20
HETATM   20  N3  UNL     1      26.532   8.205  48.286  1.00  0.00    -0.331 N 
HETATM   21  C13 UNL     1      26.970   9.136  49.256  1.00  0.00     0.217 C 
HETATM   22  C14 UNL     1      27.063  10.540  48.813  1.00  0.00     0.117 C 
HETATM   23  O1  UNL     1      27.304   9.027  50.452  1.00  0.00    -0.274 OA
HETATM   24  H9  UNL     1      26.271   8.326  47.294  1.00  0.00     0.168 HD
ENDBRANCH  19  20
ENDBRANCH   9  11
ENDBRANCH   7   9
TORSDOF 3
ENDMDL
MODEL 2
REMARK VINA RESULT:      -8.2      4.894      6.833
REMARK  3 active torsions:
REMARK  status: ('A' for Active; 'I' for Inactive)
REMARK    1  A    between atoms: C7_7  and  N1_8 
REMARK    2  A    between atoms: N1_8  and  C8_9 
REMARK    3  A    between atoms: C12_14  and  N3_15 
REMARK       I    between atoms: N3_15  and  C13_16 
ROOT
HETATM    1  C1  UNL     1      17.446  -3.316  53.832  1.00  0.00     0.018 C 
HETATM    2  C2  UNL     1      17.792  -2.300  53.360  1.00  0.00    -0.078 C 
HETATM    3  C3  UNL     1      18.229  -1.013  52.732  1.00  0.00     0.019 A 
HETATM    4  C4  UNL     1      17.360  -0.522  51.791  1.00  0.00     0.021 A 
HETATM    5  C5  UNL     1      17.781   0.650  51.219  1.00  0.00     0.004 A 
HETATM    6  C6  UNL     1      18.966   1.356  51.499  1.00  0.00     0.029 A 
HETATM    7  C7  UNL     1      19.751   0.733  52.478  1.00  0.00     0.029 A 
HETATM    8  C18 UNL     1      19.419  -0.446  53.116  1.00  0.00     0.049 A 
ENDROOT
BRANCH   7   9
HETATM    9  N1  UNL     1      20.976   1.366  52.823  1.00  0.00    -0.381 N 
HETATM   10  H5  UNL     1      21.008   2.004  53.662  1.00  0.00     0.160 HD
BRANCH   9  11
HETATM   11  C8  UNL     1      22.261   1.256  52.148  1.00  0.00     0.118 A 
HETATM   12  C9  UNL     1      23.067   2.466  52.222  1.00  0.00    -0.003 A 
HETATM   13  N2  UNL     1      23.020   1.166  52.618  1.00  0.00     0.000 N 
HETATM   14  C10 UNL     1      23.838   0.232  53.305  1.00  0.00     0.018 A 
HETATM   15  C15 UNL     1      24.529   1.323  53.280  1.00  0.00     0.068 A 
HETATM   16  C16 UNL     1      23.291   0.411  52.982  1.00  0.00     0.024 A 
HETATM   17  C11 UNL     1      25.040  -0.242  54.025  1.00  0.00     0.014 A 
HETATM   18  C17 UNL     1      23.104  -0.859  53.303  1.00  0.00    -0.024 A 
HETATM   19  C12 UNL     1      25.720   0.899  53.980  1.00  0.00     0.016 A 
BRANCH  19  20
HETATM   20  N3  UNL     1      26.945   1.363  54.401  1.00  0.00    -0.331 N 
HETATM   21  C13 UNL     1      27.726   1.993  53.406  1.00  0.00     0.217 C 
HETATM   22  C14 UNL     1      29.051   2.481  53.832  1.00  0.00     0.117 C 
HETATM   23  O1  UNL     1      27.534   2.235  52.198  1.00  0.00    -0.274 OA
HETATM   24  H9  UNL     1      27.130   1.187  55.403  1.00  0.00     0.168 HD
ENDBRANCH  19  20
ENDBRANCH   9  11
ENDBRANCH   7   9
TORSDOF 3
ENDMDL
MODEL 3
REMARK VINA RESULT:      -8.1      0.879      1.837
REMARK  3 active torsions:
REMARK  status: ('A' for Active; 'I' for Inactive)
REMARK    1  A    between atoms: C7_7  and  N1_8 
REMARK    2  A    between atoms: N1_8  and  C8_9 
REMARK    3  A    between atoms: C12_14  and  N3_15 
REMARK       I    between atoms: N3_15  and  C13_16 
ROOT
HETATM    1  C1  UNL     1      27.165  -1.604  52.722  1.00  0.00     0.018 C 
HETATM    2  C2  UNL     1      26.342  -0.770  52.729  1.00  0.00    -0.078 C 
HETATM    3  C3  UNL     1      25.273   0.279  52.725  1.00  0.00     0.019 A 
HETATM    4  C4  UNL     1      24.066  -0.147  53.219  1.00  0.00     0.021 A 
HETATM    5  C5  UNL     1      23.097   0.823  53.198  1.00  0.00     0.004 A 
HETATM    6  C6  UNL     1      23.227   2.146  52.737  1.00  0.00     0.029 A 
HETATM    7  C7  UNL     1      24.513   2.432  52.262  1.00  0.00     0.029 A 
HETATM    8  C18 UNL     1      25.560   1.531  52.240  1.00  0.00     0.049 A 
ENDROOT
BRANCH   7   9
HETATM    9  N1  UNL     1      24.741   3.745  51.765  1.00  0.00    -0.381 N 
HETATM   10  H5  UNL     1      25.099   4.489  52.421  1.00  0.00     0.160 HD
BRANCH   9  11
HETATM   11  C8  UNL     1      24.541   4.235  50.410  1.00  0.00     0.118 A 
HETATM   12  C9  UNL     1      24.162   5.638  50.345  1.00  0.00    -0.003 A 
HETATM   13  N2  UNL     1      25.150   4.764  50.018  1.00  0.00     0.000 N 
HETATM   14  C10 UNL     1      26.389   4.767  49.326  1.00  0.00     0.018 A 
HETATM   15  C15 UNL     1      25.964   5.984  49.250  1.00  0.00     0.068 A 
HETATM   16  C16 UNL     1      25.904   4.475  49.665  1.00  0.00     0.024 A 
HETATM   17  C11 UNL     1      27.507   5.352  48.553  1.00  0.00     0.014 A 
HETATM   18  C17 UNL     1      26.783   3.516  49.422  1.00  0.00    -0.024 A 
HETATM   19  C12 UNL     1      27.036   6.594  48.497  1.00  0.00     0.016 A 
BRANCH  19  20
HETATM   20  N3  UNL     1      27.427   7.799  47.962  1.00  0.00    -0.331 N 
HETATM   21  C13 UNL     1      27.618   8.841  48.898  1.00  0.00     0.217 C 
HETATM   22  C14 UNL     1      28.018  10.148  48.343  1.00  0.00     0.117 C 
HETATM   23  O1  UNL     1      27.516   8.901  50.140  1.00  0.00    -0.274 OA
HETATM   24  H9  UNL     1      27.530   7.780  46.934  1.00  0.00     0.168 HD
ENDBRANCH  19  20
ENDBRANCH   9  11
ENDBRANCH   7   9
TORSDOF 3
ENDMDL
MODEL 4
REMARK VINA RESULT:      -7.9      2.431      3.870
REMARK  3 active torsions:
REMARK  status: ('A' for Active; 'I' for Inactive)
REMARK    1  A    between atoms: C7_7  and  N1_8 
REMARK    2  A    between atoms: N1_8  and  C8_9 
REMARK    3  A    between atoms: C12_14  and  N3_15 
REMARK       I    between atoms: N3_15  and  C13_16 
ROOT
HETATM    1  C1  UNL     1      17.765  -0.896  52.806  1.00  0.00     0.018 C 
HETATM    2  C2  UNL     1      18.904  -0.826  53.077  1.00  0.00    -0.078 C 
HETATM    3  C3  UNL     1      20.350  -0.738  53.451  1.00  0.00     0.019 A 
HETATM    4  C4  UNL     1      20.757  -1.689  54.354  1.00  0.00     0.021 A 
HETATM    5  C5  UNL     1      22.081  -1.586  54.692  1.00  0.00     0.004 A 
HETATM    6  C6  UNL     1      23.010  -0.641  54.220  1.00  0.00     0.029 A 
HETATM    7  C7  UNL     1      22.449   0.262  53.308  1.00  0.00     0.029 A 
HETATM    8  C18 UNL     1      21.130   0.247  52.899  1.00  0.00     0.049 A 
ENDROOT
BRANCH   7   9
HETATM    9  N1  UNL     1      23.309   1.264  52.779  1.00  0.00    -0.381 N 
HETATM   10  H5  UNL     1      24.336   1.054  52.664  1.00  0.00     0.160 HD
BRANCH   9  11
HETATM   11  C8  UNL     1      22.957   2.610  52.353  1.00  0.00     0.118 A 
HETATM   12  C9  UNL     1      23.910   3.626  52.776  1.00  0.00    -0.003 A 
HETATM   13  N2  UNL     1      23.396   3.008  51.679  1.00  0.00     0.000 N 
HETATM   14  C10 UNL     1      23.487   3.098  50.266  1.00  0.00     0.018 A 
HETATM   15  C15 UNL     1      24.270   4.025  50.709  1.00  0.00     0.068 A 
HETATM   16  C16 UNL     1      23.254   2.839  50.827  1.00  0.00     0.024 A 
HETATM   17  C11 UNL     1      23.959   3.637  48.972  1.00  0.00     0.014 A 
HETATM   18  C17 UNL     1      22.676   2.146  49.859  1.00  0.00    -0.024 A 
HETATM   19  C12 UNL     1      24.755   4.579  49.465  1.00  0.00     0.016 A 
BRANCH  19  20
HETATM   20  N3  UNL     1      25.585   5.560  48.974  1.00  0.00    -0.331 N 
HETATM   21  C13 UNL     1      26.933   5.175  48.792  1.00  0.00     0.217 C 
HETATM   22  C14 UNL     1      27.844   6.217  48.284  1.00  0.00     0.117 C 
HETATM   23  O1  UNL     1      27.545   4.104  48.977  1.00  0.00    -0.274 OA
HETATM   24  H9  UNL     1      25.104   6.458  48.800  1.00  0.00     0.168 HD
ENDBRANCH  19  20
ENDBRANCH   9  11
ENDBRANCH   7   9
TORSDOF 3
ENDMDL
MODEL 5
REMARK VINA RESULT:      -7.8      5.981      7.962
REMARK  3 active torsions:
REMARK  status: ('A' for Active; 'I' for Inactive)
REMARK    1  A    between atoms: C7_7  and  N1_8 
REMARK    2  A    between atoms: N1_8  and  C8_9 
REMARK    3  A    between atoms: C12_14  and  N3_15 
REMARK       I    between atoms: N3_15  and  C13_16 
ROOT
HETATM    1  C1  UNL     1      17.829   2.163  50.461  1.00  0.00     0.018 C 
HETATM    2  C2  UNL     1      18.015   1.247  51.169  1.00  0.00    -0.078 C 
HETATM    3  C3  UNL     1      18.233   0.087  52.089  1.00  0.00     0.019 A 
HETATM    4  C4  UNL     1      17.089  -0.603  52.405  1.00  0.00     0.021 A 
HETATM    5  C5  UNL     1      17.305  -1.654  53.257  1.00  0.00     0.004 A 
HETATM    6  C6  UNL     1      18.534  -2.066  53.807  1.00  0.00     0.029 A 
HETATM    7  C7  UNL     1      19.608  -1.266  53.395  1.00  0.00     0.029 A 
HETATM    8  C18 UNL     1      19.500  -0.187  52.541  1.00  0.00     0.049 A 
ENDROOT
BRANCH   7   9
HETATM    9  N1  UNL     1      20.892  -1.598  53.906  1.00  0.00    -0.381 N 
HETATM   10  H5  UNL     1      21.244  -2.588  53.815  1.00  0.00     0.160 HD
BRANCH   9  11
HETATM   11  C8  UNL     1      21.843  -0.721  54.574  1.00  0.00     0.118 A 
HETATM   12  C9  UNL     1      22.765  -1.420  55.456  1.00  0.00    -0.003 A 
HETATM   13  N2  UNL     1      22.700  -0.689  54.312  1.00  0.00     0.000 N 
HETATM   14  C10 UNL     1      23.586  -0.131  53.353  1.00  0.00     0.018 A 
HETATM   15  C15 UNL     1      24.352  -0.720  54.210  1.00  0.00     0.068 A 
HETATM   16  C16 UNL     1      22.986  -0.250  53.604  1.00  0.00     0.024 A 
HETATM   17  C11 UNL     1      24.896   0.181  52.741  1.00  0.00     0.014 A 
HETATM   18  C17 UNL     1      22.769   0.459  52.508  1.00  0.00    -0.024 A 
HETATM   19  C12 UNL     1      25.651  -0.436  53.643  1.00  0.00     0.016 A 
BRANCH  19  20
HETATM   20  N3  UNL     1      26.992  -0.647  53.865  1.00  0.00    -0.331 N 
HETATM   21  C13 UNL     1      27.722   0.493  54.274  1.00  0.00     0.217 C 
HETATM   22  C14 UNL     1      29.166   0.294  54.498  1.00  0.00     0.117 C 
HETATM   23  O1  UNL     1      27.400   1.678  54.492  1.00  0.00    -0.274 OA
HETATM   24  H9  UNL     1      27.289  -1.623  53.701  1.00  0.00     0.168 HD
ENDBRANCH  19  20
ENDBRANCH   9  11
ENDBRANCH   7   9
TORSDOF 3
ENDMDL
MODEL 6
REMARK VINA RESULT:      -7.5      5.829      7.853
REMARK  3 active torsions:
REMARK  status: ('A' for Active; 'I' for Inactive)
REMARK    1  A    between atoms: C7_7  and  N1_8 
REMARK    2  A    between atoms: N1_8  and  C8_9 
REMARK    3  A    between atoms: C12_14  and  N3_15 
REMARK       I    between atoms: N3_15  and  C13_16 
ROOT
HETATM    1  C1  UNL     1      18.472   1.867  49.729  1.00  0.00     0.018 C 
HETATM    2  C2  UNL     1      18.692   1.089  50.578  1.00  0.00    -0.078 C 
HETATM    3  C3  UNL     1      18.955   0.109  51.679  1.00  0.00     0.019 A 
HETATM    4  C4  UNL     1      17.824  -0.460  52.207  1.00  0.00     0.021 A 
HETATM    5  C5  UNL     1      18.083  -1.346  53.220  1.00  0.00     0.004 A 
HETATM    6  C6  UNL     1      19.342  -1.704  53.737  1.00  0.00     0.029 A 
HETATM    7  C7  UNL     1      20.399  -1.043  53.099  1.00  0.00     0.029 A 
HETATM    8  C18 UNL     1      20.248  -0.134  52.070  1.00  0.00     0.049 A 
ENDROOT
BRANCH   7   9
HETATM    9  N1  UNL     1      21.713  -1.332  53.559  1.00  0.00    -0.381 N 
HETATM   10  H5  UNL     1      22.129  -2.281  53.365  1.00  0.00     0.160 HD
BRANCH   9  11
HETATM   11  C8  UNL     1      22.613  -0.460  54.299  1.00  0.00     0.118 A 
HETATM   12  C9  UNL     1      23.554  -1.176  55.148  1.00  0.00    -0.003 A 
HETATM   13  N2  UNL     1      23.472  -0.372  54.054  1.00  0.00     0.000 N 
HETATM   14  C10 UNL     1      24.344   0.287  53.150  1.00  0.00     0.018 A 
HETATM   15  C15 UNL     1      25.125  -0.323  53.978  1.00  0.00     0.068 A 
HETATM   16  C16 UNL     1      23.747   0.126  53.382  1.00  0.00     0.024 A 
HETATM   17  C11 UNL     1      25.646   0.698  52.581  1.00  0.00     0.014 A 
HETATM   18  C17 UNL     1      23.513   0.896  52.331  1.00  0.00    -0.024 A 
HETATM   19  C12 UNL     1      26.417   0.055  53.453  1.00  0.00     0.016 A 
BRANCH  19  20
HETATM   20  N3  UNL     1      27.763  -0.109  53.682  1.00  0.00    -0.331 N 
HETATM   21  C13 UNL     1      28.282  -1.378  53.339  1.00  0.00     0.217 C 
HETATM   22  C14 UNL     1      29.720  -1.583  53.595  1.00  0.00     0.117 C 
HETATM   23  O1  UNL     1      27.770  -2.405  52.851  1.00  0.00    -0.274 OA
HETATM   24  H9  UNL     1      28.219   0.729  54.078  1.00  0.00     0.168 HD
ENDBRANCH  19  20
ENDBRANCH   9  11
ENDBRANCH   7   9
TORSDOF 3
ENDMDL
MODEL 7
REMARK VINA RESULT:      -7.5      4.984      7.370
REMARK  3 active torsions:
REMARK  status: ('A' for Active; 'I' for Inactive)
REMARK    1  A    between atoms: C7_7  and  N1_8 
REMARK    2  A    between atoms: N1_8  and  C8_9 
REMARK    3  A    between atoms: C12_14  and  N3_15 
REMARK       I    between atoms: N3_15  and  C13_16 
ROOT
HETATM    1  C1  UNL     1      17.061  -0.909  51.915  1.00  0.00     0.018 C 
HETATM    2  C2  UNL     1      17.792   0.007  51.912  1.00  0.00    -0.078 C 
HETATM    3  C3  UNL     1      18.718   1.184  51.882  1.00  0.00     0.019 A 
HETATM    4  C4  UNL     1      18.127   2.354  51.480  1.00  0.00     0.021 A 
HETATM    5  C5  UNL     1      18.991   3.418  51.448  1.00  0.00     0.004 A 
HETATM    6  C6  UNL     1      20.360   3.412  51.775  1.00  0.00     0.029 A 
HETATM    7  C7  UNL     1      20.820   2.148  52.166  1.00  0.00     0.029 A 
HETATM    8  C18 UNL     1      20.034   1.014  52.233  1.00  0.00     0.049 A 
ENDROOT
BRANCH   7   9
HETATM    9  N1  UNL     1      22.195   2.039  52.508  1.00  0.00    -0.381 N 
HETATM   10  H5  UNL     1      22.580   2.630  53.292  1.00  0.00     0.160 HD
BRANCH   9  11
HETATM   11  C8  UNL     1      23.203   1.184  51.899  1.00  0.00     0.118 A 
HETATM   12  C9  UNL     1      24.389   1.901  51.456  1.00  0.00    -0.003 A 
HETATM   13  N2  UNL     1      23.952   0.968  52.343  1.00  0.00     0.000 N 
HETATM   14  C10 UNL     1      24.492   0.097  53.325  1.00  0.00     0.018 A 
HETATM   15  C15 UNL     1      25.512   0.725  52.842  1.00  0.00     0.068 A 
HETATM   16  C16 UNL     1      23.995   0.354  52.973  1.00  0.00     0.024 A 
HETATM   17  C11 UNL     1      25.554  -0.531  54.140  1.00  0.00     0.014 A 
HETATM   18  C17 UNL     1      23.427  -0.523  53.784  1.00  0.00    -0.024 A 
HETATM   19  C12 UNL     1      26.579   0.137  53.619  1.00  0.00     0.016 A 
BRANCH  19  20
HETATM   20  N3  UNL     1      27.944   0.181  53.782  1.00  0.00    -0.331 N 
HETATM   21  C13 UNL     1      28.622  -1.031  53.523  1.00  0.00     0.217 C 
HETATM   22  C14 UNL     1      30.084  -1.011  53.711  1.00  0.00     0.117 C 
HETATM   23  O1  UNL     1      28.239  -2.161  53.158  1.00  0.00    -0.274 OA
HETATM   24  H9  UNL     1      28.293   1.108  54.075  1.00  0.00     0.168 HD
ENDBRANCH  19  20
ENDBRANCH   9  11
ENDBRANCH   7   9
TORSDOF 3
ENDMDL
MODEL 8
REMARK VINA RESULT:      -7.3      2.988      7.918
REMARK  3 active torsions:
REMARK  status: ('A' for Active; 'I' for Inactive)
REMARK    1  A    between atoms: C7_7  and  N1_8 
REMARK    2  A    between atoms: N1_8  and  C8_9 
REMARK    3  A    between atoms: C12_14  and  N3_15 
REMARK       I    between atoms: N3_15  and  C13_16 
ROOT
HETATM    1  C1  UNL     1      23.960   8.805  48.142  1.00  0.00     0.018 C 
HETATM    2  C2  UNL     1      24.658   7.887  48.352  1.00  0.00    -0.078 C 
HETATM    3  C3  UNL     1      25.557   6.714  48.594  1.00  0.00     0.019 A 
HETATM    4  C4  UNL     1      26.829   6.870  48.104  1.00  0.00     0.021 A 
HETATM    5  C5  UNL     1      27.634   5.783  48.325  1.00  0.00     0.004 A 
HETATM    6  C6  UNL     1      27.287   4.584  48.975  1.00  0.00     0.029 A 
HETATM    7  C7  UNL     1      25.958   4.572  49.418  1.00  0.00     0.029 A 
HETATM    8  C18 UNL     1      25.065   5.612  49.249  1.00  0.00     0.049 A 
ENDROOT
BRANCH   7   9
HETATM    9  N1  UNL     1      25.509   3.397  50.081  1.00  0.00    -0.381 N 
HETATM   10  H5  UNL     1      25.885   2.459  49.779  1.00  0.00     0.160 HD
BRANCH   9  11
HETATM   11  C8  UNL     1      24.554   3.297  51.175  1.00  0.00     0.118 A 
HETATM   12  C9  UNL     1      23.289   2.689  50.793  1.00  0.00    -0.003 A 
HETATM   13  N2  UNL     1      24.390   2.509  51.570  1.00  0.00     0.000 N 
HETATM   14  C10 UNL     1      24.871   1.590  52.538  1.00  0.00     0.018 A 
HETATM   15  C15 UNL     1      23.710   1.137  52.200  1.00  0.00     0.068 A 
HETATM   16  C16 UNL     1      24.919   2.134  52.166  1.00  0.00     0.024 A 
HETATM   17  C11 UNL     1      24.830   0.394  53.408  1.00  0.00     0.014 A 
HETATM   18  C17 UNL     1      26.046   2.088  52.857  1.00  0.00    -0.024 A 
HETATM   19  C12 UNL     1      23.631  -0.041  53.033  1.00  0.00     0.016 A 
BRANCH  19  20
HETATM   20  N3  UNL     1      22.795  -1.090  53.340  1.00  0.00    -0.331 N 
HETATM   21  C13 UNL     1      21.605  -0.735  54.015  1.00  0.00     0.217 C 
HETATM   22  C14 UNL     1      20.704  -1.847  54.370  1.00  0.00     0.117 C 
HETATM   23  O1  UNL     1      21.132   0.355  54.393  1.00  0.00    -0.274 OA
HETATM   24  H9  UNL     1      23.155  -2.007  53.030  1.00  0.00     0.168 HD
ENDBRANCH  19  20
ENDBRANCH   9  11
ENDBRANCH   7   9
TORSDOF 3
ENDMDL
MODEL 9
REMARK VINA RESULT:      -7.3      3.009      7.350
REMARK  3 active torsions:
REMARK  status: ('A' for Active; 'I' for Inactive)
REMARK    1  A    between atoms: C7_7  and  N1_8 
REMARK    2  A    between atoms: N1_8  and  C8_9 
REMARK    3  A    between atoms: C12_14  and  N3_15 
REMARK       I    between atoms: N3_15  and  C13_16 
ROOT
HETATM    1  C1  UNL     1      20.192   8.397  50.048  1.00  0.00     0.018 C 
HETATM    2  C2  UNL     1      21.309   8.055  50.146  1.00  0.00    -0.078 C 
HETATM    3  C3  UNL     1      22.739   7.623  50.244  1.00  0.00     0.019 A 
HETATM    4  C4  UNL     1      23.635   8.525  49.726  1.00  0.00     0.021 A 
HETATM    5  C5  UNL     1      24.938   8.108  49.815  1.00  0.00     0.004 A 
HETATM    6  C6  UNL     1      25.411   6.901  50.361  1.00  0.00     0.029 A 
HETATM    7  C7  UNL     1      24.381   6.085  50.847  1.00  0.00     0.029 A 
HETATM    8  C18 UNL     1      23.039   6.408  50.808  1.00  0.00     0.049 A 
ENDROOT
BRANCH   7   9
HETATM    9  N1  UNL     1      24.759   4.836  51.411  1.00  0.00    -0.381 N 
HETATM   10  H5  UNL     1      24.991   4.783  52.439  1.00  0.00     0.160 HD
BRANCH   9  11
HETATM   11  C8  UNL     1      24.880   3.551  50.739  1.00  0.00     0.118 A 
HETATM   12  C9  UNL     1      26.242   3.223  50.344  1.00  0.00    -0.003 A 
HETATM   13  N2  UNL     1      25.227   2.841  51.164  1.00  0.00     0.000 N 
HETATM   14  C10 UNL     1      24.932   1.797  52.079  1.00  0.00     0.018 A 
HETATM   15  C15 UNL     1      26.116   1.528  51.639  1.00  0.00     0.068 A 
HETATM   16  C16 UNL     1      24.787   2.350  51.748  1.00  0.00     0.024 A 
HETATM   17  C11 UNL     1      25.184   0.556  52.844  1.00  0.00     0.014 A 
HETATM   18  C17 UNL     1      23.723   2.105  52.496  1.00  0.00    -0.024 A 
HETATM   19  C12 UNL     1      26.401   0.313  52.368  1.00  0.00     0.016 A 
BRANCH  19  20
HETATM   20  N3  UNL     1      27.377  -0.643  52.530  1.00  0.00    -0.331 N 
HETATM   21  C13 UNL     1      28.424  -0.293  53.412  1.00  0.00     0.217 C 
HETATM   22  C14 UNL     1      29.491  -1.296  53.584  1.00  0.00     0.117 C 
HETATM   23  O1  UNL     1      28.655   0.721  54.102  1.00  0.00    -0.274 OA
HETATM   24  H9  UNL     1      27.209  -1.500  51.978  1.00  0.00     0.168 HD
ENDBRANCH  19  20
ENDBRANCH   9  11
ENDBRANCH   7   9
TORSDOF 3
ENDMDL
