MODEL 1
REMARK VINA RESULT:      -8.6      0.000      0.000
REMARK  6 active torsions:
REMARK  status: ('A' for Active; 'I' for Inactive)
REMARK    1  A    between atoms: C2_2  and  C3_3 
REMARK    2  A    between atoms: C3_3  and  N1_5 
REMARK    3  A    between atoms: N1_5  and  C5_6 
REMARK    4  A    between atoms: C15_18  and  N3_19 
REMARK    5  A    between atoms: N3_19  and  C16_20 
REMARK       I    between atoms: N3_19  and  C18_22 
REMARK    6  A    between atoms: C18_22  and  C19_24 
ROOT
HETATM    1  C5  UNL     1      25.118   7.208  50.634  1.00  0.00     0.029 C 
HETATM    2  C6  UNL     1      23.824   7.406  50.937  1.00  0.00     0.026 C 
HETATM    3  C7  UNL     1      22.506   7.300  50.536  1.00  0.00     0.000 C 
HETATM    4  C8  UNL     1      21.297   7.226  50.229  1.00  0.00    -0.001 C 
HETATM    5  C9  UNL     1      20.127   6.954  49.428  1.00  0.00     0.198 C 
HETATM    6  O1  UNL     1      20.537   6.428  48.137  1.00  0.00    -0.341 OA
HETATM    7  C10 UNL     1      21.061   5.146  48.199  1.00  0.00     0.403 A 
HETATM    8  N2  UNL     1      22.388   5.336  47.488  1.00  0.00     0.367 N 
HETATM    9  C11 UNL     1      21.932   4.058  48.044  1.00  0.00     0.376 A 
HETATM   10  C12 UNL     1      22.613   3.877  49.441  1.00  0.00     0.016 A 
HETATM   11  C13 UNL     1      22.413   2.449  49.613  1.00  0.00     0.014 A 
HETATM   12  C14 UNL     1      22.749   1.525  50.641  1.00  0.00     0.030 A 
HETATM   13  C15 UNL     1      23.451   2.223  51.723  1.00  0.00     0.039 A 
HETATM   14  C23 UNL     1      23.726   3.668  51.686  1.00  0.00     0.067 A 
HETATM   15  C24 UNL     1      23.167   3.917  50.504  1.00  0.00     0.080 A 
HETATM   16  O3  UNL     1      23.472   5.338  50.599  1.00  0.00    -0.345 OA
HETATM   17  C25 UNL     1      24.778   5.757  50.375  1.00  0.00     0.232 C 
ENDROOT
BRANCH  13  18
HETATM   18  N3  UNL     1      23.660   1.135  52.670  1.00  0.00    -0.318 N 
HETATM   19  C18 UNL     1      25.053   0.831  52.698  1.00  0.00     0.232 C 
HETATM   20  O2  UNL     1      25.267   1.615  51.707  1.00  0.00    -0.272 OA
BRANCH  18  21
HETATM   21  C16 UNL     1      22.550   0.601  53.407  1.00  0.00     0.128 C 
HETATM   22  C17 UNL     1      22.618  -0.928  53.525  1.00  0.00     0.027 C 
ENDBRANCH  18  21
BRANCH  19  23
HETATM   23  C19 UNL     1      26.229   0.152  53.221  1.00  0.00     0.030 C 
HETATM   24  C20 UNL     1      26.426  -1.232  52.648  1.00  0.00     0.025 C 
HETATM   25  C21 UNL     1      27.484   0.944  52.812  1.00  0.00     0.025 C 
HETATM   26  C22 UNL     1      26.233   0.048  54.726  1.00  0.00     0.025 C 
ENDBRANCH  19  23
ENDBRANCH  13  18
BRANCH   1  27
HETATM   27  N1  UNL     1      26.434   6.961  50.230  1.00  0.00    -0.387 N 
HETATM   28  H10 UNL     1      27.310   6.789  50.765  1.00  0.00     0.159 HD
BRANCH  27  29
HETATM   29  C3  UNL     1      26.451   6.937  48.793  1.00  0.00     0.077 C 
HETATM   30  C4  UNL     1      26.136   8.252  48.166  1.00  0.00     0.032 C 
BRANCH  29  31
HETATM   31  C2  UNL     1      27.712   6.401  48.164  1.00  0.00     0.020 C 
HETATM   32  C1  UNL     1      27.815   4.928  48.590  1.00  0.00     0.007 C 
ENDBRANCH  29  31
ENDBRANCH  27  29
ENDBRANCH   1  27
TORSDOF 6
ENDMDL
MODEL 2
REMARK VINA RESULT:      -7.4      5.322      9.542
REMARK  6 active torsions:
REMARK  status: ('A' for Active; 'I' for Inactive)
REMARK    1  A    between atoms: C2_2  and  C3_3 
REMARK    2  A    between atoms: C3_3  and  N1_5 
REMARK    3  A    between atoms: N1_5  and  C5_6 
REMARK    4  A    between atoms: C15_18  and  N3_19 
REMARK    5  A    between atoms: N3_19  and  C16_20 
REMARK       I    between atoms: N3_19  and  C18_22 
REMARK    6  A    between atoms: C18_22  and  C19_24 
ROOT
HETATM    1  C5  UNL     1      27.213   6.871  48.174  1.00  0.00     0.029 C 
HETATM    2  C6  UNL     1      27.144   7.778  47.186  1.00  0.00     0.026 C 
HETATM    3  C7  UNL     1      27.430   9.063  46.765  1.00  0.00     0.000 C 
HETATM    4  C8  UNL     1      27.664  10.210  46.328  1.00  0.00    -0.001 C 
HETATM    5  C9  UNL     1      28.126  11.579  46.321  1.00  0.00     0.198 C 
HETATM    6  O1  UNL     1      28.692  11.905  47.619  1.00  0.00    -0.341 OA
HETATM    7  C10 UNL     1      29.897  11.269  47.876  1.00  0.00     0.403 A 
HETATM    8  N2  UNL     1      29.606  10.618  49.217  1.00  0.00     0.367 N 
HETATM    9  C11 UNL     1      30.886  10.501  48.509  1.00  0.00     0.376 A 
HETATM   10  C12 UNL     1      30.887   9.133  47.751  1.00  0.00     0.016 A 
HETATM   11  C13 UNL     1      32.313   9.005  47.506  1.00  0.00     0.014 A 
HETATM   12  C14 UNL     1      33.116   8.024  46.860  1.00  0.00     0.030 A 
HETATM   13  C15 UNL     1      32.267   6.936  46.366  1.00  0.00     0.039 A 
HETATM   14  C23 UNL     1      30.806   6.929  46.543  1.00  0.00     0.067 A 
HETATM   15  C24 UNL     1      30.708   8.086  47.193  1.00  0.00     0.080 A 
HETATM   16  O3  UNL     1      29.258   7.977  47.278  1.00  0.00    -0.345 OA
HETATM   17  C25 UNL     1      28.708   7.098  48.204  1.00  0.00     0.232 C 
ENDROOT
BRANCH  13  18
HETATM   18  N3  UNL     1      33.254   6.083  45.715  1.00  0.00    -0.318 N 
HETATM   19  C18 UNL     1      33.509   4.968  46.567  1.00  0.00     0.232 C 
HETATM   20  O2  UNL     1      32.815   5.498  47.506  1.00  0.00    -0.272 OA
BRANCH  18  21
HETATM   21  C16 UNL     1      33.752   6.425  44.413  1.00  0.00     0.128 C 
HETATM   22  C17 UNL     1      33.227   5.475  43.328  1.00  0.00     0.027 C 
ENDBRANCH  18  21
BRANCH  19  23
HETATM   23  C19 UNL     1      34.097   3.674  46.880  1.00  0.00     0.030 C 
HETATM   24  C20 UNL     1      33.089   2.550  46.909  1.00  0.00     0.025 C 
HETATM   25  C21 UNL     1      35.094   3.299  45.768  1.00  0.00     0.025 C 
HETATM   26  C22 UNL     1      34.854   3.668  48.185  1.00  0.00     0.025 C 
ENDBRANCH  19  23
ENDBRANCH  13  18
BRANCH   1  27
HETATM   27  N1  UNL     1      27.334   5.996  49.258  1.00  0.00    -0.387 N 
HETATM   28  H10 UNL     1      27.989   5.968  50.066  1.00  0.00     0.159 HD
BRANCH  27  29
HETATM   29  C3  UNL     1      26.293   5.011  49.142  1.00  0.00     0.077 C 
HETATM   30  C4  UNL     1      26.737   3.626  49.469  1.00  0.00     0.032 C 
BRANCH  29  31
HETATM   31  C2  UNL     1      25.031   5.301  49.915  1.00  0.00     0.020 C 
HETATM   32  C1  UNL     1      23.902   5.394  48.877  1.00  0.00     0.007 C 
ENDBRANCH  29  31
ENDBRANCH  27  29
ENDBRANCH   1  27
TORSDOF 6
ENDMDL
MODEL 3
REMARK VINA RESULT:      -7.4      2.886      7.210
REMARK  6 active torsions:
REMARK  status: ('A' for Active; 'I' for Inactive)
REMARK    1  A    between atoms: C2_2  and  C3_3 
REMARK    2  A    between atoms: C3_3  and  N1_5 
REMARK    3  A    between atoms: N1_5  and  C5_6 
REMARK    4  A    between atoms: C15_18  and  N3_19 
REMARK    5  A    between atoms: N3_19  and  C16_20 
REMARK       I    between atoms: N3_19  and  C18_22 
REMARK    6  A    between atoms: C18_22  and  C19_24 
ROOT
HETATM    1  C5  UNL     1      25.564   2.763  50.261  1.00  0.00     0.029 C 
HETATM    2  C6  UNL     1      24.711   3.229  49.334  1.00  0.00     0.026 C 
HETATM    3  C7  UNL     1      23.832   4.227  48.959  1.00  0.00     0.000 C 
HETATM    4  C8  UNL     1      23.028   5.099  48.566  1.00  0.00    -0.001 C 
HETATM    5  C9  UNL     1      22.230   6.303  48.592  1.00  0.00     0.198 C 
HETATM    6  O1  UNL     1      22.445   6.998  49.850  1.00  0.00    -0.341 OA
HETATM    7  C10 UNL     1      23.704   7.568  49.964  1.00  0.00     0.403 A 
HETATM    8  N2  UNL     1      24.171   6.989  51.287  1.00  0.00     0.367 N 
HETATM    9  C11 UNL     1      24.972   7.900  50.463  1.00  0.00     0.376 A 
HETATM   10  C12 UNL     1      25.976   7.033  49.634  1.00  0.00     0.016 A 
HETATM   11  C13 UNL     1      26.921   8.069  49.256  1.00  0.00     0.014 A 
HETATM   12  C14 UNL     1      28.119   8.077  48.488  1.00  0.00     0.030 A 
HETATM   13  C15 UNL     1      28.411   6.721  48.013  1.00  0.00     0.039 A 
HETATM   14  C23 UNL     1      27.545   5.570  48.320  1.00  0.00     0.067 A 
HETATM   15  C24 UNL     1      26.638   6.228  49.039  1.00  0.00     0.080 A 
HETATM   16  O3  UNL     1      25.850   5.021  49.247  1.00  0.00    -0.345 OA
HETATM   17  C25 UNL     1      26.298   4.082  50.169  1.00  0.00     0.232 C 
ENDROOT
BRANCH  13  18
HETATM   18  N3  UNL     1      29.619   6.951  47.232  1.00  0.00    -0.318 N 
HETATM   19  C18 UNL     1      30.578   5.959  47.593  1.00  0.00     0.232 C 
HETATM   20  O2  UNL     1      29.829   5.550  48.549  1.00  0.00    -0.272 OA
BRANCH  18  21
HETATM   21  C16 UNL     1      29.659   8.012  46.266  1.00  0.00     0.128 C 
HETATM   22  C17 UNL     1      30.888   8.913  46.450  1.00  0.00     0.027 C 
ENDBRANCH  18  21
BRANCH  19  23
HETATM   23  C19 UNL     1      31.842   5.253  47.446  1.00  0.00     0.030 C 
HETATM   24  C20 UNL     1      32.769   5.890  46.437  1.00  0.00     0.025 C 
HETATM   25  C21 UNL     1      32.600   5.306  48.785  1.00  0.00     0.025 C 
HETATM   26  C22 UNL     1      31.670   3.799  47.082  1.00  0.00     0.025 C 
ENDBRANCH  19  23
ENDBRANCH  13  18
BRANCH   1  27
HETATM   27  N1  UNL     1      26.433   2.362  51.280  1.00  0.00    -0.387 N 
HETATM   28  H10 UNL     1      27.464   2.224  51.308  1.00  0.00     0.159 HD
BRANCH  27  29
HETATM   29  C3  UNL     1      25.649   2.158  52.467  1.00  0.00     0.077 C 
HETATM   30  C4  UNL     1      24.647   1.060  52.344  1.00  0.00     0.032 C 
BRANCH  29  31
HETATM   31  C2  UNL     1      26.430   1.948  53.739  1.00  0.00     0.020 C 
HETATM   32  C1  UNL     1      27.912   2.109  53.367  1.00  0.00     0.007 C 
ENDBRANCH  29  31
ENDBRANCH  27  29
ENDBRANCH   1  27
TORSDOF 6
ENDMDL
MODEL 4
REMARK VINA RESULT:      -7.1      4.692      8.148
REMARK  6 active torsions:
REMARK  status: ('A' for Active; 'I' for Inactive)
REMARK    1  A    between atoms: C2_2  and  C3_3 
REMARK    2  A    between atoms: C3_3  and  N1_5 
REMARK    3  A    between atoms: N1_5  and  C5_6 
REMARK    4  A    between atoms: C15_18  and  N3_19 
REMARK    5  A    between atoms: N3_19  and  C16_20 
REMARK       I    between atoms: N3_19  and  C18_22 
REMARK    6  A    between atoms: C18_22  and  C19_24 
ROOT
HETATM    1  C5  UNL     1      32.261   5.615  47.872  1.00  0.00     0.029 C 
HETATM    2  C6  UNL     1      32.360   6.880  48.314  1.00  0.00     0.026 C 
HETATM    3  C7  UNL     1      32.227   8.226  48.028  1.00  0.00     0.000 C 
HETATM    4  C8  UNL     1      32.123   9.455  47.829  1.00  0.00    -0.001 C 
HETATM    5  C9  UNL     1      31.874  10.686  47.116  1.00  0.00     0.198 C 
HETATM    6  O1  UNL     1      31.505  10.383  45.744  1.00  0.00    -0.341 OA
HETATM    7  C10 UNL     1      30.252   9.803  45.620  1.00  0.00     0.403 A 
HETATM    8  N2  UNL     1      30.582   8.560  44.812  1.00  0.00     0.367 N 
HETATM    9  C11 UNL     1      29.231   8.906  45.269  1.00  0.00     0.376 A 
HETATM   10  C12 UNL     1      28.944   8.085  46.569  1.00  0.00     0.016 A 
HETATM   11  C13 UNL     1      27.498   8.208  46.606  1.00  0.00     0.014 A 
HETATM   12  C14 UNL     1      26.492   7.734  47.494  1.00  0.00     0.030 A 
HETATM   13  C15 UNL     1      27.111   6.960  48.574  1.00  0.00     0.039 A 
HETATM   14  C23 UNL     1      28.565   6.749  48.665  1.00  0.00     0.067 A 
HETATM   15  C24 UNL     1      28.904   7.431  47.574  1.00  0.00     0.080 A 
HETATM   16  O3  UNL     1      30.321   7.178  47.791  1.00  0.00    -0.345 OA
HETATM   17  C25 UNL     1      30.828   5.919  47.492  1.00  0.00     0.232 C 
ENDROOT
BRANCH  13  18
HETATM   18  N3  UNL     1      25.944   6.614  49.376  1.00  0.00    -0.318 N 
HETATM   19  C18 UNL     1      25.856   5.192  49.444  1.00  0.00     0.232 C 
HETATM   20  O2  UNL     1      26.797   5.070  48.582  1.00  0.00    -0.272 OA
BRANCH  18  21
HETATM   21  C16 UNL     1      25.146   7.650  49.967  1.00  0.00     0.128 C 
HETATM   22  C17 UNL     1      23.646   7.331  49.902  1.00  0.00     0.027 C 
ENDBRANCH  18  21
BRANCH  19  23
HETATM   23  C19 UNL     1      25.298   3.942  49.939  1.00  0.00     0.030 C 
HETATM   24  C20 UNL     1      24.242   3.358  49.032  1.00  0.00     0.025 C 
HETATM   25  C21 UNL     1      26.417   2.885  49.994  1.00  0.00     0.025 C 
HETATM   26  C22 UNL     1      24.721   4.060  51.328  1.00  0.00     0.025 C 
ENDBRANCH  19  23
ENDBRANCH  13  18
BRANCH   1  27
HETATM   27  N1  UNL     1      32.124   4.336  47.323  1.00  0.00    -0.387 N 
HETATM   28  H10 UNL     1      31.441   3.932  46.650  1.00  0.00     0.159 HD
BRANCH  27  29
HETATM   29  C3  UNL     1      33.197   3.527  47.833  1.00  0.00     0.077 C 
HETATM   30  C4  UNL     1      33.112   2.094  47.430  1.00  0.00     0.032 C 
BRANCH  29  31
HETATM   31  C2  UNL     1      34.589   4.023  47.535  1.00  0.00     0.020 C 
HETATM   32  C1  UNL     1      35.036   3.307  46.251  1.00  0.00     0.007 C 
ENDBRANCH  29  31
ENDBRANCH  27  29
ENDBRANCH   1  27
TORSDOF 6
ENDMDL
MODEL 5
REMARK VINA RESULT:      -7.0      3.602      6.657
REMARK  6 active torsions:
REMARK  status: ('A' for Active; 'I' for Inactive)
REMARK    1  A    between atoms: C2_2  and  C3_3 
REMARK    2  A    between atoms: C3_3  and  N1_5 
REMARK    3  A    between atoms: N1_5  and  C5_6 
REMARK    4  A    between atoms: C15_18  and  N3_19 
REMARK    5  A    between atoms: N3_19  and  C16_20 
REMARK       I    between atoms: N3_19  and  C18_22 
REMARK    6  A    between atoms: C18_22  and  C19_24 
ROOT
HETATM    1  C5  UNL     1      24.182   1.275  53.108  1.00  0.00     0.029 C 
HETATM    2  C6  UNL     1      23.916   2.591  53.138  1.00  0.00     0.026 C 
HETATM    3  C7  UNL     1      23.799   3.771  52.428  1.00  0.00     0.000 C 
HETATM    4  C8  UNL     1      23.677   4.867  51.840  1.00  0.00    -0.001 C 
HETATM    5  C9  UNL     1      23.684   5.818  50.753  1.00  0.00     0.198 C 
HETATM    6  O1  UNL     1      24.073   5.146  49.525  1.00  0.00    -0.341 OA
HETATM    7  C10 UNL     1      23.114   4.269  49.042  1.00  0.00     0.403 A 
HETATM    8  N2  UNL     1      23.930   2.998  48.886  1.00  0.00     0.367 N 
HETATM    9  C11 UNL     1      22.501   3.100  48.566  1.00  0.00     0.376 A 
HETATM   10  C12 UNL     1      21.699   2.535  49.785  1.00  0.00     0.016 A 
HETATM   11  C13 UNL     1      20.419   2.313  49.136  1.00  0.00     0.014 A 
HETATM   12  C14 UNL     1      19.163   1.815  49.583  1.00  0.00     0.030 A 
HETATM   13  C15 UNL     1      19.247   1.464  51.003  1.00  0.00     0.039 A 
HETATM   14  C23 UNL     1      20.479   1.633  51.790  1.00  0.00     0.067 A 
HETATM   15  C24 UNL     1      21.238   2.124  50.813  1.00  0.00     0.080 A 
HETATM   16  O3  UNL     1      22.382   2.272  51.702  1.00  0.00    -0.345 OA
HETATM   17  C25 UNL     1      23.100   1.137  52.060  1.00  0.00     0.232 C 
ENDROOT
BRANCH  13  18
HETATM   18  N3  UNL     1      17.880   1.030  51.266  1.00  0.00    -0.318 N 
HETATM   19  C18 UNL     1      17.086   2.189  51.515  1.00  0.00     0.232 C 
HETATM   20  O2  UNL     1      18.131   2.931  51.526  1.00  0.00    -0.272 OA
BRANCH  18  21
HETATM   21  C16 UNL     1      17.543  -0.363  51.200  1.00  0.00     0.128 C 
HETATM   22  C17 UNL     1      17.681  -1.055  52.563  1.00  0.00     0.027 C 
ENDBRANCH  18  21
BRANCH  19  23
HETATM   23  C19 UNL     1      15.827   2.882  51.743  1.00  0.00     0.030 C 
HETATM   24  C20 UNL     1      15.999   4.247  52.365  1.00  0.00     0.025 C 
HETATM   25  C21 UNL     1      15.147   3.136  50.385  1.00  0.00     0.025 C 
HETATM   26  C22 UNL     1      14.861   2.092  52.590  1.00  0.00     0.025 C 
ENDBRANCH  19  23
ENDBRANCH  13  18
BRANCH   1  27
HETATM   27  N1  UNL     1      24.471  -0.087  52.975  1.00  0.00    -0.387 N 
HETATM   28  H10 UNL     1      23.886  -0.903  52.703  1.00  0.00     0.159 HD
BRANCH  27  29
HETATM   29  C3  UNL     1      25.867  -0.267  53.265  1.00  0.00     0.077 C 
HETATM   30  C4  UNL     1      26.775   0.318  52.237  1.00  0.00     0.032 C 
BRANCH  29  31
HETATM   31  C2  UNL     1      26.319   0.209  54.623  1.00  0.00     0.020 C 
HETATM   32  C1  UNL     1      27.855   0.158  54.609  1.00  0.00     0.007 C 
ENDBRANCH  29  31
ENDBRANCH  27  29
ENDBRANCH   1  27
TORSDOF 6
ENDMDL
MODEL 6
REMARK VINA RESULT:      -7.0      6.022     10.483
REMARK  6 active torsions:
REMARK  status: ('A' for Active; 'I' for Inactive)
REMARK    1  A    between atoms: C2_2  and  C3_3 
REMARK    2  A    between atoms: C3_3  and  N1_5 
REMARK    3  A    between atoms: N1_5  and  C5_6 
REMARK    4  A    between atoms: C15_18  and  N3_19 
REMARK    5  A    between atoms: N3_19  and  C16_20 
REMARK       I    between atoms: N3_19  and  C18_22 
REMARK    6  A    between atoms: C18_22  and  C19_24 
ROOT
HETATM    1  C5  UNL     1      33.863   6.122  48.613  1.00  0.00     0.029 C 
HETATM    2  C6  UNL     1      34.277   7.353  48.270  1.00  0.00     0.026 C 
HETATM    3  C7  UNL     1      34.571   8.239  47.251  1.00  0.00     0.000 C 
HETATM    4  C8  UNL     1      34.850   9.084  46.374  1.00  0.00    -0.001 C 
HETATM    5  C9  UNL     1      35.046   9.638  45.055  1.00  0.00     0.198 C 
HETATM    6  O1  UNL     1      34.754   8.625  44.056  1.00  0.00    -0.341 OA
HETATM    7  C10 UNL     1      33.407   8.309  43.961  1.00  0.00     0.403 A 
HETATM    8  N2  UNL     1      33.447   6.800  44.117  1.00  0.00     0.367 N 
HETATM    9  C11 UNL     1      32.214   7.572  43.928  1.00  0.00     0.376 A 
HETATM   10  C12 UNL     1      31.564   7.783  45.335  1.00  0.00     0.016 A 
HETATM   11  C13 UNL     1      30.220   8.141  44.918  1.00  0.00     0.014 A 
HETATM   12  C14 UNL     1      29.031   8.487  45.619  1.00  0.00     0.030 A 
HETATM   13  C15 UNL     1      29.280   8.448  47.064  1.00  0.00     0.039 A 
HETATM   14  C23 UNL     1      30.592   8.099  47.633  1.00  0.00     0.067 A 
HETATM   15  C24 UNL     1      31.229   7.900  46.481  1.00  0.00     0.080 A 
HETATM   16  O3  UNL     1      32.480   7.602  47.162  1.00  0.00    -0.345 OA
HETATM   17  C25 UNL     1      32.629   6.362  47.772  1.00  0.00     0.232 C 
ENDROOT
BRANCH  13  18
HETATM   18  N3  UNL     1      27.984   8.867  47.583  1.00  0.00    -0.318 N 
HETATM   19  C18 UNL     1      27.303   7.710  48.065  1.00  0.00     0.232 C 
HETATM   20  O2  UNL     1      28.208   6.946  47.575  1.00  0.00    -0.272 OA
BRANCH  18  21
HETATM   21  C16 UNL     1      27.624  10.257  47.581  1.00  0.00     0.128 C 
HETATM   22  C17 UNL     1      28.346  11.041  48.685  1.00  0.00     0.027 C 
ENDBRANCH  18  21
BRANCH  19  23
HETATM   23  C19 UNL     1      26.217   7.029  48.753  1.00  0.00     0.030 C 
HETATM   24  C20 UNL     1      24.910   7.072  47.997  1.00  0.00     0.025 C 
HETATM   25  C21 UNL     1      26.566   5.535  48.878  1.00  0.00     0.025 C 
HETATM   26  C22 UNL     1      25.977   7.554  50.147  1.00  0.00     0.025 C 
ENDBRANCH  19  23
ENDBRANCH  13  18
BRANCH   1  27
HETATM   27  N1  UNL     1      33.421   4.820  48.872  1.00  0.00    -0.387 N 
HETATM   28  H10 UNL     1      32.985   4.382  49.708  1.00  0.00     0.159 HD
BRANCH  27  29
HETATM   29  C3  UNL     1      33.633   4.044  47.681  1.00  0.00     0.077 C 
HETATM   30  C4  UNL     1      35.071   3.807  47.366  1.00  0.00     0.032 C 
BRANCH  29  31
HETATM   31  C2  UNL     1      32.911   2.721  47.625  1.00  0.00     0.020 C 
HETATM   32  C1  UNL     1      31.939   2.810  46.439  1.00  0.00     0.007 C 
ENDBRANCH  29  31
ENDBRANCH  27  29
ENDBRANCH   1  27
TORSDOF 6
ENDMDL
MODEL 7
REMARK VINA RESULT:      -7.0      2.182      4.909
REMARK  6 active torsions:
REMARK  status: ('A' for Active; 'I' for Inactive)
REMARK    1  A    between atoms: C2_2  and  C3_3 
REMARK    2  A    between atoms: C3_3  and  N1_5 
REMARK    3  A    between atoms: N1_5  and  C5_6 
REMARK    4  A    between atoms: C15_18  and  N3_19 
REMARK    5  A    between atoms: N3_19  and  C16_20 
REMARK       I    between atoms: N3_19  and  C18_22 
REMARK    6  A    between atoms: C18_22  and  C19_24 
ROOT
HETATM    1  C5  UNL     1      20.406   2.972  47.446  1.00  0.00     0.029 C 
HETATM    2  C6  UNL     1      21.603   3.551  47.258  1.00  0.00     0.026 C 
HETATM    3  C7  UNL     1      22.467   4.574  47.601  1.00  0.00     0.000 C 
HETATM    4  C8  UNL     1      23.290   5.474  47.871  1.00  0.00    -0.001 C 
HETATM    5  C9  UNL     1      23.831   6.659  48.496  1.00  0.00     0.198 C 
HETATM    6  O1  UNL     1      22.845   7.220  49.403  1.00  0.00    -0.341 OA
HETATM    7  C10 UNL     1      22.632   6.453  50.538  1.00  0.00     0.403 A 
HETATM    8  N2  UNL     1      21.123   6.287  50.503  1.00  0.00     0.367 N 
HETATM    9  C11 UNL     1      21.987   5.713  51.541  1.00  0.00     0.376 A 
HETATM   10  C12 UNL     1      22.243   4.215  51.171  1.00  0.00     0.016 A 
HETATM   11  C13 UNL     1      22.703   3.733  52.461  1.00  0.00     0.014 A 
HETATM   12  C14 UNL     1      23.136   2.465  52.941  1.00  0.00     0.030 A 
HETATM   13  C15 UNL     1      23.075   1.479  51.859  1.00  0.00     0.039 A 
HETATM   14  C23 UNL     1      22.627   1.822  50.499  1.00  0.00     0.067 A 
HETATM   15  C24 UNL     1      22.383   3.112  50.721  1.00  0.00     0.080 A 
HETATM   16  O3  UNL     1      21.989   3.331  49.336  1.00  0.00    -0.345 OA
HETATM   17  C25 UNL     1      20.740   2.886  48.919  1.00  0.00     0.232 C 
ENDROOT
BRANCH  13  18
HETATM   18  N3  UNL     1      23.589   0.292  52.530  1.00  0.00    -0.318 N 
HETATM   19  C18 UNL     1      25.012   0.388  52.574  1.00  0.00     0.232 C 
HETATM   20  O2  UNL     1      24.989   1.420  51.814  1.00  0.00    -0.272 OA
BRANCH  18  21
HETATM   21  C16 UNL     1      22.681  -0.692  53.046  1.00  0.00     0.128 C 
HETATM   22  C17 UNL     1      22.841  -0.886  54.560  1.00  0.00     0.027 C 
ENDBRANCH  18  21
BRANCH  19  23
HETATM   23  C19 UNL     1      26.335  -0.047  52.995  1.00  0.00     0.030 C 
HETATM   24  C20 UNL     1      27.446   0.847  52.498  1.00  0.00     0.025 C 
HETATM   25  C21 UNL     1      26.415   0.020  54.532  1.00  0.00     0.025 C 
HETATM   26  C22 UNL     1      26.649  -1.466  52.590  1.00  0.00     0.025 C 
ENDBRANCH  19  23
ENDBRANCH  13  18
BRANCH   1  27
HETATM   27  N1  UNL     1      19.141   2.438  47.713  1.00  0.00    -0.387 N 
HETATM   28  H10 UNL     1      18.783   1.462  47.736  1.00  0.00     0.159 HD
BRANCH  27  29
HETATM   29  C3  UNL     1      18.264   3.533  48.028  1.00  0.00     0.077 C 
HETATM   30  C4  UNL     1      17.887   4.360  46.846  1.00  0.00     0.032 C 
BRANCH  29  31
HETATM   31  C2  UNL     1      17.005   3.169  48.774  1.00  0.00     0.020 C 
HETATM   32  C1  UNL     1      17.208   1.735  49.288  1.00  0.00     0.007 C 
ENDBRANCH  29  31
ENDBRANCH  27  29
ENDBRANCH   1  27
TORSDOF 6
ENDMDL
MODEL 8
REMARK VINA RESULT:      -7.0      2.514      7.248
REMARK  6 active torsions:
REMARK  status: ('A' for Active; 'I' for Inactive)
REMARK    1  A    between atoms: C2_2  and  C3_3 
REMARK    2  A    between atoms: C3_3  and  N1_5 
REMARK    3  A    between atoms: N1_5  and  C5_6 
REMARK    4  A    between atoms: C15_18  and  N3_19 
REMARK    5  A    between atoms: N3_19  and  C16_20 
REMARK       I    between atoms: N3_19  and  C18_22 
REMARK    6  A    between atoms: C18_22  and  C19_24 
ROOT
HETATM    1  C5  UNL     1      25.761   2.954  50.498  1.00  0.00     0.029 C 
HETATM    2  C6  UNL     1      24.753   2.872  49.613  1.00  0.00     0.026 C 
HETATM    3  C7  UNL     1      23.477   3.272  49.263  1.00  0.00     0.000 C 
HETATM    4  C8  UNL     1      22.329   3.598  48.894  1.00  0.00    -0.001 C 
HETATM    5  C9  UNL     1      21.036   4.241  48.932  1.00  0.00     0.198 C 
HETATM    6  O1  UNL     1      20.921   5.026  50.149  1.00  0.00    -0.341 OA
HETATM    7  C10 UNL     1      21.726   6.155  50.161  1.00  0.00     0.403 A 
HETATM    8  N2  UNL     1      22.473   5.970  51.470  1.00  0.00     0.367 N 
HETATM    9  C11 UNL     1      22.674   7.107  50.564  1.00  0.00     0.376 A 
HETATM   10  C12 UNL     1      23.944   6.809  49.702  1.00  0.00     0.016 A 
HETATM   11  C13 UNL     1      24.224   8.153  49.228  1.00  0.00     0.014 A 
HETATM   12  C14 UNL     1      25.224   8.712  48.384  1.00  0.00     0.030 A 
HETATM   13  C15 UNL     1      26.139   7.657  47.937  1.00  0.00     0.039 A 
HETATM   14  C23 UNL     1      25.982   6.250  48.338  1.00  0.00     0.067 A 
HETATM   15  C24 UNL     1      24.897   6.408  49.092  1.00  0.00     0.080 A 
HETATM   16  O3  UNL     1      24.832   4.984  49.392  1.00  0.00    -0.345 OA
HETATM   17  C25 UNL     1      25.727   4.455  50.314  1.00  0.00     0.232 C 
ENDROOT
BRANCH  13  18
HETATM   18  N3  UNL     1      27.036   8.413  47.071  1.00  0.00    -0.318 N 
HETATM   19  C18 UNL     1      28.334   8.407  47.662  1.00  0.00     0.232 C 
HETATM   20  O2  UNL     1      27.872   7.863  48.727  1.00  0.00    -0.272 OA
BRANCH  18  21
HETATM   21  C16 UNL     1      26.549   8.966  45.840  1.00  0.00     0.128 C 
HETATM   22  C17 UNL     1      27.471   8.641  44.657  1.00  0.00     0.027 C 
ENDBRANCH  18  21
BRANCH  19  23
HETATM   23  C19 UNL     1      29.764   8.679  47.671  1.00  0.00     0.030 C 
HETATM   24  C20 UNL     1      30.123  10.011  47.055  1.00  0.00     0.025 C 
HETATM   25  C21 UNL     1      30.245   8.763  49.131  1.00  0.00     0.025 C 
HETATM   26  C22 UNL     1      30.576   7.605  46.989  1.00  0.00     0.025 C 
ENDBRANCH  19  23
ENDBRANCH  13  18
BRANCH   1  27
HETATM   27  N1  UNL     1      26.753   3.106  51.471  1.00  0.00    -0.387 N 
HETATM   28  H10 UNL     1      27.519   3.799  51.588  1.00  0.00     0.159 HD
BRANCH  27  29
HETATM   29  C3  UNL     1      26.561   2.074  52.454  1.00  0.00     0.077 C 
HETATM   30  C4  UNL     1      25.349   2.268  53.300  1.00  0.00     0.032 C 
BRANCH  29  31
HETATM   31  C2  UNL     1      26.550   0.662  51.925  1.00  0.00     0.020 C 
HETATM   32  C1  UNL     1      25.485  -0.093  52.736  1.00  0.00     0.007 C 
ENDBRANCH  29  31
ENDBRANCH  27  29
ENDBRANCH   1  27
TORSDOF 6
ENDMDL
MODEL 9
REMARK VINA RESULT:      -6.9      4.251      7.526
REMARK  6 active torsions:
REMARK  status: ('A' for Active; 'I' for Inactive)
REMARK    1  A    between atoms: C2_2  and  C3_3 
REMARK    2  A    between atoms: C3_3  and  N1_5 
REMARK    3  A    between atoms: N1_5  and  C5_6 
REMARK    4  A    between atoms: C15_18  and  N3_19 
REMARK    5  A    between atoms: N3_19  and  C16_20 
REMARK       I    between atoms: N3_19  and  C18_22 
REMARK    6  A    between atoms: C18_22  and  C19_24 
ROOT
HETATM    1  C5  UNL     1      31.437   7.998  49.385  1.00  0.00     0.029 C 
HETATM    2  C6  UNL     1      30.983   9.248  49.574  1.00  0.00     0.026 C 
HETATM    3  C7  UNL     1      30.523  10.417  48.999  1.00  0.00     0.000 C 
HETATM    4  C8  UNL     1      30.099  11.498  48.537  1.00  0.00    -0.001 C 
HETATM    5  C9  UNL     1      29.705  12.477  47.551  1.00  0.00     0.198 C 
HETATM    6  O1  UNL     1      29.899  11.928  46.220  1.00  0.00    -0.341 OA
HETATM    7  C10 UNL     1      29.003  10.921  45.897  1.00  0.00     0.403 A 
HETATM    8  N2  UNL     1      29.947   9.813  45.469  1.00  0.00     0.367 N 
HETATM    9  C11 UNL     1      28.486   9.684  45.483  1.00  0.00     0.376 A 
HETATM   10  C12 UNL     1      28.086   8.946  46.803  1.00  0.00     0.016 A 
HETATM   11  C13 UNL     1      26.741   8.535  46.441  1.00  0.00     0.014 A 
HETATM   12  C14 UNL     1      25.716   7.816  47.116  1.00  0.00     0.030 A 
HETATM   13  C15 UNL     1      26.180   7.430  48.452  1.00  0.00     0.039 A 
HETATM   14  C23 UNL     1      27.520   7.775  48.955  1.00  0.00     0.067 A 
HETATM   15  C24 UNL     1      27.946   8.424  47.874  1.00  0.00     0.080 A 
HETATM   16  O3  UNL     1      29.227   8.729  48.495  1.00  0.00    -0.345 OA
HETATM   17  C25 UNL     1      30.177   7.718  48.597  1.00  0.00     0.232 C 
ENDROOT
BRANCH  13  18
HETATM   18  N3  UNL     1      24.997   6.762  48.979  1.00  0.00    -0.318 N 
HETATM   19  C18 UNL     1      25.329   5.396  49.222  1.00  0.00     0.232 C 
HETATM   20  O2  UNL     1      26.465   5.546  48.648  1.00  0.00    -0.272 OA
BRANCH  18  21
HETATM   21  C16 UNL     1      23.791   7.507  49.201  1.00  0.00     0.128 C 
HETATM   22  C17 UNL     1      23.565   7.807  50.689  1.00  0.00     0.027 C 
ENDBRANCH  18  21
BRANCH  19  23
HETATM   23  C19 UNL     1      25.059   4.061  49.734  1.00  0.00     0.030 C 
HETATM   24  C20 UNL     1      23.992   3.327  48.957  1.00  0.00     0.025 C 
HETATM   25  C21 UNL     1      26.332   3.206  49.585  1.00  0.00     0.025 C 
HETATM   26  C22 UNL     1      24.678   4.051  51.193  1.00  0.00     0.025 C 
ENDBRANCH  19  23
ENDBRANCH  13  18
BRANCH   1  27
HETATM   27  N1  UNL     1      31.895   6.710  49.089  1.00  0.00    -0.387 N 
HETATM   28  H10 UNL     1      31.658   5.775  49.479  1.00  0.00     0.159 HD
BRANCH  27  29
HETATM   29  C3  UNL     1      32.843   6.822  48.015  1.00  0.00     0.077 C 
HETATM   30  C4  UNL     1      34.216   7.197  48.461  1.00  0.00     0.032 C 
BRANCH  29  31
HETATM   31  C2  UNL     1      32.951   5.620  47.110  1.00  0.00     0.020 C 
HETATM   32  C1  UNL     1      32.042   4.540  47.717  1.00  0.00     0.007 C 
ENDBRANCH  29  31
ENDBRANCH  27  29
ENDBRANCH   1  27
TORSDOF 6
ENDMDL
