MODEL 1
REMARK VINA RESULT:      -9.0      0.000      0.000
REMARK  2 active torsions:
REMARK  status: ('A' for Active; 'I' for Inactive)
REMARK    1  A    between atoms: C5_6  and  N1_7 
REMARK    2  A    between atoms: N1_7  and  C6_8 
ROOT
HETATM    1  C6  UNL     1      22.121   1.280  52.695  1.00  0.00     0.142 A 
HETATM    2  N2  UNL     1      21.124   0.475  53.120  1.00  0.00    -0.224 NA
HETATM    3  C7  UNL     1      21.411  -0.714  53.735  1.00  0.00     0.236 A 
HETATM    4  N3  UNL     1      22.708  -1.094  53.923  1.00  0.00    -0.241 NA
HETATM    5  C8  UNL     1      23.665  -0.277  53.492  1.00  0.00     0.075 A 
HETATM    6  C9  UNL     1      24.973  -0.663  53.681  1.00  0.00     0.071 A 
HETATM    7  C10 UNL     1      26.035   0.078  53.286  1.00  0.00     0.099 A 
HETATM    8  C11 UNL     1      25.868   1.317  52.644  1.00  0.00     0.088 A 
HETATM    9  C12 UNL     1      24.525   1.667  52.474  1.00  0.00     0.052 A 
HETATM   10  C13 UNL     1      23.440   0.928  52.868  1.00  0.00     0.041 A 
HETATM   11  N4  UNL     1      26.833   2.265  52.135  1.00  0.00    -0.264 N 
HETATM   12  O1  UNL     1      28.061   1.725  52.428  1.00  0.00    -0.278 OA
HETATM   13  C14 UNL     1      28.638   2.482  53.439  1.00  0.00     0.227 C 
HETATM   14  C15 UNL     1      29.021   1.644  54.625  1.00  0.00     0.196 C 
HETATM   15  O2  UNL     1      29.910   0.686  54.357  1.00  0.00    -0.387 OA
HETATM   16  C16 UNL     1      29.712  -0.230  53.391  1.00  0.00     0.194 C 
HETATM   17  C17 UNL     1      28.356  -0.937  53.457  1.00  0.00     0.201 C 
HETATM   18  O3  UNL     1      27.337  -0.039  53.335  1.00  0.00    -0.347 OA
HETATM   19  H8  UNL     1      26.475   3.120  51.676  1.00  0.00     0.194 HD
ENDROOT
BRANCH   1  20
HETATM   20  N1  UNL     1      21.869   2.538  52.039  1.00  0.00    -0.340 N 
HETATM   21  H4  UNL     1      21.598   3.335  52.623  1.00  0.00     0.167 HD
BRANCH  20  22
HETATM   22  C5  UNL     1      22.014   2.600  50.614  1.00  0.00     0.035 A 
HETATM   23  C4  UNL     1      21.786   1.528  49.795  1.00  0.00     0.029 A 
HETATM   24  C3  UNL     1      21.904   1.559  48.419  1.00  0.00     0.004 A 
HETATM   25  C2  UNL     1      22.282   2.780  47.850  1.00  0.00     0.019 A 
HETATM   26  C1  UNL     1      22.526   3.903  48.646  1.00  0.00     0.013 A 
HETATM   27 BR1  UNL     1      23.043   5.568  47.833  1.00  0.00    -0.051 Br
HETATM   28  C18 UNL     1      22.385   3.785  50.012  1.00  0.00     0.048 A 
ENDBRANCH  20  22
ENDBRANCH   1  20
TORSDOF 2
ENDMDL
MODEL 2
REMARK VINA RESULT:      -8.9      2.070      2.667
REMARK  2 active torsions:
REMARK  status: ('A' for Active; 'I' for Inactive)
REMARK    1  A    between atoms: C5_6  and  N1_7 
REMARK    2  A    between atoms: N1_7  and  C6_8 
ROOT
HETATM    1  C6  UNL     1      22.477   3.934  52.288  1.00  0.00     0.142 A 
HETATM    2  N2  UNL     1      21.155   3.671  52.348  1.00  0.00    -0.224 NA
HETATM    3  C7  UNL     1      20.714   2.395  52.570  1.00  0.00     0.236 A 
HETATM    4  N3  UNL     1      21.609   1.378  52.731  1.00  0.00    -0.241 NA
HETATM    5  C8  UNL     1      22.904   1.672  52.666  1.00  0.00     0.075 A 
HETATM    6  C9  UNL     1      23.806   0.644  52.827  1.00  0.00     0.071 A 
HETATM    7  C10 UNL     1      25.148   0.813  52.781  1.00  0.00     0.099 A 
HETATM    8  C11 UNL     1      25.721   2.078  52.558  1.00  0.00     0.088 A 
HETATM    9  C12 UNL     1      24.769   3.089  52.401  1.00  0.00     0.052 A 
HETATM   10  C13 UNL     1      23.408   2.933  52.446  1.00  0.00     0.041 A 
HETATM   11  N4  UNL     1      27.102   2.495  52.463  1.00  0.00    -0.264 N 
HETATM   12  O1  UNL     1      27.841   1.355  52.666  1.00  0.00    -0.278 OA
HETATM   13  C14 UNL     1      28.450   1.449  53.911  1.00  0.00     0.227 C 
HETATM   14  C15 UNL     1      28.120   0.278  54.792  1.00  0.00     0.196 C 
HETATM   15  O2  UNL     1      28.505  -0.902  54.304  1.00  0.00    -0.387 OA
HETATM   16  C16 UNL     1      28.138  -1.330  53.082  1.00  0.00     0.194 C 
HETATM   17  C17 UNL     1      26.635  -1.245  52.807  1.00  0.00     0.201 C 
HETATM   18  O3  UNL     1      26.200   0.045  52.895  1.00  0.00    -0.347 OA
HETATM   19  H8  UNL     1      27.293   3.494  52.274  1.00  0.00     0.194 HD
ENDROOT
BRANCH   1  20
HETATM   20  N1  UNL     1      22.990   5.260  52.052  1.00  0.00    -0.340 N 
HETATM   21  H4  UNL     1      23.144   5.864  52.865  1.00  0.00     0.167 HD
BRANCH  20  22
HETATM   22  C5  UNL     1      23.255   5.654  50.700  1.00  0.00     0.035 A 
HETATM   23  C4  UNL     1      22.268   5.834  49.769  1.00  0.00     0.029 A 
HETATM   24  C3  UNL     1      22.490   6.225  48.463  1.00  0.00     0.004 A 
HETATM   25  C2  UNL     1      23.820   6.446  48.092  1.00  0.00     0.019 A 
HETATM   26  C1  UNL     1      24.863   6.276  49.008  1.00  0.00     0.013 A 
HETATM   27 BR1  UNL     1      26.682   6.591  48.467  1.00  0.00    -0.051 Br
HETATM   28  C18 UNL     1      24.553   5.883  50.292  1.00  0.00     0.048 A 
ENDBRANCH  20  22
ENDBRANCH   1  20
TORSDOF 2
ENDMDL
MODEL 3
REMARK VINA RESULT:      -8.3      5.507      7.965
REMARK  2 active torsions:
REMARK  status: ('A' for Active; 'I' for Inactive)
REMARK    1  A    between atoms: C5_6  and  N1_7 
REMARK    2  A    between atoms: N1_7  and  C6_8 
ROOT
HETATM    1  C6  UNL     1      23.976   4.609  50.337  1.00  0.00     0.142 A 
HETATM    2  N2  UNL     1      23.107   3.850  49.638  1.00  0.00    -0.224 NA
HETATM    3  C7  UNL     1      22.708   4.231  48.386  1.00  0.00     0.236 A 
HETATM    4  N3  UNL     1      23.186   5.385  47.835  1.00  0.00    -0.241 NA
HETATM    5  C8  UNL     1      24.041   6.109  48.551  1.00  0.00     0.075 A 
HETATM    6  C9  UNL     1      24.521   7.273  47.995  1.00  0.00     0.071 A 
HETATM    7  C10 UNL     1      25.393   8.097  48.623  1.00  0.00     0.099 A 
HETATM    8  C11 UNL     1      25.874   7.812  49.912  1.00  0.00     0.088 A 
HETATM    9  C12 UNL     1      25.360   6.622  50.436  1.00  0.00     0.052 A 
HETATM   10  C13 UNL     1      24.479   5.778  49.813  1.00  0.00     0.041 A 
HETATM   11  N4  UNL     1      26.789   8.532  50.769  1.00  0.00    -0.264 N 
HETATM   12  O1  UNL     1      27.169   9.637  50.047  1.00  0.00    -0.278 OA
HETATM   13  C14 UNL     1      28.494   9.468  49.663  1.00  0.00     0.227 C 
HETATM   14  C15 UNL     1      28.671   9.585  48.177  1.00  0.00     0.196 C 
HETATM   15  O2  UNL     1      28.310  10.765  47.671  1.00  0.00    -0.387 OA
HETATM   16  C16 UNL     1      27.087  11.290  47.872  1.00  0.00     0.194 C 
HETATM   17  C17 UNL     1      25.930  10.338  47.556  1.00  0.00     0.201 C 
HETATM   18  O3  UNL     1      25.992   9.225  48.343  1.00  0.00    -0.347 OA
HETATM   19  H8  UNL     1      26.991   8.135  51.703  1.00  0.00     0.194 HD
ENDROOT
BRANCH   1  20
HETATM   20  N1  UNL     1      24.422   4.251  51.660  1.00  0.00    -0.340 N 
HETATM   21  H4  UNL     1      24.373   4.969  52.390  1.00  0.00     0.167 HD
BRANCH  20  22
HETATM   22  C5  UNL     1      24.904   2.919  51.876  1.00  0.00     0.035 A 
HETATM   23  C4  UNL     1      26.136   2.495  51.455  1.00  0.00     0.029 A 
HETATM   24  C3  UNL     1      26.634   1.223  51.658  1.00  0.00     0.004 A 
HETATM   25  C2  UNL     1      25.807   0.328  52.344  1.00  0.00     0.019 A 
HETATM   26  C1  UNL     1      24.541   0.715  52.794  1.00  0.00     0.013 A 
HETATM   27 BR1  UNL     1      23.427  -0.540  53.736  1.00  0.00    -0.051 Br
HETATM   28  C18 UNL     1      24.120   2.004  52.548  1.00  0.00     0.048 A 
ENDBRANCH  20  22
ENDBRANCH   1  20
TORSDOF 2
ENDMDL
MODEL 4
REMARK VINA RESULT:      -8.1      4.770      6.985
REMARK  2 active torsions:
REMARK  status: ('A' for Active; 'I' for Inactive)
REMARK    1  A    between atoms: C5_6  and  N1_7 
REMARK    2  A    between atoms: N1_7  and  C6_8 
ROOT
HETATM    1  C6  UNL     1      23.172   3.919  50.661  1.00  0.00     0.142 A 
HETATM    2  N2  UNL     1      21.949   4.127  51.193  1.00  0.00    -0.224 NA
HETATM    3  C7  UNL     1      21.542   5.393  51.517  1.00  0.00     0.236 A 
HETATM    4  N3  UNL     1      22.373   6.455  51.307  1.00  0.00    -0.241 NA
HETATM    5  C8  UNL     1      23.571   6.215  50.782  1.00  0.00     0.075 A 
HETATM    6  C9  UNL     1      24.408   7.287  50.572  1.00  0.00     0.071 A 
HETATM    7  C10 UNL     1      25.651   7.174  50.047  1.00  0.00     0.099 A 
HETATM    8  C11 UNL     1      26.179   5.925  49.674  1.00  0.00     0.088 A 
HETATM    9  C12 UNL     1      25.295   4.867  49.905  1.00  0.00     0.052 A 
HETATM   10  C13 UNL     1      24.035   4.967  50.435  1.00  0.00     0.041 A 
HETATM   11  N4  UNL     1      27.459   5.562  49.109  1.00  0.00    -0.264 N 
HETATM   12  O1  UNL     1      28.138   6.746  48.957  1.00  0.00    -0.278 OA
HETATM   13  C14 UNL     1      28.213   7.030  47.598  1.00  0.00     0.227 C 
HETATM   14  C15 UNL     1      27.650   8.383  47.272  1.00  0.00     0.196 C 
HETATM   15  O2  UNL     1      28.271   9.398  47.875  1.00  0.00    -0.387 OA
HETATM   16  C16 UNL     1      28.432   9.452  49.210  1.00  0.00     0.194 C 
HETATM   17  C17 UNL     1      27.147   9.224  50.011  1.00  0.00     0.201 C 
HETATM   18  O3  UNL     1      26.627   7.991  49.748  1.00  0.00    -0.347 OA
HETATM   19  H8  UNL     1      27.641   4.560  48.928  1.00  0.00     0.194 HD
ENDROOT
BRANCH   1  20
HETATM   20  N1  UNL     1      23.646   2.605  50.307  1.00  0.00    -0.340 N 
HETATM   21  H4  UNL     1      23.657   2.354  49.314  1.00  0.00     0.167 HD
BRANCH  20  22
HETATM   22  C5  UNL     1      24.072   1.732  51.360  1.00  0.00     0.035 A 
HETATM   23  C4  UNL     1      25.382   1.604  51.738  1.00  0.00     0.029 A 
HETATM   24  C3  UNL     1      25.823   0.782  52.756  1.00  0.00     0.004 A 
HETATM   25  C2  UNL     1      24.847   0.042  53.432  1.00  0.00     0.019 A 
HETATM   26  C1  UNL     1      23.497   0.140  53.083  1.00  0.00     0.013 A 
HETATM   27 BR1  UNL     1      22.178  -0.890  54.034  1.00  0.00    -0.051 Br
HETATM   28  C18 UNL     1      23.142   0.984  52.053  1.00  0.00     0.048 A 
ENDBRANCH  20  22
ENDBRANCH   1  20
TORSDOF 2
ENDMDL
MODEL 5
REMARK VINA RESULT:      -8.0      4.110      6.916
REMARK  2 active torsions:
REMARK  status: ('A' for Active; 'I' for Inactive)
REMARK    1  A    between atoms: C5_6  and  N1_7 
REMARK    2  A    between atoms: N1_7  and  C6_8 
ROOT
HETATM    1  C6  UNL     1      22.902   2.212  51.553  1.00  0.00     0.142 A 
HETATM    2  N2  UNL     1      22.302   1.176  50.930  1.00  0.00    -0.224 NA
HETATM    3  C7  UNL     1      21.869   1.303  49.638  1.00  0.00     0.236 A 
HETATM    4  N3  UNL     1      22.042   2.480  48.969  1.00  0.00    -0.241 NA
HETATM    5  C8  UNL     1      22.637   3.480  49.612  1.00  0.00     0.075 A 
HETATM    6  C9  UNL     1      22.809   4.667  48.937  1.00  0.00     0.071 A 
HETATM    7  C10 UNL     1      23.397   5.759  49.481  1.00  0.00     0.099 A 
HETATM    8  C11 UNL     1      23.881   5.750  50.801  1.00  0.00     0.088 A 
HETATM    9  C12 UNL     1      23.685   4.526  51.446  1.00  0.00     0.052 A 
HETATM   10  C13 UNL     1      23.093   3.414  50.909  1.00  0.00     0.041 A 
HETATM   11  N4  UNL     1      24.529   6.777  51.585  1.00  0.00    -0.264 N 
HETATM   12  O1  UNL     1      24.628   7.863  50.750  1.00  0.00    -0.278 OA
HETATM   13  C14 UNL     1      25.964   8.024  50.406  1.00  0.00     0.227 C 
HETATM   14  C15 UNL     1      26.168   8.031  48.918  1.00  0.00     0.196 C 
HETATM   15  O2  UNL     1      25.523   9.009  48.279  1.00  0.00    -0.387 OA
HETATM   16  C16 UNL     1      24.197   9.197  48.403  1.00  0.00     0.194 C 
HETATM   17  C17 UNL     1      23.355   7.938  48.179  1.00  0.00     0.201 C 
HETATM   18  O3  UNL     1      23.681   6.973  49.086  1.00  0.00    -0.347 OA
HETATM   19  H8  UNL     1      24.789   6.550  52.560  1.00  0.00     0.194 HD
ENDROOT
BRANCH   1  20
HETATM   20  N1  UNL     1      23.370   2.128  52.913  1.00  0.00    -0.340 N 
HETATM   21  H4  UNL     1      22.823   2.606  53.636  1.00  0.00     0.167 HD
BRANCH  20  22
HETATM   22  C5  UNL     1      24.566   1.384  53.174  1.00  0.00     0.035 A 
HETATM   23  C4  UNL     1      24.581   0.023  53.319  1.00  0.00     0.029 A 
HETATM   24  C3  UNL     1      25.717  -0.724  53.558  1.00  0.00     0.004 A 
HETATM   25  C2  UNL     1      26.922  -0.019  53.653  1.00  0.00     0.019 A 
HETATM   26  C1  UNL     1      26.958   1.371  53.511  1.00  0.00     0.013 A 
HETATM   27 BR1  UNL     1      28.631   2.312  53.645  1.00  0.00    -0.051 Br
HETATM   28  C18 UNL     1      25.776   2.040  53.275  1.00  0.00     0.048 A 
ENDBRANCH  20  22
ENDBRANCH   1  20
TORSDOF 2
ENDMDL
MODEL 6
REMARK VINA RESULT:      -8.0      4.803      6.951
REMARK  2 active torsions:
REMARK  status: ('A' for Active; 'I' for Inactive)
REMARK    1  A    between atoms: C5_6  and  N1_7 
REMARK    2  A    between atoms: N1_7  and  C6_8 
ROOT
HETATM    1  C6  UNL     1      23.185   4.059  50.442  1.00  0.00     0.142 A 
HETATM    2  N2  UNL     1      21.961   4.327  50.943  1.00  0.00    -0.224 NA
HETATM    3  C7  UNL     1      21.607   5.613  51.250  1.00  0.00     0.236 A 
HETATM    4  N3  UNL     1      22.491   6.634  51.051  1.00  0.00    -0.241 NA
HETATM    5  C8  UNL     1      23.688   6.334  50.556  1.00  0.00     0.075 A 
HETATM    6  C9  UNL     1      24.579   7.364  50.358  1.00  0.00     0.071 A 
HETATM    7  C10 UNL     1      25.827   7.189  49.862  1.00  0.00     0.099 A 
HETATM    8  C11 UNL     1      26.305   5.915  49.511  1.00  0.00     0.088 A 
HETATM    9  C12 UNL     1      25.367   4.901  49.729  1.00  0.00     0.052 A 
HETATM   10  C13 UNL     1      24.101   5.063  50.229  1.00  0.00     0.041 A 
HETATM   11  N4  UNL     1      27.579   5.488  48.979  1.00  0.00    -0.264 N 
HETATM   12  O1  UNL     1      28.315   6.638  48.834  1.00  0.00    -0.278 OA
HETATM   13  C14 UNL     1      28.435   6.907  47.476  1.00  0.00     0.227 C 
HETATM   14  C15 UNL     1      27.943   8.282  47.126  1.00  0.00     0.196 C 
HETATM   15  O2  UNL     1      28.597   9.272  47.736  1.00  0.00    -0.387 OA
HETATM   16  C16 UNL     1      28.729   9.330  49.075  1.00  0.00     0.194 C 
HETATM   17  C17 UNL     1      27.418   9.168  49.847  1.00  0.00     0.201 C 
HETATM   18  O3  UNL     1      26.846   7.958  49.581  1.00  0.00    -0.347 OA
HETATM   19  H8  UNL     1      27.718   4.477  48.808  1.00  0.00     0.194 HD
ENDROOT
BRANCH   1  20
HETATM   20  N1  UNL     1      23.605   2.721  50.108  1.00  0.00    -0.340 N 
HETATM   21  H4  UNL     1      23.698   2.484  49.116  1.00  0.00     0.167 HD
BRANCH  20  22
HETATM   22  C5  UNL     1      23.869   1.806  51.179  1.00  0.00     0.035 A 
HETATM   23  C4  UNL     1      22.879   1.139  51.850  1.00  0.00     0.029 A 
HETATM   24  C3  UNL     1      23.101   0.243  52.877  1.00  0.00     0.004 A 
HETATM   25  C2  UNL     1      24.433   0.017  53.236  1.00  0.00     0.019 A 
HETATM   26  C1  UNL     1      25.479   0.674  52.579  1.00  0.00     0.013 A 
HETATM   27 BR1  UNL     1      27.302   0.340  53.095  1.00  0.00    -0.051 Br
HETATM   28  C18 UNL     1      25.169   1.554  51.565  1.00  0.00     0.048 A 
ENDBRANCH  20  22
ENDBRANCH   1  20
TORSDOF 2
ENDMDL
MODEL 7
REMARK VINA RESULT:      -8.0      4.244      6.893
REMARK  2 active torsions:
REMARK  status: ('A' for Active; 'I' for Inactive)
REMARK    1  A    between atoms: C5_6  and  N1_7 
REMARK    2  A    between atoms: N1_7  and  C6_8 
ROOT
HETATM    1  C6  UNL     1      26.296   2.887  50.585  1.00  0.00     0.142 A 
HETATM    2  N2  UNL     1      27.223   2.620  51.528  1.00  0.00    -0.224 NA
HETATM    3  C7  UNL     1      26.839   2.252  52.789  1.00  0.00     0.236 A 
HETATM    4  N3  UNL     1      25.514   2.153  53.101  1.00  0.00    -0.241 NA
HETATM    5  C8  UNL     1      24.627   2.423  52.148  1.00  0.00     0.075 A 
HETATM    6  C9  UNL     1      23.291   2.324  52.465  1.00  0.00     0.071 A 
HETATM    7  C10 UNL     1      22.294   2.575  51.585  1.00  0.00     0.099 A 
HETATM    8  C11 UNL     1      22.563   2.961  50.260  1.00  0.00     0.088 A 
HETATM    9  C12 UNL     1      23.931   3.047  49.985  1.00  0.00     0.052 A 
HETATM   10  C13 UNL     1      24.951   2.797  50.864  1.00  0.00     0.041 A 
HETATM   11  N4  UNL     1      21.680   3.282  49.162  1.00  0.00    -0.264 N 
HETATM   12  O1  UNL     1      20.410   3.111  49.657  1.00  0.00    -0.278 OA
HETATM   13  C14 UNL     1      19.865   1.975  49.070  1.00  0.00     0.227 C 
HETATM   14  C15 UNL     1      19.397   0.980  50.093  1.00  0.00     0.196 C 
HETATM   15  O2  UNL     1      18.449   1.438  50.912  1.00  0.00    -0.387 OA
HETATM   16  C16 UNL     1      18.603   2.563  51.634  1.00  0.00     0.194 C 
HETATM   17  C17 UNL     1      19.903   2.625  52.439  1.00  0.00     0.201 C 
HETATM   18  O3  UNL     1      20.986   2.561  51.612  1.00  0.00    -0.347 OA
HETATM   19  H8  UNL     1      22.107   3.562  48.263  1.00  0.00     0.194 HD
ENDROOT
BRANCH   1  20
HETATM   20  N1  UNL     1      26.651   3.282  49.245  1.00  0.00    -0.340 N 
HETATM   21  H4  UNL     1      26.613   2.568  48.511  1.00  0.00     0.167 HD
BRANCH  20  22
HETATM   22  C5  UNL     1      27.033   4.644  49.019  1.00  0.00     0.035 A 
HETATM   23  C4  UNL     1      28.227   4.999  48.451  1.00  0.00     0.029 A 
HETATM   24  C3  UNL     1      28.618   6.301  48.208  1.00  0.00     0.004 A 
HETATM   25  C2  UNL     1      27.717   7.306  48.575  1.00  0.00     0.019 A 
HETATM   26  C1  UNL     1      26.485   6.993  49.158  1.00  0.00     0.013 A 
HETATM   27 BR1  UNL     1      25.266   8.397  49.650  1.00  0.00    -0.051 Br
HETATM   28  C18 UNL     1      26.173   5.667  49.366  1.00  0.00     0.048 A 
ENDBRANCH  20  22
ENDBRANCH   1  20
TORSDOF 2
ENDMDL
MODEL 8
REMARK VINA RESULT:      -7.9      6.825      8.868
REMARK  2 active torsions:
REMARK  status: ('A' for Active; 'I' for Inactive)
REMARK    1  A    between atoms: C5_6  and  N1_7 
REMARK    2  A    between atoms: N1_7  and  C6_8 
ROOT
HETATM    1  C6  UNL     1      27.810   7.800  48.383  1.00  0.00     0.142 A 
HETATM    2  N2  UNL     1      27.528   9.017  48.894  1.00  0.00    -0.224 NA
HETATM    3  C7  UNL     1      28.525   9.796  49.413  1.00  0.00     0.236 A 
HETATM    4  N3  UNL     1      29.814   9.347  49.417  1.00  0.00    -0.241 NA
HETATM    5  C8  UNL     1      30.057   8.144  48.906  1.00  0.00     0.075 A 
HETATM    6  C9  UNL     1      31.357   7.692  48.914  1.00  0.00     0.071 A 
HETATM    7  C10 UNL     1      31.732   6.486  48.426  1.00  0.00     0.099 A 
HETATM    8  C11 UNL     1      30.797   5.597  47.868  1.00  0.00     0.088 A 
HETATM    9  C12 UNL     1      29.492   6.098  47.881  1.00  0.00     0.052 A 
HETATM   10  C13 UNL     1      29.098   7.315  48.371  1.00  0.00     0.041 A 
HETATM   11  N4  UNL     1      30.957   4.278  47.299  1.00  0.00    -0.264 N 
HETATM   12  O1  UNL     1      32.303   4.010  47.376  1.00  0.00    -0.278 OA
HETATM   13  C14 UNL     1      32.826   4.051  46.090  1.00  0.00     0.227 C 
HETATM   14  C15 UNL     1      33.969   5.019  45.976  1.00  0.00     0.196 C 
HETATM   15  O2  UNL     1      35.007   4.740  46.765  1.00  0.00    -0.387 OA
HETATM   16  C16 UNL     1      34.877   4.582  48.096  1.00  0.00     0.194 C 
HETATM   17  C17 UNL     1      34.122   5.714  48.796  1.00  0.00     0.201 C 
HETATM   18  O3  UNL     1      32.853   5.823  48.308  1.00  0.00    -0.347 OA
HETATM   19  H8  UNL     1      30.110   3.792  46.957  1.00  0.00     0.194 HD
ENDROOT
BRANCH   1  20
HETATM   20  N1  UNL     1      26.792   6.941  47.830  1.00  0.00    -0.340 N 
HETATM   21  H4  UNL     1      26.712   6.893  46.809  1.00  0.00     0.167 HD
BRANCH  20  22
HETATM   22  C5  UNL     1      25.959   6.207  48.735  1.00  0.00     0.035 A 
HETATM   23  C4  UNL     1      24.703   6.619  49.093  1.00  0.00     0.029 A 
HETATM   24  C3  UNL     1      23.871   5.929  49.952  1.00  0.00     0.004 A 
HETATM   25  C2  UNL     1      24.367   4.732  50.477  1.00  0.00     0.019 A 
HETATM   26  C1  UNL     1      25.643   4.269  50.141  1.00  0.00     0.013 A 
HETATM   27 BR1  UNL     1      26.295   2.616  50.879  1.00  0.00    -0.051 Br
HETATM   28  C18 UNL     1      26.409   5.020  49.277  1.00  0.00     0.048 A 
ENDBRANCH  20  22
ENDBRANCH   1  20
TORSDOF 2
ENDMDL
MODEL 9
REMARK VINA RESULT:      -7.9      2.734      4.179
REMARK  2 active torsions:
REMARK  status: ('A' for Active; 'I' for Inactive)
REMARK    1  A    between atoms: C5_6  and  N1_7 
REMARK    2  A    between atoms: N1_7  and  C6_8 
ROOT
HETATM    1  C6  UNL     1      22.631   3.532  51.250  1.00  0.00     0.142 A 
HETATM    2  N2  UNL     1      22.434   4.005  50.001  1.00  0.00    -0.224 NA
HETATM    3  C7  UNL     1      23.478   4.090  49.122  1.00  0.00     0.236 A 
HETATM    4  N3  UNL     1      24.729   3.698  49.503  1.00  0.00    -0.241 NA
HETATM    5  C8  UNL     1      24.888   3.238  50.740  1.00  0.00     0.075 A 
HETATM    6  C9  UNL     1      26.151   2.845  51.123  1.00  0.00     0.071 A 
HETATM    7  C10 UNL     1      26.442   2.361  52.353  1.00  0.00     0.099 A 
HETATM    8  C11 UNL     1      25.452   2.227  53.342  1.00  0.00     0.088 A 
HETATM    9  C12 UNL     1      24.188   2.637  52.909  1.00  0.00     0.052 A 
HETATM   10  C13 UNL     1      23.879   3.128  51.668  1.00  0.00     0.041 A 
HETATM   11  N4  UNL     1      25.525   1.750  54.705  1.00  0.00    -0.264 N 
HETATM   12  O1  UNL     1      26.838   1.391  54.894  1.00  0.00    -0.278 OA
HETATM   13  C14 UNL     1      26.902   0.005  54.964  1.00  0.00     0.227 C 
HETATM   14  C15 UNL     1      27.859  -0.567  53.958  1.00  0.00     0.196 C 
HETATM   15  O2  UNL     1      29.118  -0.153  54.099  1.00  0.00    -0.387 OA
HETATM   16  C16 UNL     1      29.448   1.152  54.121  1.00  0.00     0.194 C 
HETATM   17  C17 UNL     1      28.876   1.969  52.960  1.00  0.00     0.201 C 
HETATM   18  O3  UNL     1      27.513   1.929  52.967  1.00  0.00    -0.347 OA
HETATM   19  H8  UNL     1      24.656   1.755  55.266  1.00  0.00     0.194 HD
ENDROOT
BRANCH   1  20
HETATM   20  N1  UNL     1      21.563   3.427  52.213  1.00  0.00    -0.340 N 
HETATM   21  H4  UNL     1      21.425   4.210  52.859  1.00  0.00     0.167 HD
BRANCH  20  22
HETATM   22  C5  UNL     1      20.761   2.240  52.209  1.00  0.00     0.035 A 
HETATM   23  C4  UNL     1      19.670   2.081  51.397  1.00  0.00     0.029 A 
HETATM   24  C3  UNL     1      18.885   0.945  51.360  1.00  0.00     0.004 A 
HETATM   25  C2  UNL     1      19.250  -0.097  52.218  1.00  0.00     0.019 A 
HETATM   26  C1  UNL     1      20.356   0.018  53.065  1.00  0.00     0.013 A 
HETATM   27 BR1  UNL     1      20.834  -1.435  54.232  1.00  0.00    -0.051 Br
HETATM   28  C18 UNL     1      21.085   1.187  53.039  1.00  0.00     0.048 A 
ENDBRANCH  20  22
ENDBRANCH   1  20
TORSDOF 2
ENDMDL
