MODEL 1
REMARK VINA RESULT:      -8.4      0.000      0.000
REMARK  5 active torsions:
REMARK  status: ('A' for Active; 'I' for Inactive)
REMARK    1  A    between atoms: O1_2  and  C2_3 
REMARK    2  A    between atoms: C2_3  and  O2_4 
REMARK    3  A    between atoms: O2_4  and  N1_5 
REMARK    4  A    between atoms: C10_16  and  N4_17 
REMARK    5  A    between atoms: N4_17  and  C11_18 
ROOT
HETATM    1  N1  UNL     1      27.990   7.737  48.503  1.00  0.00    -0.261 N 
HETATM    2  C3  UNL     1      28.767   6.592  48.179  1.00  0.00     0.118 A 
HETATM    3  C4  UNL     1      28.302   5.379  48.379  1.00  0.00     0.030 A 
HETATM    4  C5  UNL     1      26.957   5.131  48.943  1.00  0.00    -0.008 A 
HETATM    5  C6  UNL     1      26.243   6.219  49.231  1.00  0.00     0.083 A 
HETATM    6  C7  UNL     1      26.668   7.613  49.038  1.00  0.00     0.221 A 
HETATM    7  O3  UNL     1      24.941   6.112  49.781  1.00  0.00    -0.292 OA
HETATM    8  C8  UNL     1      24.541   5.135  50.727  1.00  0.00     0.201 A 
HETATM    9  N2  UNL     1      23.706   5.594  51.706  1.00  0.00    -0.215 NA
HETATM   10  C9  UNL     1      23.281   4.725  52.649  1.00  0.00     0.238 A 
HETATM   11  N3  UNL     1      23.658   3.454  52.639  1.00  0.00    -0.222 NA
HETATM   12  C10 UNL     1      24.464   2.922  51.731  1.00  0.00     0.160 A 
HETATM   13  C17 UNL     1      24.898   3.788  50.773  1.00  0.00     0.129 A 
HETATM   14  N5  UNL     1      25.736   3.181  49.782  1.00  0.00    -0.379 N 
HETATM   15  C18 UNL     1      26.847   3.657  49.010  1.00  0.00     0.161 C 
HETATM   16  H15 UNL     1      25.447   2.172  49.594  1.00  0.00     0.160 HD
ENDROOT
BRANCH  12  17
HETATM   17  N4  UNL     1      24.862   1.575  51.735  1.00  0.00    -0.339 N 
HETATM   18  H11 UNL     1      24.355   0.798  51.270  1.00  0.00     0.167 HD
BRANCH  17  19
HETATM   19  C11 UNL     1      26.023   1.032  52.338  1.00  0.00     0.035 A 
HETATM   20  C12 UNL     1      26.266  -0.317  52.411  1.00  0.00     0.032 A 
HETATM   21  C13 UNL     1      27.374  -0.893  52.987  1.00  0.00     0.046 A 
HETATM   22  C14 UNL     1      28.349  -0.101  53.552  1.00  0.00     0.138 A 
HETATM   23  F1  UNL     1      29.466  -0.589  54.139  1.00  0.00    -0.204 F 
HETATM   24  C15 UNL     1      28.159   1.262  53.508  1.00  0.00     0.074 A 
HETATM   25 CL1  UNL     1      29.354   2.331  54.202  1.00  0.00    -0.081 Cl
HETATM   26  C16 UNL     1      27.030   1.765  52.917  1.00  0.00     0.056 A 
ENDBRANCH  17  19
ENDBRANCH  12  17
BRANCH   1  27
HETATM   27  O2  UNL     1      28.476   8.996  48.329  1.00  0.00    -0.252 OA
BRANCH  27  28
HETATM   28  C2  UNL     1      28.805   9.590  49.530  1.00  0.00     0.369 C 
BRANCH  28  29
HETATM   29  O1  UNL     1      30.194   9.666  49.616  1.00  0.00    -0.369 OA
HETATM   30  C1  UNL     1      30.666  10.174  48.397  1.00  0.00     0.204 C 
ENDBRANCH  28  29
ENDBRANCH  27  28
ENDBRANCH   1  27
TORSDOF 5
ENDMDL
MODEL 2
REMARK VINA RESULT:      -8.2      7.505      9.722
REMARK  5 active torsions:
REMARK  status: ('A' for Active; 'I' for Inactive)
REMARK    1  A    between atoms: O1_2  and  C2_3 
REMARK    2  A    between atoms: C2_3  and  O2_4 
REMARK    3  A    between atoms: O2_4  and  N1_5 
REMARK    4  A    between atoms: C10_16  and  N4_17 
REMARK    5  A    between atoms: N4_17  and  C11_18 
ROOT
HETATM    1  N1  UNL     1      26.246   0.403  54.546  1.00  0.00    -0.261 N 
HETATM    2  C3  UNL     1      25.822  -0.423  55.622  1.00  0.00     0.118 A 
HETATM    3  C4  UNL     1      24.652  -1.020  55.599  1.00  0.00     0.030 A 
HETATM    4  C5  UNL     1      23.714  -0.876  54.464  1.00  0.00    -0.008 A 
HETATM    5  C6  UNL     1      24.135  -0.104  53.462  1.00  0.00     0.083 A 
HETATM    6  C7  UNL     1      25.425   0.598  53.390  1.00  0.00     0.221 A 
HETATM    7  O3  UNL     1      23.324   0.116  52.320  1.00  0.00    -0.292 OA
HETATM    8  C8  UNL     1      21.915   0.265  52.346  1.00  0.00     0.201 A 
HETATM    9  N2  UNL     1      21.424   1.215  51.497  1.00  0.00    -0.215 NA
HETATM   10  C9  UNL     1      20.090   1.422  51.464  1.00  0.00     0.238 A 
HETATM   11  N3  UNL     1      19.263   0.727  52.233  1.00  0.00    -0.222 NA
HETATM   12  C10 UNL     1      19.648  -0.211  53.085  1.00  0.00     0.160 A 
HETATM   13  C17 UNL     1      20.992  -0.431  53.126  1.00  0.00     0.129 A 
HETATM   14  N5  UNL     1      21.380  -1.476  54.026  1.00  0.00    -0.379 N 
HETATM   15  C18 UNL     1      22.537  -1.687  54.848  1.00  0.00     0.161 C 
HETATM   16  H15 UNL     1      20.644  -2.247  54.067  1.00  0.00     0.160 HD
ENDROOT
BRANCH  12  17
HETATM   17  N4  UNL     1      18.763  -0.936  53.899  1.00  0.00    -0.339 N 
HETATM   18  H11 UNL     1      18.730  -0.895  54.936  1.00  0.00     0.167 HD
BRANCH  17  19
HETATM   19  C11 UNL     1      17.745  -1.824  53.472  1.00  0.00     0.035 A 
HETATM   20  C12 UNL     1      17.750  -3.164  53.764  1.00  0.00     0.032 A 
HETATM   21  C13 UNL     1      16.789  -4.066  53.371  1.00  0.00     0.046 A 
HETATM   22  C14 UNL     1      15.713  -3.644  52.621  1.00  0.00     0.138 A 
HETATM   23  F1  UNL     1      14.727  -4.467  52.194  1.00  0.00    -0.204 F 
HETATM   24  C15 UNL     1      15.654  -2.308  52.297  1.00  0.00     0.074 A 
HETATM   25 CL1  UNL     1      14.319  -1.699  51.350  1.00  0.00    -0.081 Cl
HETATM   26  C16 UNL     1      16.649  -1.468  52.724  1.00  0.00     0.056 A 
ENDBRANCH  17  19
ENDBRANCH  12  17
BRANCH   1  27
HETATM   27  O2  UNL     1      27.442   1.050  54.577  1.00  0.00    -0.252 OA
BRANCH  27  28
HETATM   28  C2  UNL     1      28.475   0.205  54.924  1.00  0.00     0.369 C 
BRANCH  28  29
HETATM   29  O1  UNL     1      29.465   0.297  53.948  1.00  0.00    -0.369 OA
HETATM   30  C1  UNL     1      29.734  -1.002  53.494  1.00  0.00     0.204 C 
ENDBRANCH  28  29
ENDBRANCH  27  28
ENDBRANCH   1  27
TORSDOF 5
ENDMDL
MODEL 3
REMARK VINA RESULT:      -7.9      6.656      8.862
REMARK  5 active torsions:
REMARK  status: ('A' for Active; 'I' for Inactive)
REMARK    1  A    between atoms: O1_2  and  C2_3 
REMARK    2  A    between atoms: C2_3  and  O2_4 
REMARK    3  A    between atoms: O2_4  and  N1_5 
REMARK    4  A    between atoms: C10_16  and  N4_17 
REMARK    5  A    between atoms: N4_17  and  C11_18 
ROOT
HETATM    1  N1  UNL     1      26.748   1.259  54.104  1.00  0.00    -0.261 N 
HETATM    2  C3  UNL     1      26.418  -0.036  54.588  1.00  0.00     0.118 A 
HETATM    3  C4  UNL     1      25.274  -0.604  54.278  1.00  0.00     0.030 A 
HETATM    4  C5  UNL     1      24.272   0.057  53.414  1.00  0.00    -0.008 A 
HETATM    5  C6  UNL     1      24.606   1.267  52.964  1.00  0.00     0.083 A 
HETATM    6  C7  UNL     1      25.859   1.982  53.246  1.00  0.00     0.221 A 
HETATM    7  O3  UNL     1      23.727   2.004  52.131  1.00  0.00    -0.292 OA
HETATM    8  C8  UNL     1      22.316   2.025  52.264  1.00  0.00     0.201 A 
HETATM    9  N2  UNL     1      21.741   3.248  52.059  1.00  0.00    -0.215 NA
HETATM   10  C9  UNL     1      20.399   3.354  52.171  1.00  0.00     0.238 A 
HETATM   11  N3  UNL     1      19.644   2.307  52.473  1.00  0.00    -0.222 NA
HETATM   12  C10 UNL     1      20.114   1.087  52.689  1.00  0.00     0.160 A 
HETATM   13  C17 UNL     1      21.466   0.965  52.577  1.00  0.00     0.129 A 
HETATM   14  N5  UNL     1      21.945  -0.370  52.777  1.00  0.00    -0.379 N 
HETATM   15  C18 UNL     1      23.152  -0.908  53.336  1.00  0.00     0.161 C 
HETATM   16  H15 UNL     1      21.246  -1.091  52.420  1.00  0.00     0.160 HD
ENDROOT
BRANCH  12  17
HETATM   17  N4  UNL     1      19.305  -0.014  53.016  1.00  0.00    -0.339 N 
HETATM   18  H11 UNL     1      19.478  -0.676  53.796  1.00  0.00     0.167 HD
BRANCH  17  19
HETATM   19  C11 UNL     1      18.105  -0.409  52.375  1.00  0.00     0.035 A 
HETATM   20  C12 UNL     1      17.179  -1.234  52.962  1.00  0.00     0.032 A 
HETATM   21  C13 UNL     1      16.004  -1.648  52.382  1.00  0.00     0.046 A 
HETATM   22  C14 UNL     1      15.678  -1.233  51.109  1.00  0.00     0.138 A 
HETATM   23  F1  UNL     1      14.544  -1.597  50.468  1.00  0.00    -0.204 F 
HETATM   24  C15 UNL     1      16.570  -0.403  50.469  1.00  0.00     0.074 A 
HETATM   25 CL1  UNL     1      16.226   0.166  48.853  1.00  0.00    -0.081 Cl
HETATM   26  C16 UNL     1      17.723  -0.032  51.110  1.00  0.00     0.056 A 
ENDBRANCH  17  19
ENDBRANCH  12  17
BRANCH   1  27
HETATM   27  O2  UNL     1      27.915   1.868  54.445  1.00  0.00    -0.252 OA
BRANCH  27  28
HETATM   28  C2  UNL     1      28.930   0.956  54.650  1.00  0.00     0.369 C 
BRANCH  28  29
HETATM   29  O1  UNL     1      29.451   0.592  53.410  1.00  0.00    -0.369 OA
HETATM   30  C1  UNL     1      29.930  -0.721  53.521  1.00  0.00     0.204 C 
ENDBRANCH  28  29
ENDBRANCH  27  28
ENDBRANCH   1  27
TORSDOF 5
ENDMDL
MODEL 4
REMARK VINA RESULT:      -7.8      1.439      1.844
REMARK  5 active torsions:
REMARK  status: ('A' for Active; 'I' for Inactive)
REMARK    1  A    between atoms: O1_2  and  C2_3 
REMARK    2  A    between atoms: C2_3  and  O2_4 
REMARK    3  A    between atoms: O2_4  and  N1_5 
REMARK    4  A    between atoms: C10_16  and  N4_17 
REMARK    5  A    between atoms: N4_17  and  C11_18 
ROOT
HETATM    1  N1  UNL     1      27.824   8.389  48.574  1.00  0.00    -0.261 N 
HETATM    2  C3  UNL     1      28.712   7.340  48.211  1.00  0.00     0.118 A 
HETATM    3  C4  UNL     1      28.365   6.080  48.347  1.00  0.00     0.030 A 
HETATM    4  C5  UNL     1      27.045   5.677  48.878  1.00  0.00    -0.008 A 
HETATM    5  C6  UNL     1      26.225   6.676  49.204  1.00  0.00     0.083 A 
HETATM    6  C7  UNL     1      26.515   8.113  49.082  1.00  0.00     0.221 A 
HETATM    7  O3  UNL     1      24.933   6.418  49.728  1.00  0.00    -0.292 OA
HETATM    8  C8  UNL     1      24.619   5.363  50.621  1.00  0.00     0.201 A 
HETATM    9  N2  UNL     1      23.732   5.693  51.607  1.00  0.00    -0.215 NA
HETATM   10  C9  UNL     1      23.383   4.744  52.502  1.00  0.00     0.238 A 
HETATM   11  N3  UNL     1      23.881   3.517  52.440  1.00  0.00    -0.222 NA
HETATM   12  C10 UNL     1      24.745   3.109  51.522  1.00  0.00     0.160 A 
HETATM   13  C17 UNL     1      25.104   4.056  50.612  1.00  0.00     0.129 A 
HETATM   14  N5  UNL     1      26.009   3.580  49.608  1.00  0.00    -0.379 N 
HETATM   15  C18 UNL     1      27.077   4.197  48.875  1.00  0.00     0.161 C 
HETATM   16  H15 UNL     1      25.821   2.558  49.369  1.00  0.00     0.160 HD
ENDROOT
BRANCH  12  17
HETATM   17  N4  UNL     1      25.272   1.808  51.471  1.00  0.00    -0.339 N 
HETATM   18  H11 UNL     1      24.888   1.026  50.907  1.00  0.00     0.167 HD
BRANCH  17  19
HETATM   19  C11 UNL     1      26.424   1.328  52.142  1.00  0.00     0.035 A 
HETATM   20  C12 UNL     1      27.334   2.155  52.751  1.00  0.00     0.032 A 
HETATM   21  C13 UNL     1      28.466   1.739  53.411  1.00  0.00     0.046 A 
HETATM   22  C14 UNL     1      28.761   0.396  53.498  1.00  0.00     0.138 A 
HETATM   23  F1  UNL     1      29.854  -0.094  54.127  1.00  0.00    -0.204 F 
HETATM   24  C15 UNL     1      27.883  -0.482  52.904  1.00  0.00     0.074 A 
HETATM   25 CL1  UNL     1      28.188  -2.201  52.974  1.00  0.00    -0.081 Cl
HETATM   26  C16 UNL     1      26.774   0.006  52.264  1.00  0.00     0.056 A 
ENDBRANCH  17  19
ENDBRANCH  12  17
BRANCH   1  27
HETATM   27  O2  UNL     1      28.187   9.695  48.466  1.00  0.00    -0.252 OA
BRANCH  27  28
HETATM   28  C2  UNL     1      27.842  10.225  47.241  1.00  0.00     0.369 C 
BRANCH  28  29
HETATM   29  O1  UNL     1      27.542  11.575  47.415  1.00  0.00    -0.369 OA
HETATM   30  C1  UNL     1      26.296  11.652  48.053  1.00  0.00     0.204 C 
ENDBRANCH  28  29
ENDBRANCH  27  28
ENDBRANCH   1  27
TORSDOF 5
ENDMDL
MODEL 5
REMARK VINA RESULT:      -7.7      5.485      9.033
REMARK  5 active torsions:
REMARK  status: ('A' for Active; 'I' for Inactive)
REMARK    1  A    between atoms: O1_2  and  C2_3 
REMARK    2  A    between atoms: C2_3  and  O2_4 
REMARK    3  A    between atoms: O2_4  and  N1_5 
REMARK    4  A    between atoms: C10_16  and  N4_17 
REMARK    5  A    between atoms: N4_17  and  C11_18 
ROOT
HETATM    1  N1  UNL     1      17.447   0.104  51.674  1.00  0.00    -0.261 N 
HETATM    2  C3  UNL     1      17.698  -0.952  52.592  1.00  0.00     0.118 A 
HETATM    3  C4  UNL     1      18.831  -1.021  53.254  1.00  0.00     0.030 A 
HETATM    4  C5  UNL     1      19.903  -0.015  53.091  1.00  0.00    -0.008 A 
HETATM    5  C6  UNL     1      19.643   0.971  52.232  1.00  0.00     0.083 A 
HETATM    6  C7  UNL     1      18.409   1.141  51.452  1.00  0.00     0.221 A 
HETATM    7  O3  UNL     1      20.595   1.993  51.986  1.00  0.00    -0.292 OA
HETATM    8  C8  UNL     1      21.997   1.794  51.923  1.00  0.00     0.201 A 
HETATM    9  N2  UNL     1      22.632   2.511  50.949  1.00  0.00    -0.215 NA
HETATM   10  C9  UNL     1      23.970   2.375  50.819  1.00  0.00     0.238 A 
HETATM   11  N3  UNL     1      24.664   1.568  51.610  1.00  0.00    -0.222 NA
HETATM   12  C10 UNL     1      24.132   0.835  52.578  1.00  0.00     0.160 A 
HETATM   13  C17 UNL     1      22.784   0.965  52.720  1.00  0.00     0.129 A 
HETATM   14  N5  UNL     1      22.239   0.193  53.798  1.00  0.00    -0.379 N 
HETATM   15  C18 UNL     1      20.984  -0.473  53.993  1.00  0.00     0.161 C 
HETATM   16  H15 UNL     1      22.925   0.123  54.611  1.00  0.00     0.160 HD
ENDROOT
BRANCH  12  17
HETATM   17  N4  UNL     1      24.876  -0.022  53.405  1.00  0.00    -0.339 N 
HETATM   18  H11 UNL     1      24.477  -0.701  54.081  1.00  0.00     0.167 HD
BRANCH  17  19
HETATM   19  C11 UNL     1      26.287  -0.145  53.456  1.00  0.00     0.035 A 
HETATM   20  C12 UNL     1      26.958  -1.259  53.019  1.00  0.00     0.032 A 
HETATM   21  C13 UNL     1      28.322  -1.427  53.050  1.00  0.00     0.046 A 
HETATM   22  C14 UNL     1      29.129  -0.429  53.550  1.00  0.00     0.138 A 
HETATM   23  F1  UNL     1      30.478  -0.517  53.617  1.00  0.00    -0.204 F 
HETATM   24  C15 UNL     1      28.512   0.714  54.004  1.00  0.00     0.074 A 
HETATM   25 CL1  UNL     1      29.469   2.024  54.652  1.00  0.00    -0.081 Cl
HETATM   26  C16 UNL     1      27.146   0.811  53.942  1.00  0.00     0.056 A 
ENDBRANCH  17  19
ENDBRANCH  12  17
BRANCH   1  27
HETATM   27  O2  UNL     1      16.290   0.165  50.962  1.00  0.00    -0.252 OA
BRANCH  27  28
HETATM   28  C2  UNL     1      16.373  -0.548  49.784  1.00  0.00     0.369 C 
BRANCH  28  29
HETATM   29  O1  UNL     1      15.254  -1.373  49.690  1.00  0.00    -0.369 OA
HETATM   30  C1  UNL     1      14.140  -0.551  49.474  1.00  0.00     0.204 C 
ENDBRANCH  28  29
ENDBRANCH  27  28
ENDBRANCH   1  27
TORSDOF 5
ENDMDL
MODEL 6
REMARK VINA RESULT:      -7.7      1.662      2.029
REMARK  5 active torsions:
REMARK  status: ('A' for Active; 'I' for Inactive)
REMARK    1  A    between atoms: O1_2  and  C2_3 
REMARK    2  A    between atoms: C2_3  and  O2_4 
REMARK    3  A    between atoms: O2_4  and  N1_5 
REMARK    4  A    between atoms: C10_16  and  N4_17 
REMARK    5  A    between atoms: N4_17  and  C11_18 
ROOT
HETATM    1  N1  UNL     1      28.860   8.968  48.601  1.00  0.00    -0.261 N 
HETATM    2  C3  UNL     1      29.706   7.883  48.246  1.00  0.00     0.118 A 
HETATM    3  C4  UNL     1      29.261   6.646  48.250  1.00  0.00     0.030 A 
HETATM    4  C5  UNL     1      27.868   6.309  48.616  1.00  0.00    -0.008 A 
HETATM    5  C6  UNL     1      27.090   7.343  48.938  1.00  0.00     0.083 A 
HETATM    6  C7  UNL     1      27.489   8.758  48.956  1.00  0.00     0.221 A 
HETATM    7  O3  UNL     1      25.736   7.148  49.312  1.00  0.00    -0.292 OA
HETATM    8  C8  UNL     1      25.260   6.060  50.086  1.00  0.00     0.201 A 
HETATM    9  N2  UNL     1      24.301   6.387  51.002  1.00  0.00    -0.215 NA
HETATM   10  C9  UNL     1      23.797   5.406  51.783  1.00  0.00     0.238 A 
HETATM   11  N3  UNL     1      24.214   4.153  51.676  1.00  0.00    -0.222 NA
HETATM   12  C10 UNL     1      25.137   3.745  50.817  1.00  0.00     0.160 A 
HETATM   13  C17 UNL     1      25.652   4.724  50.022  1.00  0.00     0.129 A 
HETATM   14  N5  UNL     1      26.621   4.252  49.077  1.00  0.00    -0.379 N 
HETATM   15  C18 UNL     1      27.799   4.835  48.503  1.00  0.00     0.161 C 
HETATM   16  H15 UNL     1      26.389   3.266  48.743  1.00  0.00     0.160 HD
ENDROOT
BRANCH  12  17
HETATM   17  N4  UNL     1      25.576   2.415  50.717  1.00  0.00    -0.339 N 
HETATM   18  H11 UNL     1      25.351   1.765  49.940  1.00  0.00     0.167 HD
BRANCH  17  19
HETATM   19  C11 UNL     1      26.416   1.724  51.624  1.00  0.00     0.035 A 
HETATM   20  C12 UNL     1      27.314   2.359  52.445  1.00  0.00     0.032 A 
HETATM   21  C13 UNL     1      28.152   1.735  53.339  1.00  0.00     0.046 A 
HETATM   22  C14 UNL     1      28.132   0.363  53.461  1.00  0.00     0.138 A 
HETATM   23  F1  UNL     1      28.925  -0.327  54.314  1.00  0.00    -0.204 F 
HETATM   24  C15 UNL     1      27.250  -0.330  52.662  1.00  0.00     0.074 A 
HETATM   25 CL1  UNL     1      27.167  -2.072  52.761  1.00  0.00    -0.081 Cl
HETATM   26  C16 UNL     1      26.445   0.361  51.794  1.00  0.00     0.056 A 
ENDBRANCH  17  19
ENDBRANCH  12  17
BRANCH   1  27
HETATM   27  O2  UNL     1      29.321  10.247  48.631  1.00  0.00    -0.252 OA
BRANCH  27  28
HETATM   28  C2  UNL     1      30.193  10.503  47.593  1.00  0.00     0.369 C 
BRANCH  28  29
HETATM   29  O1  UNL     1      29.774  11.664  46.944  1.00  0.00    -0.369 OA
HETATM   30  C1  UNL     1      29.995  11.483  45.571  1.00  0.00     0.204 C 
ENDBRANCH  28  29
ENDBRANCH  27  28
ENDBRANCH   1  27
TORSDOF 5
ENDMDL
MODEL 7
REMARK VINA RESULT:      -7.6      3.164      3.570
REMARK  5 active torsions:
REMARK  status: ('A' for Active; 'I' for Inactive)
REMARK    1  A    between atoms: O1_2  and  C2_3 
REMARK    2  A    between atoms: C2_3  and  O2_4 
REMARK    3  A    between atoms: O2_4  and  N1_5 
REMARK    4  A    between atoms: C10_16  and  N4_17 
REMARK    5  A    between atoms: N4_17  and  C11_18 
ROOT
HETATM    1  N1  UNL     1      27.943   7.445  48.141  1.00  0.00    -0.261 N 
HETATM    2  C3  UNL     1      28.734   6.265  48.185  1.00  0.00     0.118 A 
HETATM    3  C4  UNL     1      28.216   5.114  48.549  1.00  0.00     0.030 A 
HETATM    4  C5  UNL     1      26.792   4.973  48.927  1.00  0.00    -0.008 A 
HETATM    5  C6  UNL     1      26.067   6.090  48.869  1.00  0.00     0.083 A 
HETATM    6  C7  UNL     1      26.550   7.420  48.469  1.00  0.00     0.221 A 
HETATM    7  O3  UNL     1      24.691   6.084  49.212  1.00  0.00    -0.292 OA
HETATM    8  C8  UNL     1      24.122   5.316  50.258  1.00  0.00     0.201 A 
HETATM    9  N2  UNL     1      23.152   5.957  50.976  1.00  0.00    -0.215 NA
HETATM   10  C9  UNL     1      22.561   5.294  51.994  1.00  0.00     0.238 A 
HETATM   11  N3  UNL     1      22.905   4.052  52.303  1.00  0.00    -0.222 NA
HETATM   12  C10 UNL     1      23.833   3.354  51.665  1.00  0.00     0.160 A 
HETATM   13  C17 UNL     1      24.435   4.010  50.634  1.00  0.00     0.129 A 
HETATM   14  N5  UNL     1      25.407   3.222  49.935  1.00  0.00    -0.379 N 
HETATM   15  C18 UNL     1      26.638   3.542  49.272  1.00  0.00     0.161 C 
HETATM   16  H15 UNL     1      25.128   2.193  49.911  1.00  0.00     0.160 HD
ENDROOT
BRANCH  12  17
HETATM   17  N4  UNL     1      24.194   2.040  52.006  1.00  0.00    -0.339 N 
HETATM   18  H11 UNL     1      25.142   1.632  51.902  1.00  0.00     0.167 HD
BRANCH  17  19
HETATM   19  C11 UNL     1      23.357   1.047  52.572  1.00  0.00     0.035 A 
HETATM   20  C12 UNL     1      23.799   0.135  53.497  1.00  0.00     0.032 A 
HETATM   21  C13 UNL     1      23.029  -0.847  54.073  1.00  0.00     0.046 A 
HETATM   22  C14 UNL     1      21.701  -0.974  53.730  1.00  0.00     0.138 A 
HETATM   23  F1  UNL     1      20.877  -1.914  54.248  1.00  0.00    -0.204 F 
HETATM   24  C15 UNL     1      21.201  -0.086  52.804  1.00  0.00     0.074 A 
HETATM   25 CL1  UNL     1      19.525  -0.183  52.320  1.00  0.00    -0.081 Cl
HETATM   26  C16 UNL     1      22.028   0.868  52.273  1.00  0.00     0.056 A 
ENDBRANCH  17  19
ENDBRANCH  12  17
BRANCH   1  27
HETATM   27  O2  UNL     1      28.480   8.646  47.796  1.00  0.00    -0.252 OA
BRANCH  27  28
HETATM   28  C2  UNL     1      29.810   8.535  47.449  1.00  0.00     0.369 C 
BRANCH  28  29
HETATM   29  O1  UNL     1      30.489   9.643  47.953  1.00  0.00    -0.369 OA
HETATM   30  C1  UNL     1      30.653   9.447  49.331  1.00  0.00     0.204 C 
ENDBRANCH  28  29
ENDBRANCH  27  28
ENDBRANCH   1  27
TORSDOF 5
ENDMDL
MODEL 8
REMARK VINA RESULT:      -7.5      7.211      9.477
REMARK  5 active torsions:
REMARK  status: ('A' for Active; 'I' for Inactive)
REMARK    1  A    between atoms: O1_2  and  C2_3 
REMARK    2  A    between atoms: C2_3  and  O2_4 
REMARK    3  A    between atoms: O2_4  and  N1_5 
REMARK    4  A    between atoms: C10_16  and  N4_17 
REMARK    5  A    between atoms: N4_17  and  C11_18 
ROOT
HETATM    1  N1  UNL     1      26.634  -0.881  53.045  1.00  0.00    -0.261 N 
HETATM    2  C3  UNL     1      26.599   0.183  52.104  1.00  0.00     0.118 A 
HETATM    3  C4  UNL     1      25.520   0.917  51.951  1.00  0.00     0.030 A 
HETATM    4  C5  UNL     1      24.290   0.689  52.741  1.00  0.00    -0.008 A 
HETATM    5  C6  UNL     1      24.349  -0.308  53.624  1.00  0.00     0.083 A 
HETATM    6  C7  UNL     1      25.506  -1.179  53.875  1.00  0.00     0.221 A 
HETATM    7  O3  UNL     1      23.232  -0.629  54.438  1.00  0.00    -0.292 OA
HETATM    8  C8  UNL     1      21.881  -0.578  54.012  1.00  0.00     0.201 A 
HETATM    9  N2  UNL     1      21.097  -1.597  54.473  1.00  0.00    -0.215 NA
HETATM   10  C9  UNL     1      19.797  -1.624  54.110  1.00  0.00     0.238 A 
HETATM   11  N3  UNL     1      19.278  -0.691  53.324  1.00  0.00    -0.222 NA
HETATM   12  C10 UNL     1      19.961   0.331  52.830  1.00  0.00     0.160 A 
HETATM   13  C17 UNL     1      21.274   0.371  53.190  1.00  0.00     0.129 A 
HETATM   14  N5  UNL     1      21.982   1.506  52.675  1.00  0.00    -0.379 N 
HETATM   15  C18 UNL     1      23.337   1.710  52.251  1.00  0.00     0.161 C 
HETATM   16  H15 UNL     1      21.350   2.363  52.613  1.00  0.00     0.160 HD
ENDROOT
BRANCH  12  17
HETATM   17  N4  UNL     1      19.403   1.310  51.991  1.00  0.00    -0.339 N 
HETATM   18  H11 UNL     1      19.835   2.227  51.767  1.00  0.00     0.167 HD
BRANCH  17  19
HETATM   19  C11 UNL     1      18.180   1.227  51.282  1.00  0.00     0.035 A 
HETATM   20  C12 UNL     1      17.893   0.215  50.401  1.00  0.00     0.032 A 
HETATM   21  C13 UNL     1      16.724   0.092  49.687  1.00  0.00     0.046 A 
HETATM   22  C14 UNL     1      15.726   1.031  49.828  1.00  0.00     0.138 A 
HETATM   23  F1  UNL     1      14.550   0.983  49.162  1.00  0.00    -0.204 F 
HETATM   24  C15 UNL     1      15.958   2.071  50.700  1.00  0.00     0.074 A 
HETATM   25 CL1  UNL     1      14.739   3.301  50.934  1.00  0.00    -0.081 Cl
HETATM   26  C16 UNL     1      17.147   2.129  51.378  1.00  0.00     0.056 A 
ENDBRANCH  17  19
ENDBRANCH  12  17
BRANCH   1  27
HETATM   27  O2  UNL     1      27.736  -1.666  53.187  1.00  0.00    -0.252 OA
BRANCH  27  28
HETATM   28  C2  UNL     1      28.872  -0.920  53.423  1.00  0.00     0.369 C 
BRANCH  28  29
HETATM   29  O1  UNL     1      28.799  -0.405  54.717  1.00  0.00    -0.369 OA
HETATM   30  C1  UNL     1      29.144   0.952  54.651  1.00  0.00     0.204 C 
ENDBRANCH  28  29
ENDBRANCH  27  28
ENDBRANCH   1  27
TORSDOF 5
ENDMDL
MODEL 9
REMARK VINA RESULT:      -7.3      6.620      8.869
REMARK  5 active torsions:
REMARK  status: ('A' for Active; 'I' for Inactive)
REMARK    1  A    between atoms: O1_2  and  C2_3 
REMARK    2  A    between atoms: C2_3  and  O2_4 
REMARK    3  A    between atoms: O2_4  and  N1_5 
REMARK    4  A    between atoms: C10_16  and  N4_17 
REMARK    5  A    between atoms: N4_17  and  C11_18 
ROOT
HETATM    1  N1  UNL     1      25.528  -0.335  53.320  1.00  0.00    -0.261 N 
HETATM    2  C3  UNL     1      25.814   0.857  52.602  1.00  0.00     0.118 A 
HETATM    3  C4  UNL     1      24.870   1.730  52.332  1.00  0.00     0.030 A 
HETATM    4  C5  UNL     1      23.467   1.532  52.757  1.00  0.00    -0.008 A 
HETATM    5  C6  UNL     1      23.223   0.412  53.437  1.00  0.00     0.083 A 
HETATM    6  C7  UNL     1      24.208  -0.620  53.794  1.00  0.00     0.221 A 
HETATM    7  O3  UNL     1      21.916   0.107  53.895  1.00  0.00    -0.292 OA
HETATM    8  C8  UNL     1      20.724   0.384  53.179  1.00  0.00     0.201 A 
HETATM    9  N2  UNL     1      19.771  -0.593  53.255  1.00  0.00    -0.215 NA
HETATM   10  C9  UNL     1      18.606  -0.408  52.597  1.00  0.00     0.238 A 
HETATM   11  N3  UNL     1      18.378   0.690  51.890  1.00  0.00    -0.222 NA
HETATM   12  C10 UNL     1      19.241   1.687  51.760  1.00  0.00     0.160 A 
HETATM   13  C17 UNL     1      20.420   1.513  52.420  1.00  0.00     0.129 A 
HETATM   14  N5  UNL     1      21.321   2.620  52.296  1.00  0.00    -0.379 N 
HETATM   15  C18 UNL     1      22.751   2.723  52.246  1.00  0.00     0.161 C 
HETATM   16  H15 UNL     1      20.794   3.546  52.241  1.00  0.00     0.160 HD
ENDROOT
BRANCH  12  17
HETATM   17  N4  UNL     1      18.991   2.842  51.002  1.00  0.00    -0.339 N 
HETATM   18  H11 UNL     1      18.710   3.764  51.387  1.00  0.00     0.167 HD
BRANCH  17  19
HETATM   19  C11 UNL     1      19.098   2.978  49.596  1.00  0.00     0.035 A 
HETATM   20  C12 UNL     1      18.009   3.110  48.771  1.00  0.00     0.032 A 
HETATM   21  C13 UNL     1      18.060   3.242  47.404  1.00  0.00     0.046 A 
HETATM   22  C14 UNL     1      19.276   3.248  46.756  1.00  0.00     0.138 A 
HETATM   23  F1  UNL     1      19.412   3.371  45.415  1.00  0.00    -0.204 F 
HETATM   24  C15 UNL     1      20.406   3.119  47.532  1.00  0.00     0.074 A 
HETATM   25 CL1  UNL     1      21.983   3.120  46.783  1.00  0.00    -0.081 Cl
HETATM   26  C16 UNL     1      20.277   2.992  48.891  1.00  0.00     0.056 A 
ENDBRANCH  17  19
ENDBRANCH  12  17
BRANCH   1  27
HETATM   27  O2  UNL     1      26.493  -1.259  53.575  1.00  0.00    -0.252 OA
BRANCH  27  28
HETATM   28  C2  UNL     1      27.758  -0.760  53.340  1.00  0.00     0.369 C 
BRANCH  28  29
HETATM   29  O1  UNL     1      28.399  -0.594  54.567  1.00  0.00    -0.369 OA
HETATM   30  C1  UNL     1      29.001   0.672  54.560  1.00  0.00     0.204 C 
ENDBRANCH  28  29
ENDBRANCH  27  28
ENDBRANCH   1  27
TORSDOF 5
ENDMDL
