MODEL 1
REMARK VINA RESULT:      -7.8      0.000      0.000
REMARK  10 active torsions:
REMARK  status: ('A' for Active; 'I' for Inactive)
REMARK    1  A    between atoms: O1_2  and  C2_3 
REMARK    2  A    between atoms: C2_3  and  C3_4 
REMARK    3  A    between atoms: C3_4  and  C4_5 
REMARK       I    between atoms: C4_5  and  N1_7 
REMARK    4  A    between atoms: N1_7  and  C5_8 
REMARK    5  A    between atoms: C7_11  and  C8_12 
REMARK    6  A    between atoms: C9_13  and  C10_15 
REMARK    7  A    between atoms: C14_20  and  O3_21 
REMARK    8  A    between atoms: O3_21  and  C15_22 
REMARK    9  A    between atoms: C15_22  and  C16_23 
REMARK   10  A    between atoms: C16_23  and  N3_24 
ROOT
HETATM    1  C5  UNL     1      23.437   0.739  53.196  1.00  0.00     0.434 C 
HETATM    2  N2  UNL     1      23.675  -0.665  53.342  1.00  0.00     0.130 N 
HETATM    3  C6  UNL     1      24.968  -1.002  53.899  1.00  0.00     0.315 C 
HETATM    4  C7  UNL     1      26.016  -0.380  53.087  1.00  0.00    -0.002 C 
HETATM    5  C11 UNL     1      25.791   0.716  52.369  1.00  0.00     0.045 A 
HETATM    6  C12 UNL     1      26.728   1.439  51.521  1.00  0.00     0.033 A 
HETATM    7  C13 UNL     1      26.378   2.526  50.865  1.00  0.00     0.040 A 
HETATM    8  C14 UNL     1      25.016   3.099  50.938  1.00  0.00     0.084 A 
HETATM    9  C22 UNL     1      24.133   2.473  51.697  1.00  0.00     0.132 A 
HETATM   10  N4  UNL     1      24.495   1.300  52.409  1.00  0.00    -0.307 N 
HETATM   11  H10 UNL     1      23.460  -1.138  52.444  1.00  0.00     0.321 HD
ENDROOT
BRANCH   8  12
HETATM   12  O3  UNL     1      24.889   4.223  50.177  1.00  0.00    -0.348 OA
BRANCH  12  13
HETATM   13  C15 UNL     1      25.913   4.827  49.416  1.00  0.00     0.195 C 
BRANCH  13  14
HETATM   14  C16 UNL     1      25.617   6.241  49.072  1.00  0.00     0.143 C 
BRANCH  14  15
HETATM   15  N3  UNL     1      26.594   7.217  49.263  1.00  0.00    -0.410 N 
HETATM   16  C17 UNL     1      26.253   8.513  49.696  1.00  0.00     0.117 C 
HETATM   17  C18 UNL     1      27.419   9.305  50.247  1.00  0.00     0.019 C 
HETATM   18  C19 UNL     1      28.672   9.123  49.437  1.00  0.00     0.003 C 
HETATM   19  C20 UNL     1      28.264   8.534  48.104  1.00  0.00     0.019 C 
HETATM   20  C21 UNL     1      27.740   7.142  48.397  1.00  0.00     0.117 C 
ENDBRANCH  14  15
ENDBRANCH  13  14
ENDBRANCH  12  13
ENDBRANCH   8  12
BRANCH   1  21
HETATM   21  N1  UNL     1      22.118   0.893  52.635  1.00  0.00    -0.315 N 
HETATM   22  C4  UNL     1      20.921   0.641  53.384  1.00  0.00     0.222 C 
HETATM   23  O2  UNL     1      21.157   0.278  54.560  1.00  0.00    -0.273 OA
HETATM   24  H8  UNL     1      22.200   1.205  51.644  1.00  0.00     0.166 HD
BRANCH  22  25
HETATM   25  C3  UNL     1      19.706   0.875  52.562  1.00  0.00     0.129 C 
BRANCH  25  26
HETATM   26  C2  UNL     1      19.782   2.178  51.800  1.00  0.00     0.176 C 
BRANCH  26  27
HETATM   27  O1  UNL     1      20.194   3.184  52.660  1.00  0.00    -0.395 OA
HETATM   28  C1  UNL     1      20.887   4.179  51.949  1.00  0.00     0.201 C 
ENDBRANCH  26  27
ENDBRANCH  25  26
ENDBRANCH  22  25
ENDBRANCH   1  21
BRANCH   4  29
HETATM   29  C8  UNL     1      27.363  -0.911  53.020  1.00  0.00     0.033 C 
HETATM   30  C9  UNL     1      28.459  -0.614  53.698  1.00  0.00     0.041 C 
HETATM   31 CL1  UNL     1      28.602   0.594  54.956  1.00  0.00    -0.086 Cl
BRANCH  30  32
HETATM   32  C10 UNL     1      29.806  -1.183  53.587  1.00  0.00     0.273 C 
HETATM   33  F1  UNL     1      29.788  -2.569  53.574  1.00  0.00    -0.250 F 
ENDBRANCH  30  32
ENDBRANCH   4  29
TORSDOF 10
ENDMDL
MODEL 2
REMARK VINA RESULT:      -7.8      2.442      4.017
REMARK  10 active torsions:
REMARK  status: ('A' for Active; 'I' for Inactive)
REMARK    1  A    between atoms: O1_2  and  C2_3 
REMARK    2  A    between atoms: C2_3  and  C3_4 
REMARK    3  A    between atoms: C3_4  and  C4_5 
REMARK       I    between atoms: C4_5  and  N1_7 
REMARK    4  A    between atoms: N1_7  and  C5_8 
REMARK    5  A    between atoms: C7_11  and  C8_12 
REMARK    6  A    between atoms: C9_13  and  C10_15 
REMARK    7  A    between atoms: C14_20  and  O3_21 
REMARK    8  A    between atoms: O3_21  and  C15_22 
REMARK    9  A    between atoms: C15_22  and  C16_23 
REMARK   10  A    between atoms: C16_23  and  N3_24 
ROOT
HETATM    1  C5  UNL     1      23.375   1.049  53.097  1.00  0.00     0.434 C 
HETATM    2  N2  UNL     1      23.559  -0.370  53.128  1.00  0.00     0.130 N 
HETATM    3  C6  UNL     1      24.841  -0.800  53.644  1.00  0.00     0.315 C 
HETATM    4  C7  UNL     1      25.908  -0.155  52.875  1.00  0.00    -0.002 C 
HETATM    5  C11 UNL     1      25.721   1.003  52.249  1.00  0.00     0.045 A 
HETATM    6  C12 UNL     1      26.680   1.755  51.454  1.00  0.00     0.033 A 
HETATM    7  C13 UNL     1      26.369   2.905  50.890  1.00  0.00     0.040 A 
HETATM    8  C14 UNL     1      25.031   3.521  51.021  1.00  0.00     0.084 A 
HETATM    9  C22 UNL     1      24.128   2.871  51.736  1.00  0.00     0.132 A 
HETATM   10  N4  UNL     1      24.448   1.631  52.348  1.00  0.00    -0.307 N 
HETATM   11  H10 UNL     1      23.320  -0.760  52.197  1.00  0.00     0.321 HD
ENDROOT
BRANCH   8  12
HETATM   12  O3  UNL     1      24.943   4.707  50.354  1.00  0.00    -0.348 OA
BRANCH  12  13
HETATM   13  C15 UNL     1      24.563   4.871  49.005  1.00  0.00     0.195 C 
BRANCH  13  14
HETATM   14  C16 UNL     1      23.115   5.162  48.846  1.00  0.00     0.143 C 
BRANCH  14  15
HETATM   15  N3  UNL     1      22.202   4.109  48.785  1.00  0.00    -0.410 N 
HETATM   16  C17 UNL     1      21.176   3.979  49.742  1.00  0.00     0.117 C 
HETATM   17  C18 UNL     1      20.049   3.064  49.315  1.00  0.00     0.019 C 
HETATM   18  C19 UNL     1      20.544   1.828  48.618  1.00  0.00     0.003 C 
HETATM   19  C20 UNL     1      22.020   1.698  48.926  1.00  0.00     0.019 C 
HETATM   20  C21 UNL     1      22.701   2.871  48.250  1.00  0.00     0.117 C 
ENDBRANCH  14  15
ENDBRANCH  13  14
ENDBRANCH  12  13
ENDBRANCH   8  12
BRANCH   1  21
HETATM   21  N1  UNL     1      22.059   1.298  52.563  1.00  0.00    -0.315 N 
HETATM   22  C4  UNL     1      20.857   0.931  53.253  1.00  0.00     0.222 C 
HETATM   23  O2  UNL     1      21.086   0.379  54.356  1.00  0.00    -0.273 OA
HETATM   24  H8  UNL     1      22.148   1.768  51.636  1.00  0.00     0.166 HD
BRANCH  22  25
HETATM   25  C3  UNL     1      19.648   1.302  52.475  1.00  0.00     0.129 C 
BRANCH  25  26
HETATM   26  C2  UNL     1      19.041   0.110  51.771  1.00  0.00     0.176 C 
BRANCH  26  27
HETATM   27  O1  UNL     1      17.822  -0.193  52.358  1.00  0.00    -0.395 OA
HETATM   28  C1  UNL     1      17.929  -1.366  53.124  1.00  0.00     0.201 C 
ENDBRANCH  26  27
ENDBRANCH  25  26
ENDBRANCH  22  25
ENDBRANCH   1  21
BRANCH   4  29
HETATM   29  C8  UNL     1      27.233  -0.730  52.754  1.00  0.00     0.033 C 
HETATM   30  C9  UNL     1      28.297  -0.657  53.535  1.00  0.00     0.041 C 
HETATM   31 CL1  UNL     1      28.413   0.221  55.044  1.00  0.00    -0.086 Cl
BRANCH  30  32
HETATM   32  C10 UNL     1      29.623  -1.259  53.363  1.00  0.00     0.273 C 
HETATM   33  F1  UNL     1      30.641  -0.334  53.530  1.00  0.00    -0.250 F 
ENDBRANCH  30  32
ENDBRANCH   4  29
TORSDOF 10
ENDMDL
MODEL 3
REMARK VINA RESULT:      -7.6      3.823      8.589
REMARK  10 active torsions:
REMARK  status: ('A' for Active; 'I' for Inactive)
REMARK    1  A    between atoms: O1_2  and  C2_3 
REMARK    2  A    between atoms: C2_3  and  C3_4 
REMARK    3  A    between atoms: C3_4  and  C4_5 
REMARK       I    between atoms: C4_5  and  N1_7 
REMARK    4  A    between atoms: N1_7  and  C5_8 
REMARK    5  A    between atoms: C7_11  and  C8_12 
REMARK    6  A    between atoms: C9_13  and  C10_15 
REMARK    7  A    between atoms: C14_20  and  O3_21 
REMARK    8  A    between atoms: O3_21  and  C15_22 
REMARK    9  A    between atoms: C15_22  and  C16_23 
REMARK   10  A    between atoms: C16_23  and  N3_24 
ROOT
HETATM    1  C5  UNL     1      25.470   3.307  51.066  1.00  0.00     0.434 C 
HETATM    2  N2  UNL     1      26.155   3.494  49.823  1.00  0.00     0.130 N 
HETATM    3  C6  UNL     1      26.166   4.859  49.341  1.00  0.00     0.315 C 
HETATM    4  C7  UNL     1      24.788   5.347  49.253  1.00  0.00    -0.002 C 
HETATM    5  C11 UNL     1      23.815   4.843  50.006  1.00  0.00     0.045 A 
HETATM    6  C12 UNL     1      22.410   5.225  50.026  1.00  0.00     0.033 A 
HETATM    7  C13 UNL     1      21.544   4.650  50.834  1.00  0.00     0.040 A 
HETATM    8  C14 UNL     1      21.925   3.579  51.781  1.00  0.00     0.084 A 
HETATM    9  C22 UNL     1      23.191   3.202  51.796  1.00  0.00     0.132 A 
HETATM   10  N4  UNL     1      24.136   3.812  50.931  1.00  0.00    -0.307 N 
HETATM   11  H10 UNL     1      25.802   2.801  49.136  1.00  0.00     0.321 HD
ENDROOT
BRANCH   8  12
HETATM   12  O3  UNL     1      20.862   3.138  52.513  1.00  0.00    -0.348 OA
BRANCH  12  13
HETATM   13  C15 UNL     1      19.791   2.357  52.028  1.00  0.00     0.195 C 
BRANCH  13  14
HETATM   14  C16 UNL     1      20.142   0.920  51.892  1.00  0.00     0.143 C 
BRANCH  14  15
HETATM   15  N3  UNL     1      20.934   0.308  52.864  1.00  0.00    -0.410 N 
HETATM   16  C17 UNL     1      22.218  -0.181  52.554  1.00  0.00     0.117 C 
HETATM   17  C18 UNL     1      23.092  -0.425  53.765  1.00  0.00     0.019 C 
HETATM   18  C19 UNL     1      22.337  -1.055  54.902  1.00  0.00     0.003 C 
HETATM   19  C20 UNL     1      21.051  -1.614  54.333  1.00  0.00     0.019 C 
HETATM   20  C21 UNL     1      20.231  -0.421  53.885  1.00  0.00     0.117 C 
ENDBRANCH  14  15
ENDBRANCH  13  14
ENDBRANCH  12  13
ENDBRANCH   8  12
BRANCH   1  21
HETATM   21  N1  UNL     1      25.557   1.906  51.395  1.00  0.00    -0.315 N 
HETATM   22  C4  UNL     1      26.734   1.311  51.959  1.00  0.00     0.222 C 
HETATM   23  O2  UNL     1      27.657   2.141  52.129  1.00  0.00    -0.273 OA
HETATM   24  H8  UNL     1      24.654   1.440  51.157  1.00  0.00     0.166 HD
BRANCH  22  25
HETATM   25  C3  UNL     1      26.548  -0.144  52.195  1.00  0.00     0.129 C 
BRANCH  25  26
HETATM   26  C2  UNL     1      27.677  -0.733  53.009  1.00  0.00     0.176 C 
BRANCH  26  27
HETATM   27  O1  UNL     1      27.448  -0.479  54.353  1.00  0.00    -0.395 OA
HETATM   28  C1  UNL     1      28.575   0.128  54.933  1.00  0.00     0.201 C 
ENDBRANCH  26  27
ENDBRANCH  25  26
ENDBRANCH  22  25
ENDBRANCH   1  21
BRANCH   4  29
HETATM   29  C8  UNL     1      24.398   6.411  48.348  1.00  0.00     0.033 C 
HETATM   30  C9  UNL     1      24.409   7.726  48.483  1.00  0.00     0.041 C 
HETATM   31 CL1  UNL     1      24.933   8.617  49.896  1.00  0.00    -0.086 Cl
BRANCH  30  32
HETATM   32  C10 UNL     1      23.998   8.764  47.533  1.00  0.00     0.273 C 
HETATM   33  F1  UNL     1      24.598   8.604  46.293  1.00  0.00    -0.250 F 
ENDBRANCH  30  32
ENDBRANCH   4  29
TORSDOF 10
ENDMDL
MODEL 4
REMARK VINA RESULT:      -7.5      2.822      7.150
REMARK  10 active torsions:
REMARK  status: ('A' for Active; 'I' for Inactive)
REMARK    1  A    between atoms: O1_2  and  C2_3 
REMARK    2  A    between atoms: C2_3  and  C3_4 
REMARK    3  A    between atoms: C3_4  and  C4_5 
REMARK       I    between atoms: C4_5  and  N1_7 
REMARK    4  A    between atoms: N1_7  and  C5_8 
REMARK    5  A    between atoms: C7_11  and  C8_12 
REMARK    6  A    between atoms: C9_13  and  C10_15 
REMARK    7  A    between atoms: C14_20  and  O3_21 
REMARK    8  A    between atoms: O3_21  and  C15_22 
REMARK    9  A    between atoms: C15_22  and  C16_23 
REMARK   10  A    between atoms: C16_23  and  N3_24 
ROOT
HETATM    1  C5  UNL     1      24.479   2.804  51.353  1.00  0.00     0.434 C 
HETATM    2  N2  UNL     1      25.844   3.191  51.545  1.00  0.00     0.130 N 
HETATM    3  C6  UNL     1      26.805   2.126  51.344  1.00  0.00     0.315 C 
HETATM    4  C7  UNL     1      26.458   0.998  52.211  1.00  0.00    -0.002 C 
HETATM    5  C11 UNL     1      25.214   0.792  52.632  1.00  0.00     0.045 A 
HETATM    6  C12 UNL     1      24.725  -0.277  53.490  1.00  0.00     0.033 A 
HETATM    7  C13 UNL     1      23.455  -0.374  53.827  1.00  0.00     0.040 A 
HETATM    8  C14 UNL     1      22.430   0.586  53.363  1.00  0.00     0.084 A 
HETATM    9  C22 UNL     1      22.831   1.574  52.581  1.00  0.00     0.132 A 
HETATM   10  N4  UNL     1      24.196   1.692  52.210  1.00  0.00    -0.307 N 
HETATM   11  H10 UNL     1      25.931   3.678  52.456  1.00  0.00     0.321 HD
ENDROOT
BRANCH   8  12
HETATM   12  O3  UNL     1      21.189   0.284  53.840  1.00  0.00    -0.348 OA
BRANCH  12  13
HETATM   13  C15 UNL     1      20.495  -0.927  53.632  1.00  0.00     0.195 C 
BRANCH  13  14
HETATM   14  C16 UNL     1      19.023  -0.742  53.558  1.00  0.00     0.143 C 
BRANCH  14  15
HETATM   15  N3  UNL     1      18.415  -0.526  52.321  1.00  0.00    -0.410 N 
HETATM   16  C17 UNL     1      18.653   0.654  51.590  1.00  0.00     0.117 C 
HETATM   17  C18 UNL     1      18.273   0.559  50.129  1.00  0.00     0.019 C 
HETATM   18  C19 UNL     1      16.975  -0.170  49.918  1.00  0.00     0.003 C 
HETATM   19  C20 UNL     1      16.265  -0.218  51.253  1.00  0.00     0.019 C 
HETATM   20  C21 UNL     1      17.108  -1.099  52.152  1.00  0.00     0.117 C 
ENDBRANCH  14  15
ENDBRANCH  13  14
ENDBRANCH  12  13
ENDBRANCH   8  12
BRANCH   1  21
HETATM   21  N1  UNL     1      23.667   3.972  51.588  1.00  0.00    -0.315 N 
HETATM   22  C4  UNL     1      23.507   5.016  50.618  1.00  0.00     0.222 C 
HETATM   23  O2  UNL     1      24.145   4.793  49.562  1.00  0.00    -0.273 OA
HETATM   24  H8  UNL     1      23.247   3.912  52.541  1.00  0.00     0.166 HD
BRANCH  22  25
HETATM   25  C3  UNL     1      22.622   6.097  51.123  1.00  0.00     0.129 C 
BRANCH  25  26
HETATM   26  C2  UNL     1      21.170   5.839  50.792  1.00  0.00     0.176 C 
BRANCH  26  27
HETATM   27  O1  UNL     1      20.828   4.563  51.213  1.00  0.00    -0.395 OA
HETATM   28  C1  UNL     1      19.916   3.983  50.314  1.00  0.00     0.201 C 
ENDBRANCH  26  27
ENDBRANCH  25  26
ENDBRANCH  22  25
ENDBRANCH   1  21
BRANCH   4  29
HETATM   29  C8  UNL     1      27.442   0.032  52.658  1.00  0.00     0.033 C 
HETATM   30  C9  UNL     1      28.516   0.160  53.418  1.00  0.00     0.041 C 
HETATM   31 CL1  UNL     1      29.095   1.642  54.150  1.00  0.00    -0.086 Cl
BRANCH  30  32
HETATM   32  C10 UNL     1      29.487  -0.855  53.838  1.00  0.00     0.273 C 
HETATM   33  F1  UNL     1      29.427  -1.993  53.050  1.00  0.00    -0.250 F 
ENDBRANCH  30  32
ENDBRANCH   4  29
TORSDOF 10
ENDMDL
MODEL 5
REMARK VINA RESULT:      -7.5      1.969      2.653
REMARK  10 active torsions:
REMARK  status: ('A' for Active; 'I' for Inactive)
REMARK    1  A    between atoms: O1_2  and  C2_3 
REMARK    2  A    between atoms: C2_3  and  C3_4 
REMARK    3  A    between atoms: C3_4  and  C4_5 
REMARK       I    between atoms: C4_5  and  N1_7 
REMARK    4  A    between atoms: N1_7  and  C5_8 
REMARK    5  A    between atoms: C7_11  and  C8_12 
REMARK    6  A    between atoms: C9_13  and  C10_15 
REMARK    7  A    between atoms: C14_20  and  O3_21 
REMARK    8  A    between atoms: O3_21  and  C15_22 
REMARK    9  A    between atoms: C15_22  and  C16_23 
REMARK   10  A    between atoms: C16_23  and  N3_24 
ROOT
HETATM    1  C5  UNL     1      23.489   0.714  53.049  1.00  0.00     0.434 C 
HETATM    2  N2  UNL     1      23.961  -0.561  53.499  1.00  0.00     0.130 N 
HETATM    3  C6  UNL     1      25.205  -0.515  54.238  1.00  0.00     0.315 C 
HETATM    4  C7  UNL     1      26.221   0.158  53.426  1.00  0.00    -0.002 C 
HETATM    5  C11 UNL     1      25.897   1.037  52.483  1.00  0.00     0.045 A 
HETATM    6  C12 UNL     1      26.791   1.777  51.604  1.00  0.00     0.033 A 
HETATM    7  C13 UNL     1      26.339   2.633  50.711  1.00  0.00     0.040 A 
HETATM    8  C14 UNL     1      24.897   2.911  50.530  1.00  0.00     0.084 A 
HETATM    9  C22 UNL     1      24.050   2.260  51.308  1.00  0.00     0.132 A 
HETATM   10  N4  UNL     1      24.521   1.335  52.274  1.00  0.00    -0.307 N 
HETATM   11  H10 UNL     1      23.964  -1.220  52.698  1.00  0.00     0.321 HD
ENDROOT
BRANCH   8  12
HETATM   12  O3  UNL     1      24.670   3.830  49.549  1.00  0.00    -0.348 OA
BRANCH  12  13
HETATM   13  C15 UNL     1      25.407   5.015  49.338  1.00  0.00     0.195 C 
BRANCH  13  14
HETATM   14  C16 UNL     1      24.984   6.123  50.232  1.00  0.00     0.143 C 
BRANCH  14  15
HETATM   15  N3  UNL     1      23.786   6.792  49.982  1.00  0.00    -0.410 N 
HETATM   16  C17 UNL     1      23.719   8.199  50.006  1.00  0.00     0.117 C 
HETATM   17  C18 UNL     1      22.496   8.769  49.322  1.00  0.00     0.019 C 
HETATM   18  C19 UNL     1      21.250   7.984  49.623  1.00  0.00     0.003 C 
HETATM   19  C20 UNL     1      21.543   7.122  50.832  1.00  0.00     0.019 C 
HETATM   20  C21 UNL     1      22.587   6.114  50.394  1.00  0.00     0.117 C 
ENDBRANCH  14  15
ENDBRANCH  13  14
ENDBRANCH  12  13
ENDBRANCH   8  12
BRANCH   1  21
HETATM   21  N1  UNL     1      22.254   0.486  52.340  1.00  0.00    -0.315 N 
HETATM   22  C4  UNL     1      20.993   0.326  53.006  1.00  0.00     0.222 C 
HETATM   23  O2  UNL     1      21.094   0.409  54.252  1.00  0.00    -0.273 OA
HETATM   24  H8  UNL     1      22.445   0.462  51.315  1.00  0.00     0.166 HD
BRANCH  22  25
HETATM   25  C3  UNL     1      19.891   0.103  52.036  1.00  0.00     0.129 C 
BRANCH  25  26
HETATM   26  C2  UNL     1      19.583   1.346  51.234  1.00  0.00     0.176 C 
BRANCH  26  27
HETATM   27  O1  UNL     1      20.201   2.435  51.829  1.00  0.00    -0.395 OA
HETATM   28  C1  UNL     1      19.464   3.606  51.583  1.00  0.00     0.201 C 
ENDBRANCH  26  27
ENDBRANCH  25  26
ENDBRANCH  22  25
ENDBRANCH   1  21
BRANCH   4  29
HETATM   29  C8  UNL     1      27.639  -0.083  53.603  1.00  0.00     0.033 C 
HETATM   30  C9  UNL     1      28.387  -1.145  53.359  1.00  0.00     0.041 C 
HETATM   31 CL1  UNL     1      27.832  -2.673  52.708  1.00  0.00    -0.086 Cl
BRANCH  30  32
HETATM   32  C10 UNL     1      29.826  -1.339  53.562  1.00  0.00     0.273 C 
HETATM   33  F1  UNL     1      30.532  -0.151  53.457  1.00  0.00    -0.250 F 
ENDBRANCH  30  32
ENDBRANCH   4  29
TORSDOF 10
ENDMDL
MODEL 6
REMARK VINA RESULT:      -7.4      3.698      6.323
REMARK  10 active torsions:
REMARK  status: ('A' for Active; 'I' for Inactive)
REMARK    1  A    between atoms: O1_2  and  C2_3 
REMARK    2  A    between atoms: C2_3  and  C3_4 
REMARK    3  A    between atoms: C3_4  and  C4_5 
REMARK       I    between atoms: C4_5  and  N1_7 
REMARK    4  A    between atoms: N1_7  and  C5_8 
REMARK    5  A    between atoms: C7_11  and  C8_12 
REMARK    6  A    between atoms: C9_13  and  C10_15 
REMARK    7  A    between atoms: C14_20  and  O3_21 
REMARK    8  A    between atoms: O3_21  and  C15_22 
REMARK    9  A    between atoms: C15_22  and  C16_23 
REMARK   10  A    between atoms: C16_23  and  N3_24 
ROOT
HETATM    1  C5  UNL     1      23.923   0.604  52.516  1.00  0.00     0.434 C 
HETATM    2  N2  UNL     1      23.608  -0.456  53.425  1.00  0.00     0.130 N 
HETATM    3  C6  UNL     1      22.352  -1.124  53.159  1.00  0.00     0.315 C 
HETATM    4  C7  UNL     1      21.277  -0.129  53.128  1.00  0.00    -0.002 C 
HETATM    5  C11 UNL     1      21.508   1.145  52.827  1.00  0.00     0.045 A 
HETATM    6  C12 UNL     1      20.547   2.236  52.759  1.00  0.00     0.033 A 
HETATM    7  C13 UNL     1      20.906   3.462  52.436  1.00  0.00     0.040 A 
HETATM    8  C14 UNL     1      22.304   3.825  52.116  1.00  0.00     0.084 A 
HETATM    9  C22 UNL     1      23.210   2.864  52.165  1.00  0.00     0.132 A 
HETATM   10  N4  UNL     1      22.838   1.539  52.513  1.00  0.00    -0.307 N 
HETATM   11  H10 UNL     1      23.709  -0.107  54.396  1.00  0.00     0.321 HD
ENDROOT
BRANCH   8  12
HETATM   12  O3  UNL     1      22.435   5.148  51.811  1.00  0.00    -0.348 OA
BRANCH  12  13
HETATM   13  C15 UNL     1      23.648   5.866  51.745  1.00  0.00     0.195 C 
BRANCH  13  14
HETATM   14  C16 UNL     1      24.011   6.255  50.359  1.00  0.00     0.143 C 
BRANCH  14  15
HETATM   15  N3  UNL     1      25.251   5.881  49.839  1.00  0.00    -0.410 N 
HETATM   16  C17 UNL     1      25.675   6.332  48.574  1.00  0.00     0.117 C 
HETATM   17  C18 UNL     1      27.163   6.194  48.339  1.00  0.00     0.019 C 
HETATM   18  C19 UNL     1      27.710   4.894  48.861  1.00  0.00     0.003 C 
HETATM   19  C20 UNL     1      26.533   3.970  49.087  1.00  0.00     0.019 C 
HETATM   20  C21 UNL     1      25.726   4.578  50.216  1.00  0.00     0.117 C 
ENDBRANCH  14  15
ENDBRANCH  13  14
ENDBRANCH  12  13
ENDBRANCH   8  12
BRANCH   1  21
HETATM   21  N1  UNL     1      25.194   1.152  52.921  1.00  0.00    -0.315 N 
HETATM   22  C4  UNL     1      26.444   0.505  52.646  1.00  0.00     0.222 C 
HETATM   23  O2  UNL     1      26.299  -0.573  52.021  1.00  0.00    -0.273 OA
HETATM   24  H8  UNL     1      25.035   2.053  53.421  1.00  0.00     0.166 HD
BRANCH  22  25
HETATM   25  C3  UNL     1      27.589   1.285  53.178  1.00  0.00     0.129 C 
BRANCH  25  26
HETATM   26  C2  UNL     1      28.171   0.658  54.424  1.00  0.00     0.176 C 
BRANCH  26  27
HETATM   27  O1  UNL     1      29.526   0.435  54.230  1.00  0.00    -0.395 OA
HETATM   28  C1  UNL     1      29.724  -0.738  53.482  1.00  0.00     0.201 C 
ENDBRANCH  26  27
ENDBRANCH  25  26
ENDBRANCH  22  25
ENDBRANCH   1  21
BRANCH   4  29
HETATM   29  C8  UNL     1      19.898  -0.469  53.416  1.00  0.00     0.033 C 
HETATM   30  C9  UNL     1      18.822  -0.498  52.648  1.00  0.00     0.041 C 
HETATM   31 CL1  UNL     1      18.756  -0.101  50.945  1.00  0.00    -0.086 Cl
BRANCH  30  32
HETATM   32  C10 UNL     1      17.440  -0.847  52.993  1.00  0.00     0.273 C 
HETATM   33  F1  UNL     1      17.148  -2.171  52.702  1.00  0.00    -0.250 F 
ENDBRANCH  30  32
ENDBRANCH   4  29
TORSDOF 10
ENDMDL
MODEL 7
REMARK VINA RESULT:      -7.3      2.906      6.863
REMARK  10 active torsions:
REMARK  status: ('A' for Active; 'I' for Inactive)
REMARK    1  A    between atoms: O1_2  and  C2_3 
REMARK    2  A    between atoms: C2_3  and  C3_4 
REMARK    3  A    between atoms: C3_4  and  C4_5 
REMARK       I    between atoms: C4_5  and  N1_7 
REMARK    4  A    between atoms: N1_7  and  C5_8 
REMARK    5  A    between atoms: C7_11  and  C8_12 
REMARK    6  A    between atoms: C9_13  and  C10_15 
REMARK    7  A    between atoms: C14_20  and  O3_21 
REMARK    8  A    between atoms: O3_21  and  C15_22 
REMARK    9  A    between atoms: C15_22  and  C16_23 
REMARK   10  A    between atoms: C16_23  and  N3_24 
ROOT
HETATM    1  C5  UNL     1      25.936   4.108  50.024  1.00  0.00     0.434 C 
HETATM    2  N2  UNL     1      26.992   3.592  50.842  1.00  0.00     0.130 N 
HETATM    3  C6  UNL     1      26.728   2.288  51.414  1.00  0.00     0.315 C 
HETATM    4  C7  UNL     1      25.468   2.339  52.161  1.00  0.00    -0.002 C 
HETATM    5  C11 UNL     1      24.515   3.219  51.871  1.00  0.00     0.045 A 
HETATM    6  C12 UNL     1      23.224   3.385  52.522  1.00  0.00     0.033 A 
HETATM    7  C13 UNL     1      22.357   4.296  52.128  1.00  0.00     0.040 A 
HETATM    8  C14 UNL     1      22.624   5.215  51.000  1.00  0.00     0.084 A 
HETATM    9  C22 UNL     1      23.785   5.099  50.380  1.00  0.00     0.132 A 
HETATM   10  N4  UNL     1      24.729   4.122  50.793  1.00  0.00    -0.307 N 
HETATM   11  H10 UNL     1      27.265   4.314  51.534  1.00  0.00     0.321 HD
ENDROOT
BRANCH   8  12
HETATM   12  O3  UNL     1      21.584   6.070  50.776  1.00  0.00    -0.348 OA
BRANCH  12  13
HETATM   13  C15 UNL     1      20.297   5.706  50.329  1.00  0.00     0.195 C 
BRANCH  13  14
HETATM   14  C16 UNL     1      20.325   4.930  49.063  1.00  0.00     0.143 C 
BRANCH  14  15
HETATM   15  N3  UNL     1      20.735   3.597  49.079  1.00  0.00    -0.410 N 
HETATM   16  C17 UNL     1      21.242   2.977  47.920  1.00  0.00     0.117 C 
HETATM   17  C18 UNL     1      22.014   1.704  48.191  1.00  0.00     0.019 C 
HETATM   18  C19 UNL     1      21.361   0.847  49.239  1.00  0.00     0.003 C 
HETATM   19  C20 UNL     1      19.937   1.332  49.393  1.00  0.00     0.019 C 
HETATM   20  C21 UNL     1      20.024   2.728  49.977  1.00  0.00     0.117 C 
ENDBRANCH  14  15
ENDBRANCH  13  14
ENDBRANCH  12  13
ENDBRANCH   8  12
BRANCH   1  21
HETATM   21  N1  UNL     1      26.362   5.397  49.540  1.00  0.00    -0.315 N 
HETATM   22  C4  UNL     1      27.505   5.570  48.690  1.00  0.00     0.222 C 
HETATM   23  O2  UNL     1      28.075   4.486  48.424  1.00  0.00    -0.273 OA
HETATM   24  H8  UNL     1      25.718   6.131  49.905  1.00  0.00     0.166 HD
BRANCH  22  25
HETATM   25  C3  UNL     1      27.715   7.000  48.346  1.00  0.00     0.129 C 
BRANCH  25  26
HETATM   26  C2  UNL     1      26.572   7.869  48.819  1.00  0.00     0.176 C 
BRANCH  26  27
HETATM   27  O1  UNL     1      26.936   8.493  50.002  1.00  0.00    -0.395 OA
HETATM   28  C1  UNL     1      28.060   9.310  49.796  1.00  0.00     0.201 C 
ENDBRANCH  26  27
ENDBRANCH  25  26
ENDBRANCH  22  25
ENDBRANCH   1  21
BRANCH   4  29
HETATM   29  C8  UNL     1      25.178   1.432  53.254  1.00  0.00     0.033 C 
HETATM   30  C9  UNL     1      25.507   0.168  53.457  1.00  0.00     0.041 C 
HETATM   31 CL1  UNL     1      26.451  -0.841  52.381  1.00  0.00    -0.086 Cl
BRANCH  30  32
HETATM   32  C10 UNL     1      25.182  -0.710  54.585  1.00  0.00     0.273 C 
HETATM   33  F1  UNL     1      25.876  -0.363  55.733  1.00  0.00    -0.250 F 
ENDBRANCH  30  32
ENDBRANCH   4  29
TORSDOF 10
ENDMDL
MODEL 8
REMARK VINA RESULT:      -7.3      3.080      6.022
REMARK  10 active torsions:
REMARK  status: ('A' for Active; 'I' for Inactive)
REMARK    1  A    between atoms: O1_2  and  C2_3 
REMARK    2  A    between atoms: C2_3  and  C3_4 
REMARK    3  A    between atoms: C3_4  and  C4_5 
REMARK       I    between atoms: C4_5  and  N1_7 
REMARK    4  A    between atoms: N1_7  and  C5_8 
REMARK    5  A    between atoms: C7_11  and  C8_12 
REMARK    6  A    between atoms: C9_13  and  C10_15 
REMARK    7  A    between atoms: C14_20  and  O3_21 
REMARK    8  A    between atoms: O3_21  and  C15_22 
REMARK    9  A    between atoms: C15_22  and  C16_23 
REMARK   10  A    between atoms: C16_23  and  N3_24 
ROOT
HETATM    1  C5  UNL     1      26.027   3.646  49.755  1.00  0.00     0.434 C 
HETATM    2  N2  UNL     1      26.828   3.576  50.940  1.00  0.00     0.130 N 
HETATM    3  C6  UNL     1      26.773   2.304  51.630  1.00  0.00     0.315 C 
HETATM    4  C7  UNL     1      25.375   1.981  51.927  1.00  0.00    -0.002 C 
HETATM    5  C11 UNL     1      24.372   2.465  51.201  1.00  0.00     0.045 A 
HETATM    6  C12 UNL     1      22.946   2.233  51.378  1.00  0.00     0.033 A 
HETATM    7  C13 UNL     1      22.049   2.769  50.576  1.00  0.00     0.040 A 
HETATM    8  C14 UNL     1      22.414   3.641  49.438  1.00  0.00     0.084 A 
HETATM    9  C22 UNL     1      23.700   3.878  49.241  1.00  0.00     0.132 A 
HETATM   10  N4  UNL     1      24.678   3.308  50.097  1.00  0.00    -0.307 N 
HETATM   11  H10 UNL     1      26.616   4.396  51.538  1.00  0.00     0.321 HD
ENDROOT
BRANCH   8  12
HETATM   12  O3  UNL     1      21.319   4.076  48.752  1.00  0.00    -0.348 OA
BRANCH  12  13
HETATM   13  C15 UNL     1      20.025   4.250  49.284  1.00  0.00     0.195 C 
BRANCH  13  14
HETATM   14  C16 UNL     1      19.752   5.653  49.691  1.00  0.00     0.143 C 
BRANCH  14  15
HETATM   15  N3  UNL     1      20.778   6.597  49.641  1.00  0.00    -0.410 N 
HETATM   16  C17 UNL     1      21.512   6.936  50.794  1.00  0.00     0.117 C 
HETATM   17  C18 UNL     1      22.823   7.634  50.505  1.00  0.00     0.019 C 
HETATM   18  C19 UNL     1      22.704   8.650  49.404  1.00  0.00     0.003 C 
HETATM   19  C20 UNL     1      21.230   8.938  49.216  1.00  0.00     0.019 C 
HETATM   20  C21 UNL     1      20.611   7.660  48.686  1.00  0.00     0.117 C 
ENDBRANCH  14  15
ENDBRANCH  13  14
ENDBRANCH  12  13
ENDBRANCH   8  12
BRANCH   1  21
HETATM   21  N1  UNL     1      26.200   4.965  49.200  1.00  0.00    -0.315 N 
HETATM   22  C4  UNL     1      27.415   5.390  48.567  1.00  0.00     0.222 C 
HETATM   23  O2  UNL     1      28.290   4.492  48.555  1.00  0.00    -0.273 OA
HETATM   24  H8  UNL     1      25.324   5.514  49.340  1.00  0.00     0.166 HD
BRANCH  22  25
HETATM   25  C3  UNL     1      27.318   6.793  48.090  1.00  0.00     0.129 C 
BRANCH  25  26
HETATM   26  C2  UNL     1      26.144   7.519  48.704  1.00  0.00     0.176 C 
BRANCH  26  27
HETATM   27  O1  UNL     1      26.432   7.811  50.029  1.00  0.00    -0.395 OA
HETATM   28  C1  UNL     1      27.144   9.020  50.116  1.00  0.00     0.201 C 
ENDBRANCH  26  27
ENDBRANCH  25  26
ENDBRANCH  22  25
ENDBRANCH   1  21
BRANCH   4  29
HETATM   29  C8  UNL     1      24.997   1.110  53.023  1.00  0.00     0.033 C 
HETATM   30  C9  UNL     1      25.372  -0.117  53.338  1.00  0.00     0.041 C 
HETATM   31 CL1  UNL     1      26.510  -1.110  52.454  1.00  0.00    -0.086 Cl
BRANCH  30  32
HETATM   32  C10 UNL     1      24.952  -0.960  54.462  1.00  0.00     0.273 C 
HETATM   33  F1  UNL     1      23.582  -0.912  54.669  1.00  0.00    -0.250 F 
ENDBRANCH  30  32
ENDBRANCH   4  29
TORSDOF 10
ENDMDL
MODEL 9
REMARK VINA RESULT:      -7.3      2.169      6.318
REMARK  10 active torsions:
REMARK  status: ('A' for Active; 'I' for Inactive)
REMARK    1  A    between atoms: O1_2  and  C2_3 
REMARK    2  A    between atoms: C2_3  and  C3_4 
REMARK    3  A    between atoms: C3_4  and  C4_5 
REMARK       I    between atoms: C4_5  and  N1_7 
REMARK    4  A    between atoms: N1_7  and  C5_8 
REMARK    5  A    between atoms: C7_11  and  C8_12 
REMARK    6  A    between atoms: C9_13  and  C10_15 
REMARK    7  A    between atoms: C14_20  and  O3_21 
REMARK    8  A    between atoms: O3_21  and  C15_22 
REMARK    9  A    between atoms: C15_22  and  C16_23 
REMARK   10  A    between atoms: C16_23  and  N3_24 
ROOT
HETATM    1  C5  UNL     1      24.341   3.078  50.816  1.00  0.00     0.434 C 
HETATM    2  N2  UNL     1      25.685   3.504  51.065  1.00  0.00     0.130 N 
HETATM    3  C6  UNL     1      26.663   2.435  51.077  1.00  0.00     0.315 C 
HETATM    4  C7  UNL     1      26.250   1.420  52.049  1.00  0.00    -0.002 C 
HETATM    5  C11 UNL     1      24.977   1.252  52.392  1.00  0.00     0.045 A 
HETATM    6  C12 UNL     1      24.425   0.292  53.337  1.00  0.00     0.033 A 
HETATM    7  C13 UNL     1      23.132   0.220  53.581  1.00  0.00     0.040 A 
HETATM    8  C14 UNL     1      22.145   1.101  52.920  1.00  0.00     0.084 A 
HETATM    9  C22 UNL     1      22.604   1.989  52.054  1.00  0.00     0.132 A 
HETATM   10  N4  UNL     1      23.994   2.078  51.781  1.00  0.00    -0.307 N 
HETATM   11  H10 UNL     1      25.697   4.102  51.912  1.00  0.00     0.321 HD
ENDROOT
BRANCH   8  12
HETATM   12  O3  UNL     1      20.870   0.844  53.330  1.00  0.00    -0.348 OA
BRANCH  12  13
HETATM   13  C15 UNL     1      20.039  -0.189  52.849  1.00  0.00     0.195 C 
BRANCH  13  14
HETATM   14  C16 UNL     1      18.950   0.310  51.970  1.00  0.00     0.143 C 
BRANCH  14  15
HETATM   15  N3  UNL     1      19.120   1.505  51.271  1.00  0.00    -0.410 N 
HETATM   16  C17 UNL     1      18.319   2.630  51.548  1.00  0.00     0.117 C 
HETATM   17  C18 UNL     1      18.885   3.932  51.025  1.00  0.00     0.019 C 
HETATM   18  C19 UNL     1      19.478   3.791  49.650  1.00  0.00     0.003 C 
HETATM   19  C20 UNL     1      18.958   2.495  49.067  1.00  0.00     0.019 C 
HETATM   20  C21 UNL     1      19.553   1.382  49.906  1.00  0.00     0.117 C 
ENDBRANCH  14  15
ENDBRANCH  13  14
ENDBRANCH  12  13
ENDBRANCH   8  12
BRANCH   1  21
HETATM   21  N1  UNL     1      23.509   4.255  50.837  1.00  0.00    -0.315 N 
HETATM   22  C4  UNL     1      23.234   5.034  49.664  1.00  0.00     0.222 C 
HETATM   23  O2  UNL     1      23.793   4.575  48.640  1.00  0.00    -0.273 OA
HETATM   24  H8  UNL     1      23.168   4.417  51.809  1.00  0.00     0.166 HD
BRANCH  22  25
HETATM   25  C3  UNL     1      22.354   6.190  49.973  1.00  0.00     0.129 C 
BRANCH  25  26
HETATM   26  C2  UNL     1      23.052   7.218  50.833  1.00  0.00     0.176 C 
BRANCH  26  27
HETATM   27  O1  UNL     1      24.421   7.117  50.641  1.00  0.00    -0.395 OA
HETATM   28  C1  UNL     1      24.926   8.314  50.105  1.00  0.00     0.201 C 
ENDBRANCH  26  27
ENDBRANCH  25  26
ENDBRANCH  22  25
ENDBRANCH   1  21
BRANCH   4  29
HETATM   29  C8  UNL     1      27.199   0.531  52.691  1.00  0.00     0.033 C 
HETATM   30  C9  UNL     1      28.278   0.773  53.415  1.00  0.00     0.041 C 
HETATM   31 CL1  UNL     1      28.912   2.351  53.831  1.00  0.00    -0.086 Cl
BRANCH  30  32
HETATM   32  C10 UNL     1      29.211  -0.168  54.041  1.00  0.00     0.273 C 
HETATM   33  F1  UNL     1      30.467  -0.126  53.455  1.00  0.00    -0.250 F 
ENDBRANCH  30  32
ENDBRANCH   4  29
TORSDOF 10
ENDMDL
