MODEL 1
REMARK VINA RESULT:      -8.7      0.000      0.000
REMARK  4 active torsions:
REMARK  status: ('A' for Active; 'I' for Inactive)
REMARK    1  A    between atoms: C2_2  and  C3_3 
REMARK    2  A    between atoms: C3_3  and  N1_4 
REMARK    3  A    between atoms: C10_15  and  N4_16 
REMARK    4  A    between atoms: N4_16  and  C11_17 
ROOT
HETATM    1  N1  UNL     1      26.770   0.874  52.699  1.00  0.00    -0.314 N 
HETATM    2  C4  UNL     1      28.041   0.871  53.350  1.00  0.00     0.248 C 
HETATM    3  O1  UNL     1      28.884   1.705  52.961  1.00  0.00    -0.271 OA
HETATM    4  C5  UNL     1      28.280  -0.122  54.444  1.00  0.00     0.279 C 
HETATM    5  O2  UNL     1      27.090  -0.305  55.214  1.00  0.00    -0.340 OA
HETATM    6  C6  UNL     1      25.839  -0.306  54.575  1.00  0.00     0.098 A 
HETATM    7  C7  UNL     1      24.787  -0.917  55.261  1.00  0.00     0.071 A 
HETATM    8  C8  UNL     1      23.551  -0.925  54.652  1.00  0.00     0.075 A 
HETATM    9  N2  UNL     1      22.481  -1.474  55.251  1.00  0.00    -0.241 NA
HETATM   10  C9  UNL     1      21.260  -1.458  54.645  1.00  0.00     0.236 A 
HETATM   11  N3  UNL     1      21.036  -0.903  53.422  1.00  0.00    -0.224 NA
HETATM   12  C10 UNL     1      22.088  -0.331  52.766  1.00  0.00     0.142 A 
HETATM   13  C18 UNL     1      23.295  -0.374  53.425  1.00  0.00     0.041 A 
HETATM   14  C19 UNL     1      24.387   0.222  52.785  1.00  0.00     0.050 A 
HETATM   15  C20 UNL     1      25.655   0.265  53.340  1.00  0.00     0.071 A 
ENDROOT
BRANCH  12  16
HETATM   16  N4  UNL     1      21.901   0.276  51.482  1.00  0.00    -0.340 N 
HETATM   17  H12 UNL     1      21.744  -0.460  50.796  1.00  0.00     0.167 HD
BRANCH  16  18
HETATM   18  C11 UNL     1      21.939   1.680  51.281  1.00  0.00     0.034 A 
HETATM   19  C12 UNL     1      21.505   2.575  52.234  1.00  0.00     0.029 A 
HETATM   20  C13 UNL     1      21.516   3.950  51.981  1.00  0.00     0.003 A 
HETATM   21  C14 UNL     1      21.986   4.300  50.735  1.00  0.00     0.007 A 
HETATM   22  C15 UNL     1      22.431   3.458  49.743  1.00  0.00    -0.060 A 
HETATM   23  C16 UNL     1      22.901   4.010  48.442  1.00  0.00     0.048 C 
HETATM   24  C17 UNL     1      22.401   2.113  50.042  1.00  0.00     0.036 A 
ENDBRANCH  16  18
ENDBRANCH  12  16
BRANCH   1  25
HETATM   25  C3  UNL     1      26.596   1.488  51.412  1.00  0.00     0.132 C 
BRANCH  25  26
HETATM   26  C2  UNL     1      25.945   2.859  51.485  1.00  0.00     0.016 C 
HETATM   27  C1  UNL     1      26.174   3.528  50.138  1.00  0.00     0.006 C 
ENDBRANCH  25  26
ENDBRANCH   1  25
TORSDOF 4
ENDMDL
MODEL 2
REMARK VINA RESULT:      -8.7      1.012      1.499
REMARK  4 active torsions:
REMARK  status: ('A' for Active; 'I' for Inactive)
REMARK    1  A    between atoms: C2_2  and  C3_3 
REMARK    2  A    between atoms: C3_3  and  N1_4 
REMARK    3  A    between atoms: C10_15  and  N4_16 
REMARK    4  A    between atoms: N4_16  and  C11_17 
ROOT
HETATM    1  N1  UNL     1      26.531   1.648  52.690  1.00  0.00    -0.314 N 
HETATM    2  C4  UNL     1      27.867   1.267  53.019  1.00  0.00     0.248 C 
HETATM    3  O1  UNL     1      28.756   2.134  52.892  1.00  0.00    -0.271 OA
HETATM    4  C5  UNL     1      28.115  -0.132  53.490  1.00  0.00     0.279 C 
HETATM    5  O2  UNL     1      27.030  -0.579  54.306  1.00  0.00    -0.340 OA
HETATM    6  C6  UNL     1      25.715  -0.207  53.982  1.00  0.00     0.098 A 
HETATM    7  C7  UNL     1      24.693  -1.002  54.508  1.00  0.00     0.071 A 
HETATM    8  C8  UNL     1      23.395  -0.652  54.205  1.00  0.00     0.075 A 
HETATM    9  N2  UNL     1      22.353  -1.350  54.685  1.00  0.00    -0.241 NA
HETATM   10  C9  UNL     1      21.074  -0.982  54.391  1.00  0.00     0.236 A 
HETATM   11  N3  UNL     1      20.762   0.089  53.611  1.00  0.00    -0.224 NA
HETATM   12  C10 UNL     1      21.782   0.834  53.093  1.00  0.00     0.142 A 
HETATM   13  C18 UNL     1      23.051   0.419  53.423  1.00  0.00     0.041 A 
HETATM   14  C19 UNL     1      24.115   1.176  52.924  1.00  0.00     0.050 A 
HETATM   15  C20 UNL     1      25.441   0.881  53.190  1.00  0.00     0.071 A 
ENDROOT
BRANCH  12  16
HETATM   16  N4  UNL     1      21.504   1.977  52.275  1.00  0.00    -0.340 N 
HETATM   17  H12 UNL     1      21.178   2.733  52.874  1.00  0.00     0.167 HD
BRANCH  16  18
HETATM   18  C11 UNL     1      21.681   1.977  50.866  1.00  0.00     0.034 A 
HETATM   19  C12 UNL     1      21.338   0.901  50.079  1.00  0.00     0.029 A 
HETATM   20  C13 UNL     1      21.571   0.921  48.700  1.00  0.00     0.003 A 
HETATM   21  C14 UNL     1      22.154   2.079  48.234  1.00  0.00     0.007 A 
HETATM   22  C15 UNL     1      22.520   3.183  48.966  1.00  0.00    -0.060 A 
HETATM   23  C16 UNL     1      23.152   4.354  48.296  1.00  0.00     0.048 C 
HETATM   24  C17 UNL     1      22.269   3.114  50.319  1.00  0.00     0.036 A 
ENDBRANCH  16  18
ENDBRANCH  12  16
BRANCH   1  25
HETATM   25  C3  UNL     1      26.266   2.797  51.870  1.00  0.00     0.132 C 
BRANCH  25  26
HETATM   26  C2  UNL     1      26.423   2.522  50.384  1.00  0.00     0.016 C 
HETATM   27  C1  UNL     1      26.550   3.873  49.696  1.00  0.00     0.006 C 
ENDBRANCH  25  26
ENDBRANCH   1  25
TORSDOF 4
ENDMDL
MODEL 3
REMARK VINA RESULT:      -8.4      2.993      6.048
REMARK  4 active torsions:
REMARK  status: ('A' for Active; 'I' for Inactive)
REMARK    1  A    between atoms: C2_2  and  C3_3 
REMARK    2  A    between atoms: C3_3  and  N1_4 
REMARK    3  A    between atoms: C10_15  and  N4_16 
REMARK    4  A    between atoms: N4_16  and  C11_17 
ROOT
HETATM    1  N1  UNL     1      21.189   1.508  50.455  1.00  0.00    -0.314 N 
HETATM    2  C4  UNL     1      19.851   1.891  50.137  1.00  0.00     0.248 C 
HETATM    3  O1  UNL     1      19.581   2.079  48.933  1.00  0.00    -0.271 OA
HETATM    4  C5  UNL     1      18.867   2.042  51.254  1.00  0.00     0.279 C 
HETATM    5  O2  UNL     1      19.100   1.049  52.256  1.00  0.00    -0.340 OA
HETATM    6  C6  UNL     1      20.416   0.673  52.572  1.00  0.00     0.098 A 
HETATM    7  C7  UNL     1      20.611   0.067  53.816  1.00  0.00     0.071 A 
HETATM    8  C8  UNL     1      21.895  -0.313  54.143  1.00  0.00     0.075 A 
HETATM    9  N2  UNL     1      22.167  -0.920  55.310  1.00  0.00    -0.241 NA
HETATM   10  C9  UNL     1      23.439  -1.306  55.613  1.00  0.00     0.236 A 
HETATM   11  N3  UNL     1      24.500  -1.112  54.783  1.00  0.00    -0.224 NA
HETATM   12  C10 UNL     1      24.283  -0.497  53.584  1.00  0.00     0.142 A 
HETATM   13  C18 UNL     1      22.981  -0.131  53.329  1.00  0.00     0.041 A 
HETATM   14  C19 UNL     1      22.725   0.482  52.099  1.00  0.00     0.050 A 
HETATM   15  C20 UNL     1      21.460   0.887  51.707  1.00  0.00     0.071 A 
ENDROOT
BRANCH  12  16
HETATM   16  N4  UNL     1      25.366  -0.280  52.671  1.00  0.00    -0.340 N 
HETATM   17  H12 UNL     1      25.078  -0.595  51.747  1.00  0.00     0.167 HD
BRANCH  16  18
HETATM   18  C11 UNL     1      26.605   0.287  53.068  1.00  0.00     0.034 A 
HETATM   19  C12 UNL     1      26.777   1.643  53.233  1.00  0.00     0.029 A 
HETATM   20  C13 UNL     1      28.026   2.168  53.580  1.00  0.00     0.003 A 
HETATM   21  C14 UNL     1      29.021   1.228  53.733  1.00  0.00     0.007 A 
HETATM   22  C15 UNL     1      28.913  -0.134  53.581  1.00  0.00    -0.060 A 
HETATM   23  C16 UNL     1      30.103  -1.010  53.777  1.00  0.00     0.048 C 
HETATM   24  C17 UNL     1      27.663  -0.601  53.240  1.00  0.00     0.036 A 
ENDBRANCH  16  18
ENDBRANCH  12  16
BRANCH   1  25
HETATM   25  C3  UNL     1      22.266   1.730  49.530  1.00  0.00     0.132 C 
BRANCH  25  26
HETATM   26  C2  UNL     1      22.762   3.166  49.521  1.00  0.00     0.016 C 
HETATM   27  C1  UNL     1      24.160   3.153  50.120  1.00  0.00     0.006 C 
ENDBRANCH  25  26
ENDBRANCH   1  25
TORSDOF 4
ENDMDL
MODEL 4
REMARK VINA RESULT:      -8.2      2.927      5.666
REMARK  4 active torsions:
REMARK  status: ('A' for Active; 'I' for Inactive)
REMARK    1  A    between atoms: C2_2  and  C3_3 
REMARK    2  A    between atoms: C3_3  and  N1_4 
REMARK    3  A    between atoms: C10_15  and  N4_16 
REMARK    4  A    between atoms: N4_16  and  C11_17 
ROOT
HETATM    1  N1  UNL     1      21.410   1.149  51.275  1.00  0.00    -0.314 N 
HETATM    2  C4  UNL     1      20.381   0.445  51.970  1.00  0.00     0.248 C 
HETATM    3  O1  UNL     1      19.363   0.130  51.319  1.00  0.00    -0.271 OA
HETATM    4  C5  UNL     1      20.584   0.131  53.420  1.00  0.00     0.279 C 
HETATM    5  O2  UNL     1      21.954  -0.189  53.669  1.00  0.00    -0.340 OA
HETATM    6  C6  UNL     1      22.968   0.505  52.988  1.00  0.00     0.098 A 
HETATM    7  C7  UNL     1      24.239   0.483  53.569  1.00  0.00     0.071 A 
HETATM    8  C8  UNL     1      25.248   1.155  52.913  1.00  0.00     0.075 A 
HETATM    9  N2  UNL     1      26.503   1.169  53.392  1.00  0.00    -0.241 NA
HETATM   10  C9  UNL     1      27.495   1.823  52.724  1.00  0.00     0.236 A 
HETATM   11  N3  UNL     1      27.298   2.494  51.557  1.00  0.00    -0.224 NA
HETATM   12  C10 UNL     1      26.041   2.515  51.024  1.00  0.00     0.142 A 
HETATM   13  C18 UNL     1      25.080   1.838  51.739  1.00  0.00     0.041 A 
HETATM   14  C19 UNL     1      23.787   1.826  51.206  1.00  0.00     0.050 A 
HETATM   15  C20 UNL     1      22.728   1.170  51.812  1.00  0.00     0.071 A 
ENDROOT
BRANCH  12  16
HETATM   16  N4  UNL     1      25.785   3.199  49.792  1.00  0.00    -0.340 N 
HETATM   17  H12 UNL     1      25.349   2.547  49.143  1.00  0.00     0.167 HD
BRANCH  16  18
HETATM   18  C11 UNL     1      26.114   4.565  49.586  1.00  0.00     0.034 A 
HETATM   19  C12 UNL     1      25.346   5.593  50.085  1.00  0.00     0.029 A 
HETATM   20  C13 UNL     1      25.677   6.925  49.822  1.00  0.00     0.003 A 
HETATM   21  C14 UNL     1      26.803   7.094  49.046  1.00  0.00     0.007 A 
HETATM   22  C15 UNL     1      27.608   6.113  48.519  1.00  0.00    -0.060 A 
HETATM   23  C16 UNL     1      28.791   6.476  47.688  1.00  0.00     0.048 C 
HETATM   24  C17 UNL     1      27.240   4.817  48.807  1.00  0.00     0.036 A 
ENDBRANCH  16  18
ENDBRANCH  12  16
BRANCH   1  25
HETATM   25  C3  UNL     1      21.140   1.829  50.039  1.00  0.00     0.132 C 
BRANCH  25  26
HETATM   26  C2  UNL     1      21.500   1.008  48.812  1.00  0.00     0.016 C 
HETATM   27  C1  UNL     1      22.262   1.930  47.872  1.00  0.00     0.006 C 
ENDBRANCH  25  26
ENDBRANCH   1  25
TORSDOF 4
ENDMDL
MODEL 5
REMARK VINA RESULT:      -8.2      2.222      5.056
REMARK  4 active torsions:
REMARK  status: ('A' for Active; 'I' for Inactive)
REMARK    1  A    between atoms: C2_2  and  C3_3 
REMARK    2  A    between atoms: C3_3  and  N1_4 
REMARK    3  A    between atoms: C10_15  and  N4_16 
REMARK    4  A    between atoms: N4_16  and  C11_17 
ROOT
HETATM    1  N1  UNL     1      22.824  -0.572  53.291  1.00  0.00    -0.314 N 
HETATM    2  C4  UNL     1      22.211  -1.442  54.243  1.00  0.00     0.248 C 
HETATM    3  O1  UNL     1      21.244  -2.128  53.852  1.00  0.00    -0.271 OA
HETATM    4  C5  UNL     1      22.759  -1.475  55.636  1.00  0.00     0.279 C 
HETATM    5  O2  UNL     1      24.182  -1.343  55.610  1.00  0.00    -0.340 OA
HETATM    6  C6  UNL     1      24.786  -0.486  54.675  1.00  0.00     0.098 A 
HETATM    7  C7  UNL     1      26.082  -0.054  54.969  1.00  0.00     0.071 A 
HETATM    8  C8  UNL     1      26.694   0.785  54.063  1.00  0.00     0.075 A 
HETATM    9  N2  UNL     1      27.945   1.231  54.258  1.00  0.00    -0.241 NA
HETATM   10  C9  UNL     1      28.544   2.046  53.344  1.00  0.00     0.236 A 
HETATM   11  N3  UNL     1      27.939   2.459  52.197  1.00  0.00    -0.224 NA
HETATM   12  C10 UNL     1      26.665   2.038  51.947  1.00  0.00     0.142 A 
HETATM   13  C18 UNL     1      26.111   1.217  52.901  1.00  0.00     0.041 A 
HETATM   14  C19 UNL     1      24.814   0.752  52.661  1.00  0.00     0.050 A 
HETATM   15  C20 UNL     1      24.142  -0.092  53.529  1.00  0.00     0.071 A 
ENDROOT
BRANCH  12  16
HETATM   16  N4  UNL     1      25.990   2.437  50.748  1.00  0.00    -0.340 N 
HETATM   17  H12 UNL     1      25.716   1.601  50.236  1.00  0.00     0.167 HD
BRANCH  16  18
HETATM   18  C11 UNL     1      25.775   3.797  50.401  1.00  0.00     0.034 A 
HETATM   19  C12 UNL     1      24.693   4.514  50.861  1.00  0.00     0.029 A 
HETATM   20  C13 UNL     1      24.491   5.838  50.460  1.00  0.00     0.003 A 
HETATM   21  C14 UNL     1      25.446   6.328  49.595  1.00  0.00     0.007 A 
HETATM   22  C15 UNL     1      26.543   5.665  49.101  1.00  0.00    -0.060 A 
HETATM   23  C16 UNL     1      27.476   6.348  48.161  1.00  0.00     0.048 C 
HETATM   24  C17 UNL     1      26.698   4.363  49.526  1.00  0.00     0.036 A 
ENDBRANCH  16  18
ENDBRANCH  12  16
BRANCH   1  25
HETATM   25  C3  UNL     1      22.136  -0.182  52.091  1.00  0.00     0.132 C 
BRANCH  25  26
HETATM   26  C2  UNL     1      21.090   0.896  52.324  1.00  0.00     0.016 C 
HETATM   27  C1  UNL     1      19.817   0.432  51.630  1.00  0.00     0.006 C 
ENDBRANCH  25  26
ENDBRANCH   1  25
TORSDOF 4
ENDMDL
MODEL 6
REMARK VINA RESULT:      -8.2      2.990      6.074
REMARK  4 active torsions:
REMARK  status: ('A' for Active; 'I' for Inactive)
REMARK    1  A    between atoms: C2_2  and  C3_3 
REMARK    2  A    between atoms: C3_3  and  N1_4 
REMARK    3  A    between atoms: C10_15  and  N4_16 
REMARK    4  A    between atoms: N4_16  and  C11_17 
ROOT
HETATM    1  N1  UNL     1      22.814   4.043  49.884  1.00  0.00    -0.314 N 
HETATM    2  C4  UNL     1      21.747   4.924  49.531  1.00  0.00     0.248 C 
HETATM    3  O1  UNL     1      21.811   5.482  48.416  1.00  0.00    -0.271 OA
HETATM    4  C5  UNL     1      20.630   5.121  50.509  1.00  0.00     0.279 C 
HETATM    5  O2  UNL     1      20.343   3.894  51.184  1.00  0.00    -0.340 OA
HETATM    6  C6  UNL     1      21.392   3.029  51.535  1.00  0.00     0.098 A 
HETATM    7  C7  UNL     1      21.129   2.106  52.551  1.00  0.00     0.071 A 
HETATM    8  C8  UNL     1      22.144   1.246  52.907  1.00  0.00     0.075 A 
HETATM    9  N2  UNL     1      21.969   0.316  53.861  1.00  0.00    -0.241 NA
HETATM   10  C9  UNL     1      22.977  -0.541  54.190  1.00  0.00     0.236 A 
HETATM   11  N3  UNL     1      24.203  -0.521  53.598  1.00  0.00    -0.224 NA
HETATM   12  C10 UNL     1      24.438   0.405  52.624  1.00  0.00     0.142 A 
HETATM   13  C18 UNL     1      23.386   1.242  52.330  1.00  0.00     0.041 A 
HETATM   14  C19 UNL     1      23.592   2.188  51.320  1.00  0.00     0.050 A 
HETATM   15  C20 UNL     1      22.615   3.081  50.914  1.00  0.00     0.071 A 
ENDROOT
BRANCH  12  16
HETATM   16  N4  UNL     1      25.708   0.459  51.964  1.00  0.00    -0.340 N 
HETATM   17  H12 UNL     1      25.571   0.244  50.978  1.00  0.00     0.167 HD
BRANCH  16  18
HETATM   18  C11 UNL     1      26.916   0.769  52.642  1.00  0.00     0.034 A 
HETATM   19  C12 UNL     1      27.267   2.059  52.972  1.00  0.00     0.029 A 
HETATM   20  C13 UNL     1      28.487   2.330  53.599  1.00  0.00     0.003 A 
HETATM   21  C14 UNL     1      29.266   1.219  53.841  1.00  0.00     0.007 A 
HETATM   22  C15 UNL     1      28.974  -0.089  53.536  1.00  0.00    -0.060 A 
HETATM   23  C16 UNL     1      29.942  -1.173  53.864  1.00  0.00     0.048 C 
HETATM   24  C17 UNL     1      27.760  -0.303  52.920  1.00  0.00     0.036 A 
ENDBRANCH  16  18
ENDBRANCH  12  16
BRANCH   1  25
HETATM   25  C3  UNL     1      24.083   4.107  49.213  1.00  0.00     0.132 C 
BRANCH  25  26
HETATM   26  C2  UNL     1      25.021   5.147  49.802  1.00  0.00     0.016 C 
HETATM   27  C1  UNL     1      26.413   4.835  49.271  1.00  0.00     0.006 C 
ENDBRANCH  25  26
ENDBRANCH   1  25
TORSDOF 4
ENDMDL
MODEL 7
REMARK VINA RESULT:      -8.0      2.616      5.500
REMARK  4 active torsions:
REMARK  status: ('A' for Active; 'I' for Inactive)
REMARK    1  A    between atoms: C2_2  and  C3_3 
REMARK    2  A    between atoms: C3_3  and  N1_4 
REMARK    3  A    between atoms: C10_15  and  N4_16 
REMARK    4  A    between atoms: N4_16  and  C11_17 
ROOT
HETATM    1  N1  UNL     1      21.419   0.591  52.661  1.00  0.00    -0.314 N 
HETATM    2  C4  UNL     1      20.657  -0.381  53.377  1.00  0.00     0.248 C 
HETATM    3  O1  UNL     1      19.513  -0.639  52.949  1.00  0.00    -0.271 OA
HETATM    4  C5  UNL     1      21.271  -1.023  54.582  1.00  0.00     0.279 C 
HETATM    5  O2  UNL     1      22.669  -1.234  54.371  1.00  0.00    -0.340 OA
HETATM    6  C6  UNL     1      23.420  -0.277  53.670  1.00  0.00     0.098 A 
HETATM    7  C7  UNL     1      24.803  -0.295  53.874  1.00  0.00     0.071 A 
HETATM    8  C8  UNL     1      25.558   0.634  53.192  1.00  0.00     0.075 A 
HETATM    9  N2  UNL     1      26.895   0.674  53.315  1.00  0.00    -0.241 NA
HETATM   10  C9  UNL     1      27.631   1.586  52.620  1.00  0.00     0.236 A 
HETATM   11  N3  UNL     1      27.086   2.502  51.774  1.00  0.00    -0.224 NA
HETATM   12  C10 UNL     1      25.731   2.510  51.610  1.00  0.00     0.142 A 
HETATM   13  C18 UNL     1      25.038   1.566  52.334  1.00  0.00     0.041 A 
HETATM   14  C19 UNL     1      23.650   1.537  52.170  1.00  0.00     0.050 A 
HETATM   15  C20 UNL     1      22.832   0.631  52.824  1.00  0.00     0.071 A 
ENDROOT
BRANCH  12  16
HETATM   16  N4  UNL     1      25.111   3.447  50.721  1.00  0.00    -0.340 N 
HETATM   17  H12 UNL     1      24.105   3.296  50.742  1.00  0.00     0.167 HD
BRANCH  16  18
HETATM   18  C11 UNL     1      25.849   4.401  49.971  1.00  0.00     0.034 A 
HETATM   19  C12 UNL     1      26.958   4.059  49.230  1.00  0.00     0.029 A 
HETATM   20  C13 UNL     1      27.686   5.035  48.542  1.00  0.00     0.003 A 
HETATM   21  C14 UNL     1      27.197   6.316  48.677  1.00  0.00     0.007 A 
HETATM   22  C15 UNL     1      26.101   6.720  49.400  1.00  0.00    -0.060 A 
HETATM   23  C16 UNL     1      25.716   8.159  49.444  1.00  0.00     0.048 C 
HETATM   24  C17 UNL     1      25.417   5.721  50.060  1.00  0.00     0.036 A 
ENDBRANCH  16  18
ENDBRANCH  12  16
BRANCH   1  25
HETATM   25  C3  UNL     1      20.785   1.524  51.771  1.00  0.00     0.132 C 
BRANCH  25  26
HETATM   26  C2  UNL     1      20.255   2.760  52.478  1.00  0.00     0.016 C 
HETATM   27  C1  UNL     1      20.684   3.961  51.648  1.00  0.00     0.006 C 
ENDBRANCH  25  26
ENDBRANCH   1  25
TORSDOF 4
ENDMDL
MODEL 8
REMARK VINA RESULT:      -7.9      1.810      3.253
REMARK  4 active torsions:
REMARK  status: ('A' for Active; 'I' for Inactive)
REMARK    1  A    between atoms: C2_2  and  C3_3 
REMARK    2  A    between atoms: C3_3  and  N1_4 
REMARK    3  A    between atoms: C10_15  and  N4_16 
REMARK    4  A    between atoms: N4_16  and  C11_17 
ROOT
HETATM    1  N1  UNL     1      24.587  -0.197  53.835  1.00  0.00    -0.314 N 
HETATM    2  C4  UNL     1      24.956  -0.785  55.083  1.00  0.00     0.248 C 
HETATM    3  O1  UNL     1      26.076  -0.487  55.547  1.00  0.00    -0.271 OA
HETATM    4  C5  UNL     1      23.989  -1.713  55.748  1.00  0.00     0.279 C 
HETATM    5  O2  UNL     1      22.649  -1.256  55.550  1.00  0.00    -0.340 OA
HETATM    6  C6  UNL     1      22.283  -0.680  54.323  1.00  0.00     0.098 A 
HETATM    7  C7  UNL     1      20.919  -0.667  54.020  1.00  0.00     0.071 A 
HETATM    8  C8  UNL     1      20.540  -0.102  52.821  1.00  0.00     0.075 A 
HETATM    9  N2  UNL     1      19.248  -0.031  52.461  1.00  0.00    -0.241 NA
HETATM   10  C9  UNL     1      18.886   0.546  51.281  1.00  0.00     0.236 A 
HETATM   11  N3  UNL     1      19.777   1.079  50.401  1.00  0.00    -0.224 NA
HETATM   12  C10 UNL     1      21.105   1.033  50.714  1.00  0.00     0.142 A 
HETATM   13  C18 UNL     1      21.413   0.441  51.917  1.00  0.00     0.041 A 
HETATM   14  C19 UNL     1      22.765   0.399  52.274  1.00  0.00     0.050 A 
HETATM   15  C20 UNL     1      23.214  -0.153  53.462  1.00  0.00     0.071 A 
ENDROOT
BRANCH  12  16
HETATM   16  N4  UNL     1      22.081   1.591  49.826  1.00  0.00    -0.340 N 
HETATM   17  H12 UNL     1      22.101   1.032  48.974  1.00  0.00     0.167 HD
BRANCH  16  18
HETATM   18  C11 UNL     1      22.853   2.737  50.151  1.00  0.00     0.034 A 
HETATM   19  C12 UNL     1      22.315   3.832  50.789  1.00  0.00     0.029 A 
HETATM   20  C13 UNL     1      23.097   4.961  51.051  1.00  0.00     0.003 A 
HETATM   21  C14 UNL     1      24.404   4.867  50.623  1.00  0.00     0.007 A 
HETATM   22  C15 UNL     1      24.997   3.806  49.982  1.00  0.00    -0.060 A 
HETATM   23  C16 UNL     1      26.430   3.876  49.579  1.00  0.00     0.048 C 
HETATM   24  C17 UNL     1      24.185   2.717  49.747  1.00  0.00     0.036 A 
ENDBRANCH  16  18
ENDBRANCH  12  16
BRANCH   1  25
HETATM   25  C3  UNL     1      25.576   0.360  52.955  1.00  0.00     0.132 C 
BRANCH  25  26
HETATM   26  C2  UNL     1      25.769   1.856  53.139  1.00  0.00     0.016 C 
HETATM   27  C1  UNL     1      27.258   2.085  53.351  1.00  0.00     0.006 C 
ENDBRANCH  25  26
ENDBRANCH   1  25
TORSDOF 4
ENDMDL
MODEL 9
REMARK VINA RESULT:      -7.7      2.585      4.780
REMARK  4 active torsions:
REMARK  status: ('A' for Active; 'I' for Inactive)
REMARK    1  A    between atoms: C2_2  and  C3_3 
REMARK    2  A    between atoms: C3_3  and  N1_4 
REMARK    3  A    between atoms: C10_15  and  N4_16 
REMARK    4  A    between atoms: N4_16  and  C11_17 
ROOT
HETATM    1  N1  UNL     1      24.614   4.544  50.448  1.00  0.00    -0.314 N 
HETATM    2  C4  UNL     1      25.643   5.207  49.713  1.00  0.00     0.248 C 
HETATM    3  O1  UNL     1      25.503   6.431  49.508  1.00  0.00    -0.271 OA
HETATM    4  C5  UNL     1      26.813   4.402  49.240  1.00  0.00     0.279 C 
HETATM    5  O2  UNL     1      27.161   3.416  50.213  1.00  0.00    -0.340 OA
HETATM    6  C6  UNL     1      26.149   2.761  50.935  1.00  0.00     0.098 A 
HETATM    7  C7  UNL     1      26.489   1.537  51.517  1.00  0.00     0.071 A 
HETATM    8  C8  UNL     1      25.511   0.881  52.233  1.00  0.00     0.075 A 
HETATM    9  N2  UNL     1      25.759  -0.291  52.841  1.00  0.00    -0.241 NA
HETATM   10  C9  UNL     1      24.787  -0.920  53.561  1.00  0.00     0.236 A 
HETATM   11  N3  UNL     1      23.528  -0.427  53.713  1.00  0.00    -0.224 NA
HETATM   12  C10 UNL     1      23.218   0.761  53.115  1.00  0.00     0.142 A 
HETATM   13  C18 UNL     1      24.237   1.352  52.404  1.00  0.00     0.041 A 
HETATM   14  C19 UNL     1      23.955   2.581  51.797  1.00  0.00     0.050 A 
HETATM   15  C20 UNL     1      24.890   3.292  51.065  1.00  0.00     0.071 A 
ENDROOT
BRANCH  12  16
HETATM   16  N4  UNL     1      21.910   1.327  53.256  1.00  0.00    -0.340 N 
HETATM   17  H12 UNL     1      21.962   2.105  53.910  1.00  0.00     0.167 HD
BRANCH  16  18
HETATM   18  C11 UNL     1      20.777   0.828  52.561  1.00  0.00     0.034 A 
HETATM   19  C12 UNL     1      20.461   1.226  51.281  1.00  0.00     0.029 A 
HETATM   20  C13 UNL     1      19.311   0.747  50.647  1.00  0.00     0.003 A 
HETATM   21  C14 UNL     1      18.559  -0.125  51.404  1.00  0.00     0.007 A 
HETATM   22  C15 UNL     1      18.819  -0.558  52.682  1.00  0.00    -0.060 A 
HETATM   23  C16 UNL     1      17.888  -1.503  53.360  1.00  0.00     0.048 C 
HETATM   24  C17 UNL     1      19.964  -0.058  53.263  1.00  0.00     0.036 A 
ENDBRANCH  16  18
ENDBRANCH  12  16
BRANCH   1  25
HETATM   25  C3  UNL     1      23.306   5.124  50.583  1.00  0.00     0.132 C 
BRANCH  25  26
HETATM   26  C2  UNL     1      22.386   4.804  49.417  1.00  0.00     0.016 C 
HETATM   27  C1  UNL     1      20.986   4.643  49.992  1.00  0.00     0.006 C 
ENDBRANCH  25  26
ENDBRANCH   1  25
TORSDOF 4
ENDMDL
