MODEL 1
REMARK VINA RESULT:      -8.1      0.000      0.000
REMARK  7 active torsions:
REMARK  status: ('A' for Active; 'I' for Inactive)
REMARK    1  A    between atoms: N1_1  and  C1_2 
REMARK    2  A    between atoms: C1_2  and  C2_3 
REMARK    3  A    between atoms: C7_9  and  O1_10 
REMARK    4  A    between atoms: O1_10  and  C8_11 
REMARK    5  A    between atoms: C10_13  and  N2_14 
REMARK    6  A    between atoms: N2_14  and  C11_15 
REMARK    7  A    between atoms: C11_15  and  C12_16 
ROOT
HETATM    1  C8  UNL     1      25.380   2.269  52.724  1.00  0.00     0.174 A 
HETATM    2  C9  UNL     1      25.606   2.775  51.481  1.00  0.00     0.108 A 
HETATM    3  C10 UNL     1      24.609   3.271  50.677  1.00  0.00     0.129 A 
HETATM    4  N3  UNL     1      23.385   3.225  51.202  1.00  0.00    -0.225 NA
HETATM    5  C18 UNL     1      23.103   2.737  52.420  1.00  0.00     0.238 A 
HETATM    6  N4  UNL     1      24.096   2.267  53.167  1.00  0.00    -0.217 NA
ENDROOT
BRANCH   1   7
HETATM    7  O1  UNL     1      26.228   1.734  53.655  1.00  0.00    -0.291 OA
BRANCH   7   8
HETATM    8  C7  UNL     1      26.955   0.604  53.486  1.00  0.00     0.086 A 
HETATM    9  C2  UNL     1      28.274   0.347  53.762  1.00  0.00     0.006 A 
HETATM   10  C3  UNL     1      28.827  -0.892  53.511  1.00  0.00     0.054 A 
HETATM   11  C4  UNL     1      28.079  -1.940  52.969  1.00  0.00     0.117 A 
HETATM   12  F1  UNL     1      28.594  -3.164  52.708  1.00  0.00    -0.206 F 
HETATM   13  C5  UNL     1      26.760  -1.672  52.698  1.00  0.00     0.045 A 
HETATM   14  C6  UNL     1      26.210  -0.422  52.953  1.00  0.00     0.041 A 
BRANCH   9  15
HETATM   15  C1  UNL     1      29.102   1.408  54.379  1.00  0.00     0.308 C 
BRANCH  15  16
HETATM   16  N1  UNL     1      29.081   2.603  53.520  1.00  0.00     0.082 N 
HETATM   17  H1  UNL     1      28.081   2.952  53.499  1.00  0.00     0.313 HD
HETATM   18  H2  UNL     1      29.371   2.323  52.535  1.00  0.00     0.313 HD
ENDBRANCH  15  16
ENDBRANCH   9  15
ENDBRANCH   7   8
ENDBRANCH   1   7
BRANCH   3  19
HETATM   19  N2  UNL     1      24.984   3.782  49.417  1.00  0.00    -0.370 N 
HETATM   20  H9  UNL     1      25.236   3.165  48.630  1.00  0.00     0.161 HD
BRANCH  19  21
HETATM   21  C11 UNL     1      25.057   5.210  49.101  1.00  0.00     0.160 C 
BRANCH  21  22
HETATM   22  C12 UNL     1      26.450   5.519  48.689  1.00  0.00    -0.041 A 
HETATM   23  C13 UNL     1      27.613   4.777  48.732  1.00  0.00     0.009 A 
HETATM   24  C14 UNL     1      28.785   5.339  48.298  1.00  0.00     0.001 A 
HETATM   25  C15 UNL     1      28.871   6.625  47.814  1.00  0.00     0.000 A 
HETATM   26  C16 UNL     1      27.720   7.395  47.757  1.00  0.00     0.001 A 
HETATM   27  C17 UNL     1      26.544   6.824  48.195  1.00  0.00     0.009 A 
ENDBRANCH  21  22
ENDBRANCH  19  21
ENDBRANCH   3  19
TORSDOF 7
ENDMDL
MODEL 2
REMARK VINA RESULT:      -8.0      3.116      4.522
REMARK  7 active torsions:
REMARK  status: ('A' for Active; 'I' for Inactive)
REMARK    1  A    between atoms: N1_1  and  C1_2 
REMARK    2  A    between atoms: C1_2  and  C2_3 
REMARK    3  A    between atoms: C7_9  and  O1_10 
REMARK    4  A    between atoms: O1_10  and  C8_11 
REMARK    5  A    between atoms: C10_13  and  N2_14 
REMARK    6  A    between atoms: N2_14  and  C11_15 
REMARK    7  A    between atoms: C11_15  and  C12_16 
ROOT
HETATM    1  C8  UNL     1      26.068   0.182  53.012  1.00  0.00     0.174 A 
HETATM    2  C9  UNL     1      26.115   1.268  52.192  1.00  0.00     0.108 A 
HETATM    3  C10 UNL     1      27.182   2.131  52.146  1.00  0.00     0.129 A 
HETATM    4  N3  UNL     1      28.185   1.833  52.970  1.00  0.00    -0.225 NA
HETATM    5  C18 UNL     1      28.194   0.777  53.800  1.00  0.00     0.238 A 
HETATM    6  N4  UNL     1      27.143  -0.034  53.814  1.00  0.00    -0.217 NA
ENDROOT
BRANCH   1   7
HETATM    7  O1  UNL     1      25.108  -0.774  53.199  1.00  0.00    -0.291 OA
BRANCH   7   8
HETATM    8  C7  UNL     1      23.826  -0.528  53.560  1.00  0.00     0.086 A 
HETATM    9  C2  UNL     1      23.113  -0.954  54.652  1.00  0.00     0.006 A 
HETATM   10  C3  UNL     1      21.797  -0.581  54.834  1.00  0.00     0.054 A 
HETATM   11  C4  UNL     1      21.129   0.243  53.926  1.00  0.00     0.117 A 
HETATM   12  F1  UNL     1      19.838   0.621  54.076  1.00  0.00    -0.206 F 
HETATM   13  C5  UNL     1      21.852   0.665  52.838  1.00  0.00     0.045 A 
HETATM   14  C6  UNL     1      23.177   0.286  52.660  1.00  0.00     0.041 A 
BRANCH   9  15
HETATM   15  C1  UNL     1      23.785  -1.792  55.670  1.00  0.00     0.308 C 
BRANCH  15  16
HETATM   16  N1  UNL     1      25.099  -1.210  55.991  1.00  0.00     0.082 N 
HETATM   17  H1  UNL     1      25.156  -0.279  55.487  1.00  0.00     0.313 HD
HETATM   18  H2  UNL     1      25.860  -1.853  55.618  1.00  0.00     0.313 HD
ENDBRANCH  15  16
ENDBRANCH   9  15
ENDBRANCH   7   8
ENDBRANCH   1   7
BRANCH   3  19
HETATM   19  N2  UNL     1      27.108   3.207  51.238  1.00  0.00    -0.370 N 
HETATM   20  H9  UNL     1      27.506   4.134  51.454  1.00  0.00     0.161 HD
BRANCH  19  21
HETATM   21  C11 UNL     1      26.469   3.127  49.922  1.00  0.00     0.160 C 
BRANCH  21  22
HETATM   22  C12 UNL     1      26.694   4.416  49.222  1.00  0.00    -0.041 A 
HETATM   23  C13 UNL     1      27.826   4.986  48.674  1.00  0.00     0.009 A 
HETATM   24  C14 UNL     1      27.743   6.227  48.100  1.00  0.00     0.001 A 
HETATM   25  C15 UNL     1      26.574   6.953  48.037  1.00  0.00     0.000 A 
HETATM   26  C16 UNL     1      25.420   6.407  48.577  1.00  0.00     0.001 A 
HETATM   27  C17 UNL     1      25.510   5.158  49.153  1.00  0.00     0.009 A 
ENDBRANCH  21  22
ENDBRANCH  19  21
ENDBRANCH   3  19
TORSDOF 7
ENDMDL
MODEL 3
REMARK VINA RESULT:      -8.0      2.747      6.644
REMARK  7 active torsions:
REMARK  status: ('A' for Active; 'I' for Inactive)
REMARK    1  A    between atoms: N1_1  and  C1_2 
REMARK    2  A    between atoms: C1_2  and  C2_3 
REMARK    3  A    between atoms: C7_9  and  O1_10 
REMARK    4  A    between atoms: O1_10  and  C8_11 
REMARK    5  A    between atoms: C10_13  and  N2_14 
REMARK    6  A    between atoms: N2_14  and  C11_15 
REMARK    7  A    between atoms: C11_15  and  C12_16 
ROOT
HETATM    1  C8  UNL     1      23.447   2.944  51.861  1.00  0.00     0.174 A 
HETATM    2  C9  UNL     1      24.335   2.133  52.499  1.00  0.00     0.108 A 
HETATM    3  C10 UNL     1      23.972   0.972  53.136  1.00  0.00     0.129 A 
HETATM    4  N3  UNL     1      22.672   0.686  53.090  1.00  0.00    -0.225 NA
HETATM    5  C18 UNL     1      21.751   1.447  52.478  1.00  0.00     0.238 A 
HETATM    6  N4  UNL     1      22.143   2.562  51.872  1.00  0.00    -0.217 NA
ENDROOT
BRANCH   1   7
HETATM    7  O1  UNL     1      23.614   4.121  51.186  1.00  0.00    -0.291 OA
BRANCH   7   8
HETATM    8  C7  UNL     1      24.711   4.455  50.466  1.00  0.00     0.086 A 
HETATM    9  C2  UNL     1      25.192   5.687  50.098  1.00  0.00     0.006 A 
HETATM   10  C3  UNL     1      26.346   5.808  49.352  1.00  0.00     0.054 A 
HETATM   11  C4  UNL     1      27.080   4.694  48.938  1.00  0.00     0.117 A 
HETATM   12  F1  UNL     1      28.213   4.782  48.203  1.00  0.00    -0.206 F 
HETATM   13  C5  UNL     1      26.592   3.467  49.313  1.00  0.00     0.045 A 
HETATM   14  C6  UNL     1      25.428   3.352  50.064  1.00  0.00     0.041 A 
BRANCH   9  15
HETATM   15  C1  UNL     1      24.478   6.903  50.548  1.00  0.00     0.308 C 
BRANCH  15  16
HETATM   16  N1  UNL     1      24.442   6.930  52.020  1.00  0.00     0.082 N 
HETATM   17  H1  UNL     1      24.960   6.069  52.358  1.00  0.00     0.313 HD
HETATM   18  H2  UNL     1      23.429   6.873  52.340  1.00  0.00     0.313 HD
ENDBRANCH  15  16
ENDBRANCH   9  15
ENDBRANCH   7   8
ENDBRANCH   1   7
BRANCH   3  19
HETATM   19  N2  UNL     1      24.997   0.216  53.743  1.00  0.00    -0.370 N 
HETATM   20  H9  UNL     1      25.269   0.354  54.728  1.00  0.00     0.161 HD
BRANCH  19  21
HETATM   21  C11 UNL     1      25.769  -0.818  53.051  1.00  0.00     0.160 C 
BRANCH  21  22
HETATM   22  C12 UNL     1      27.211  -0.548  53.284  1.00  0.00    -0.041 A 
HETATM   23  C13 UNL     1      27.896   0.608  53.598  1.00  0.00     0.009 A 
HETATM   24  C14 UNL     1      29.260   0.566  53.731  1.00  0.00     0.001 A 
HETATM   25  C15 UNL     1      29.999  -0.584  53.566  1.00  0.00     0.000 A 
HETATM   26  C16 UNL     1      29.339  -1.762  53.251  1.00  0.00     0.001 A 
HETATM   27  C17 UNL     1      27.967  -1.714  53.119  1.00  0.00     0.009 A 
ENDBRANCH  21  22
ENDBRANCH  19  21
ENDBRANCH   3  19
TORSDOF 7
ENDMDL
MODEL 4
REMARK VINA RESULT:      -7.9      2.301      5.516
REMARK  7 active torsions:
REMARK  status: ('A' for Active; 'I' for Inactive)
REMARK    1  A    between atoms: N1_1  and  C1_2 
REMARK    2  A    between atoms: C1_2  and  C2_3 
REMARK    3  A    between atoms: C7_9  and  O1_10 
REMARK    4  A    between atoms: O1_10  and  C8_11 
REMARK    5  A    between atoms: C10_13  and  N2_14 
REMARK    6  A    between atoms: N2_14  and  C11_15 
REMARK    7  A    between atoms: C11_15  and  C12_16 
ROOT
HETATM    1  C8  UNL     1      25.750   2.127  52.383  1.00  0.00     0.174 A 
HETATM    2  C9  UNL     1      24.406   2.075  52.180  1.00  0.00     0.108 A 
HETATM    3  C10 UNL     1      23.793   2.582  51.061  1.00  0.00     0.129 A 
HETATM    4  N3  UNL     1      24.613   3.140  50.172  1.00  0.00    -0.225 NA
HETATM    5  C18 UNL     1      25.945   3.220  50.318  1.00  0.00     0.238 A 
HETATM    6  N4  UNL     1      26.500   2.716  51.415  1.00  0.00    -0.217 NA
ENDROOT
BRANCH   1   7
HETATM    7  O1  UNL     1      26.531   1.688  53.417  1.00  0.00    -0.291 OA
BRANCH   7   8
HETATM    8  C7  UNL     1      27.272   0.554  53.404  1.00  0.00     0.086 A 
HETATM    9  C2  UNL     1      28.565   0.334  53.807  1.00  0.00     0.006 A 
HETATM   10  C3  UNL     1      29.139  -0.917  53.707  1.00  0.00     0.054 A 
HETATM   11  C4  UNL     1      28.440  -2.014  53.197  1.00  0.00     0.117 A 
HETATM   12  F1  UNL     1      28.978  -3.251  53.084  1.00  0.00    -0.206 F 
HETATM   13  C5  UNL     1      27.147  -1.782  52.799  1.00  0.00     0.045 A 
HETATM   14  C6  UNL     1      26.575  -0.520  52.902  1.00  0.00     0.041 A 
BRANCH   9  15
HETATM   15  C1  UNL     1      29.338   1.450  54.397  1.00  0.00     0.308 C 
BRANCH  15  16
HETATM   16  N1  UNL     1      29.148   2.659  53.579  1.00  0.00     0.082 N 
HETATM   17  H1  UNL     1      28.104   2.776  53.438  1.00  0.00     0.313 HD
HETATM   18  H2  UNL     1      29.611   2.510  52.633  1.00  0.00     0.313 HD
ENDBRANCH  15  16
ENDBRANCH   9  15
ENDBRANCH   7   8
ENDBRANCH   1   7
BRANCH   3  19
HETATM   19  N2  UNL     1      22.392   2.446  50.969  1.00  0.00    -0.370 N 
HETATM   20  H9  UNL     1      21.760   3.261  50.992  1.00  0.00     0.161 HD
BRANCH  19  21
HETATM   21  C11 UNL     1      21.702   1.160  50.839  1.00  0.00     0.160 C 
BRANCH  21  22
HETATM   22  C12 UNL     1      21.459   0.629  52.204  1.00  0.00    -0.041 A 
HETATM   23  C13 UNL     1      20.699   1.096  53.257  1.00  0.00     0.009 A 
HETATM   24  C14 UNL     1      20.681   0.397  54.436  1.00  0.00     0.001 A 
HETATM   25  C15 UNL     1      21.391  -0.766  54.634  1.00  0.00     0.000 A 
HETATM   26  C16 UNL     1      22.163  -1.262  53.595  1.00  0.00     0.001 A 
HETATM   27  C17 UNL     1      22.177  -0.554  52.411  1.00  0.00     0.009 A 
ENDBRANCH  21  22
ENDBRANCH  19  21
ENDBRANCH   3  19
TORSDOF 7
ENDMDL
MODEL 5
REMARK VINA RESULT:      -7.9      4.125      7.519
REMARK  7 active torsions:
REMARK  status: ('A' for Active; 'I' for Inactive)
REMARK    1  A    between atoms: N1_1  and  C1_2 
REMARK    2  A    between atoms: C1_2  and  C2_3 
REMARK    3  A    between atoms: C7_9  and  O1_10 
REMARK    4  A    between atoms: O1_10  and  C8_11 
REMARK    5  A    between atoms: C10_13  and  N2_14 
REMARK    6  A    between atoms: N2_14  and  C11_15 
REMARK    7  A    between atoms: C11_15  and  C12_16 
ROOT
HETATM    1  C8  UNL     1      24.659  -0.519  53.501  1.00  0.00     0.174 A 
HETATM    2  C9  UNL     1      23.310  -0.532  53.328  1.00  0.00     0.108 A 
HETATM    3  C10 UNL     1      22.428  -0.917  54.307  1.00  0.00     0.129 A 
HETATM    4  N3  UNL     1      22.988  -1.284  55.459  1.00  0.00    -0.225 NA
HETATM    5  C18 UNL     1      24.311  -1.292  55.687  1.00  0.00     0.238 A 
HETATM    6  N4  UNL     1      25.131  -0.912  54.713  1.00  0.00    -0.217 NA
ENDROOT
BRANCH   1   7
HETATM    7  O1  UNL     1      25.681  -0.178  52.658  1.00  0.00    -0.291 OA
BRANCH   7   8
HETATM    8  C7  UNL     1      26.998  -0.234  52.970  1.00  0.00     0.086 A 
HETATM    9  C2  UNL     1      27.887   0.772  53.255  1.00  0.00     0.006 A 
HETATM   10  C3  UNL     1      29.205   0.494  53.552  1.00  0.00     0.054 A 
HETATM   11  C4  UNL     1      29.699  -0.812  53.582  1.00  0.00     0.117 A 
HETATM   12  F1  UNL     1      30.987  -1.114  53.867  1.00  0.00    -0.206 F 
HETATM   13  C5  UNL     1      28.800  -1.810  53.298  1.00  0.00     0.045 A 
HETATM   14  C6  UNL     1      27.474  -1.525  52.999  1.00  0.00     0.041 A 
BRANCH   9  15
HETATM   15  C1  UNL     1      27.408   2.172  53.281  1.00  0.00     0.308 C 
BRANCH  15  16
HETATM   16  N1  UNL     1      26.294   2.287  54.237  1.00  0.00     0.082 N 
HETATM   17  H1  UNL     1      26.444   3.185  54.779  1.00  0.00     0.313 HD
HETATM   18  H2  UNL     1      26.334   1.465  54.911  1.00  0.00     0.313 HD
ENDBRANCH  15  16
ENDBRANCH   9  15
ENDBRANCH   7   8
ENDBRANCH   1   7
BRANCH   3  19
HETATM   19  N2  UNL     1      21.053  -0.866  54.000  1.00  0.00    -0.370 N 
HETATM   20  H9  UNL     1      20.362  -1.465  54.480  1.00  0.00     0.161 HD
BRANCH  19  21
HETATM   21  C11 UNL     1      20.472   0.018  52.987  1.00  0.00     0.160 C 
BRANCH  21  22
HETATM   22  C12 UNL     1      19.098  -0.460  52.693  1.00  0.00    -0.041 A 
HETATM   23  C13 UNL     1      18.121   0.002  51.834  1.00  0.00     0.009 A 
HETATM   24  C14 UNL     1      16.909  -0.636  51.787  1.00  0.00     0.001 A 
HETATM   25  C15 UNL     1      16.603  -1.731  52.563  1.00  0.00     0.000 A 
HETATM   26  C16 UNL     1      17.563  -2.221  53.435  1.00  0.00     0.001 A 
HETATM   27  C17 UNL     1      18.781  -1.575  53.477  1.00  0.00     0.009 A 
ENDBRANCH  21  22
ENDBRANCH  19  21
ENDBRANCH   3  19
TORSDOF 7
ENDMDL
MODEL 6
REMARK VINA RESULT:      -7.9      4.094      6.884
REMARK  7 active torsions:
REMARK  status: ('A' for Active; 'I' for Inactive)
REMARK    1  A    between atoms: N1_1  and  C1_2 
REMARK    2  A    between atoms: C1_2  and  C2_3 
REMARK    3  A    between atoms: C7_9  and  O1_10 
REMARK    4  A    between atoms: O1_10  and  C8_11 
REMARK    5  A    between atoms: C10_13  and  N2_14 
REMARK    6  A    between atoms: N2_14  and  C11_15 
REMARK    7  A    between atoms: C11_15  and  C12_16 
ROOT
HETATM    1  C8  UNL     1      22.306   0.685  53.177  1.00  0.00     0.174 A 
HETATM    2  C9  UNL     1      23.609   0.306  53.277  1.00  0.00     0.108 A 
HETATM    3  C10 UNL     1      24.053  -0.639  54.170  1.00  0.00     0.129 A 
HETATM    4  N3  UNL     1      23.108  -1.171  54.945  1.00  0.00    -0.225 NA
HETATM    5  C18 UNL     1      21.810  -0.837  54.891  1.00  0.00     0.238 A 
HETATM    6  N4  UNL     1      21.421   0.082  54.013  1.00  0.00    -0.217 NA
ENDROOT
BRANCH   1   7
HETATM    7  O1  UNL     1      21.683   1.595  52.369  1.00  0.00    -0.291 OA
BRANCH   7   8
HETATM    8  C7  UNL     1      22.014   1.843  51.079  1.00  0.00     0.086 A 
HETATM    9  C2  UNL     1      22.894   2.751  50.546  1.00  0.00     0.006 A 
HETATM   10  C3  UNL     1      23.087   2.842  49.183  1.00  0.00     0.054 A 
HETATM   11  C4  UNL     1      22.404   2.021  48.282  1.00  0.00     0.117 A 
HETATM   12  F1  UNL     1      22.569   2.089  46.941  1.00  0.00    -0.206 F 
HETATM   13  C5  UNL     1      21.528   1.115  48.826  1.00  0.00     0.045 A 
HETATM   14  C6  UNL     1      21.338   1.029  50.200  1.00  0.00     0.041 A 
BRANCH   9  15
HETATM   15  C1  UNL     1      23.678   3.616  51.457  1.00  0.00     0.308 C 
BRANCH  15  16
HETATM   16  N1  UNL     1      22.758   4.422  52.275  1.00  0.00     0.082 N 
HETATM   17  H1  UNL     1      22.878   4.106  53.279  1.00  0.00     0.313 HD
HETATM   18  H2  UNL     1      21.759   4.222  51.966  1.00  0.00     0.313 HD
ENDBRANCH  15  16
ENDBRANCH   9  15
ENDBRANCH   7   8
ENDBRANCH   1   7
BRANCH   3  19
HETATM   19  N2  UNL     1      25.428  -0.950  54.156  1.00  0.00    -0.370 N 
HETATM   20  H9  UNL     1      25.996  -0.957  55.017  1.00  0.00     0.161 HD
BRANCH  19  21
HETATM   21  C11 UNL     1      26.180  -1.284  52.944  1.00  0.00     0.160 C 
BRANCH  21  22
HETATM   22  C12 UNL     1      27.598  -0.899  53.163  1.00  0.00    -0.041 A 
HETATM   23  C13 UNL     1      28.755  -1.646  53.254  1.00  0.00     0.009 A 
HETATM   24  C14 UNL     1      29.947  -1.012  53.491  1.00  0.00     0.001 A 
HETATM   25  C15 UNL     1      30.058   0.352  53.647  1.00  0.00     0.000 A 
HETATM   26  C16 UNL     1      28.914   1.129  53.560  1.00  0.00     0.001 A 
HETATM   27  C17 UNL     1      27.718   0.486  53.321  1.00  0.00     0.009 A 
ENDBRANCH  21  22
ENDBRANCH  19  21
ENDBRANCH   3  19
TORSDOF 7
ENDMDL
MODEL 7
REMARK VINA RESULT:      -7.5      2.836      7.325
REMARK  7 active torsions:
REMARK  status: ('A' for Active; 'I' for Inactive)
REMARK    1  A    between atoms: N1_1  and  C1_2 
REMARK    2  A    between atoms: C1_2  and  C2_3 
REMARK    3  A    between atoms: C7_9  and  O1_10 
REMARK    4  A    between atoms: O1_10  and  C8_11 
REMARK    5  A    between atoms: C10_13  and  N2_14 
REMARK    6  A    between atoms: N2_14  and  C11_15 
REMARK    7  A    between atoms: C11_15  and  C12_16 
ROOT
HETATM    1  C8  UNL     1      24.832   3.652  50.689  1.00  0.00     0.174 A 
HETATM    2  C9  UNL     1      25.291   2.541  51.327  1.00  0.00     0.108 A 
HETATM    3  C10 UNL     1      25.017   2.261  52.643  1.00  0.00     0.129 A 
HETATM    4  N3  UNL     1      24.259   3.162  53.266  1.00  0.00    -0.225 NA
HETATM    5  C18 UNL     1      23.779   4.274  52.689  1.00  0.00     0.238 A 
HETATM    6  N4  UNL     1      24.066   4.509  51.413  1.00  0.00    -0.217 NA
ENDROOT
BRANCH   1   7
HETATM    7  O1  UNL     1      24.999   4.098  49.407  1.00  0.00    -0.291 OA
BRANCH   7   8
HETATM    8  C7  UNL     1      25.956   4.970  49.006  1.00  0.00     0.086 A 
HETATM    9  C2  UNL     1      25.868   6.304  48.697  1.00  0.00     0.006 A 
HETATM   10  C3  UNL     1      26.981   7.018  48.304  1.00  0.00     0.054 A 
HETATM   11  C4  UNL     1      28.243   6.427  48.204  1.00  0.00     0.117 A 
HETATM   12  F1  UNL     1      29.352   7.102  47.818  1.00  0.00    -0.206 F 
HETATM   13  C5  UNL     1      28.319   5.093  48.518  1.00  0.00     0.045 A 
HETATM   14  C6  UNL     1      27.194   4.379  48.912  1.00  0.00     0.041 A 
BRANCH   9  15
HETATM   15  C1  UNL     1      24.564   6.991  48.828  1.00  0.00     0.308 C 
BRANCH  15  16
HETATM   16  N1  UNL     1      24.314   7.293  50.247  1.00  0.00     0.082 N 
HETATM   17  H1  UNL     1      24.217   8.346  50.327  1.00  0.00     0.313 HD
HETATM   18  H2  UNL     1      25.155   6.979  50.818  1.00  0.00     0.313 HD
ENDBRANCH  15  16
ENDBRANCH   9  15
ENDBRANCH   7   8
ENDBRANCH   1   7
BRANCH   3  19
HETATM   19  N2  UNL     1      25.542   1.065  53.175  1.00  0.00    -0.370 N 
HETATM   20  H9  UNL     1      25.191   0.138  52.888  1.00  0.00     0.161 HD
BRANCH  19  21
HETATM   21  C11 UNL     1      26.613   1.013  54.173  1.00  0.00     0.160 C 
BRANCH  21  22
HETATM   22  C12 UNL     1      27.526  -0.099  53.810  1.00  0.00    -0.041 A 
HETATM   23  C13 UNL     1      28.887  -0.267  53.964  1.00  0.00     0.009 A 
HETATM   24  C14 UNL     1      29.481  -1.412  53.501  1.00  0.00     0.001 A 
HETATM   25  C15 UNL     1      28.785  -2.423  52.878  1.00  0.00     0.000 A 
HETATM   26  C16 UNL     1      27.416  -2.286  52.709  1.00  0.00     0.001 A 
HETATM   27  C17 UNL     1      26.824  -1.132  53.178  1.00  0.00     0.009 A 
ENDBRANCH  21  22
ENDBRANCH  19  21
ENDBRANCH   3  19
TORSDOF 7
ENDMDL
MODEL 8
REMARK VINA RESULT:      -7.5      2.281      3.098
REMARK  7 active torsions:
REMARK  status: ('A' for Active; 'I' for Inactive)
REMARK    1  A    between atoms: N1_1  and  C1_2 
REMARK    2  A    between atoms: C1_2  and  C2_3 
REMARK    3  A    between atoms: C7_9  and  O1_10 
REMARK    4  A    between atoms: O1_10  and  C8_11 
REMARK    5  A    between atoms: C10_13  and  N2_14 
REMARK    6  A    between atoms: N2_14  and  C11_15 
REMARK    7  A    between atoms: C11_15  and  C12_16 
ROOT
HETATM    1  C8  UNL     1      23.586   0.257  52.945  1.00  0.00     0.174 A 
HETATM    2  C9  UNL     1      23.666   1.365  52.159  1.00  0.00     0.108 A 
HETATM    3  C10 UNL     1      22.603   2.202  51.927  1.00  0.00     0.129 A 
HETATM    4  N3  UNL     1      21.468   1.855  52.533  1.00  0.00    -0.225 NA
HETATM    5  C18 UNL     1      21.330   0.775  53.318  1.00  0.00     0.238 A 
HETATM    6  N4  UNL     1      22.383  -0.010  53.517  1.00  0.00    -0.217 NA
ENDROOT
BRANCH   1   7
HETATM    7  O1  UNL     1      24.518  -0.685  53.285  1.00  0.00    -0.291 OA
BRANCH   7   8
HETATM    8  C7  UNL     1      25.810  -0.424  53.594  1.00  0.00     0.086 A 
HETATM    9  C2  UNL     1      26.403  -0.190  54.810  1.00  0.00     0.006 A 
HETATM   10  C3  UNL     1      27.756   0.059  54.906  1.00  0.00     0.054 A 
HETATM   11  C4  UNL     1      28.587   0.085  53.783  1.00  0.00     0.117 A 
HETATM   12  F1  UNL     1      29.916   0.330  53.847  1.00  0.00    -0.206 F 
HETATM   13  C5  UNL     1      27.984  -0.152  52.573  1.00  0.00     0.045 A 
HETATM   14  C6  UNL     1      26.620  -0.402  52.482  1.00  0.00     0.041 A 
BRANCH   9  15
HETATM   15  C1  UNL     1      25.578  -0.250  56.038  1.00  0.00     0.308 C 
BRANCH  15  16
HETATM   16  N1  UNL     1      24.856  -1.532  56.078  1.00  0.00     0.082 N 
HETATM   17  H1  UNL     1      24.092  -1.479  55.345  1.00  0.00     0.313 HD
HETATM   18  H2  UNL     1      24.409  -1.644  57.037  1.00  0.00     0.313 HD
ENDBRANCH  15  16
ENDBRANCH   9  15
ENDBRANCH   7   8
ENDBRANCH   1   7
BRANCH   3  19
HETATM   19  N2  UNL     1      22.827   3.326  51.105  1.00  0.00    -0.370 N 
HETATM   20  H9  UNL     1      22.809   4.288  51.477  1.00  0.00     0.161 HD
BRANCH  19  21
HETATM   21  C11 UNL     1      23.099   3.249  49.668  1.00  0.00     0.160 C 
BRANCH  21  22
HETATM   22  C12 UNL     1      24.313   4.055  49.386  1.00  0.00    -0.041 A 
HETATM   23  C13 UNL     1      24.481   5.351  48.942  1.00  0.00     0.009 A 
HETATM   24  C14 UNL     1      25.747   5.834  48.741  1.00  0.00     0.001 A 
HETATM   25  C15 UNL     1      26.883   5.088  48.959  1.00  0.00     0.000 A 
HETATM   26  C16 UNL     1      26.749   3.783  49.406  1.00  0.00     0.001 A 
HETATM   27  C17 UNL     1      25.472   3.302  49.607  1.00  0.00     0.009 A 
ENDBRANCH  21  22
ENDBRANCH  19  21
ENDBRANCH   3  19
TORSDOF 7
ENDMDL
MODEL 9
REMARK VINA RESULT:      -7.5      3.066      4.157
REMARK  7 active torsions:
REMARK  status: ('A' for Active; 'I' for Inactive)
REMARK    1  A    between atoms: N1_1  and  C1_2 
REMARK    2  A    between atoms: C1_2  and  C2_3 
REMARK    3  A    between atoms: C7_9  and  O1_10 
REMARK    4  A    between atoms: O1_10  and  C8_11 
REMARK    5  A    between atoms: C10_13  and  N2_14 
REMARK    6  A    between atoms: N2_14  and  C11_15 
REMARK    7  A    between atoms: C11_15  and  C12_16 
ROOT
HETATM    1  C8  UNL     1      23.323   2.669  51.251  1.00  0.00     0.174 A 
HETATM    2  C9  UNL     1      24.269   3.319  50.520  1.00  0.00     0.108 A 
HETATM    3  C10 UNL     1      24.534   4.660  50.652  1.00  0.00     0.129 A 
HETATM    4  N3  UNL     1      23.792   5.295  51.558  1.00  0.00    -0.225 NA
HETATM    5  C18 UNL     1      22.846   4.707  52.307  1.00  0.00     0.238 A 
HETATM    6  N4  UNL     1      22.620   3.407  52.149  1.00  0.00    -0.217 NA
ENDROOT
BRANCH   1   7
HETATM    7  O1  UNL     1      22.918   1.362  51.258  1.00  0.00    -0.291 OA
BRANCH   7   8
HETATM    8  C7  UNL     1      22.811   0.588  52.365  1.00  0.00     0.086 A 
HETATM    9  C2  UNL     1      21.699   0.094  52.998  1.00  0.00     0.006 A 
HETATM   10  C3  UNL     1      21.812  -0.687  54.130  1.00  0.00     0.054 A 
HETATM   11  C4  UNL     1      23.053  -1.014  54.683  1.00  0.00     0.117 A 
HETATM   12  F1  UNL     1      23.194  -1.775  55.793  1.00  0.00    -0.206 F 
HETATM   13  C5  UNL     1      24.158  -0.516  54.040  1.00  0.00     0.045 A 
HETATM   14  C6  UNL     1      24.037   0.271  52.901  1.00  0.00     0.041 A 
BRANCH   9  15
HETATM   15  C1  UNL     1      20.361   0.372  52.429  1.00  0.00     0.308 C 
BRANCH  15  16
HETATM   16  N1  UNL     1      20.065   1.808  52.560  1.00  0.00     0.082 N 
HETATM   17  H1  UNL     1      19.213   2.003  51.962  1.00  0.00     0.313 HD
HETATM   18  H2  UNL     1      20.889   2.364  52.181  1.00  0.00     0.313 HD
ENDBRANCH  15  16
ENDBRANCH   9  15
ENDBRANCH   7   8
ENDBRANCH   1   7
BRANCH   3  19
HETATM   19  N2  UNL     1      25.553   5.203  49.843  1.00  0.00    -0.370 N 
HETATM   20  H9  UNL     1      25.580   6.204  49.595  1.00  0.00     0.161 HD
BRANCH  19  21
HETATM   21  C11 UNL     1      26.656   4.421  49.279  1.00  0.00     0.160 C 
BRANCH  21  22
HETATM   22  C12 UNL     1      27.583   5.359  48.598  1.00  0.00    -0.041 A 
HETATM   23  C13 UNL     1      28.926   5.272  48.291  1.00  0.00     0.009 A 
HETATM   24  C14 UNL     1      29.543   6.325  47.668  1.00  0.00     0.001 A 
HETATM   25  C15 UNL     1      28.889   7.487  47.325  1.00  0.00     0.000 A 
HETATM   26  C16 UNL     1      27.539   7.605  47.618  1.00  0.00     0.001 A 
HETATM   27  C17 UNL     1      26.924   6.542  48.245  1.00  0.00     0.009 A 
ENDBRANCH  21  22
ENDBRANCH  19  21
ENDBRANCH   3  19
TORSDOF 7
ENDMDL
