MODEL 1
REMARK VINA RESULT:      -7.4      0.000      0.000
REMARK  4 active torsions:
REMARK  status: ('A' for Active; 'I' for Inactive)
REMARK    1  A    between atoms: C3_3  and  O1_20 
REMARK    2  A    between atoms: C4_4  and  C5_5 
REMARK    3  A    between atoms: C7_7  and  N1_8 
REMARK    4  A    between atoms: N1_8  and  C8_9 
ROOT
HETATM    1  C1  UNL     1      28.963   2.432  53.828  1.00  0.00     0.016 C 
HETATM    2  C2  UNL     1      28.298   1.280  53.597  1.00  0.00     0.028 C 
HETATM    3  C3  UNL     1      27.663   0.003  53.386  1.00  0.00     0.066 C 
HETATM    4  C4  UNL     1      26.472   0.050  52.858  1.00  0.00     0.068 C 
ENDROOT
BRANCH   3   5
HETATM    5  O1  UNL     1      28.295  -1.183  53.726  1.00  0.00    -0.356 OA
HETATM    6  C15 UNL     1      29.692  -1.230  53.562  1.00  0.00     0.210 C 
ENDBRANCH   3   5
BRANCH   4   7
HETATM    7  C5  UNL     1      25.771   1.262  52.486  1.00  0.00     0.064 A 
HETATM    8  C6  UNL     1      25.961   1.863  51.266  1.00  0.00     0.082 A 
HETATM    9  C7  UNL     1      25.331   3.014  50.842  1.00  0.00     0.131 A 
HETATM   10  N2  UNL     1      24.489   3.514  51.752  1.00  0.00    -0.224 NA
HETATM   11  C14 UNL     1      24.277   2.967  52.940  1.00  0.00     0.235 A 
HETATM   12  N3  UNL     1      24.908   1.852  53.309  1.00  0.00    -0.242 NA
BRANCH   9  13
HETATM   13  N1  UNL     1      25.592   3.561  49.575  1.00  0.00    -0.341 N 
HETATM   14  H6  UNL     1      25.184   3.033  48.746  1.00  0.00     0.167 HD
BRANCH  13  15
HETATM   15  C8  UNL     1      26.317   4.712  49.252  1.00  0.00     0.035 A 
HETATM   16  C9  UNL     1      27.567   4.735  48.664  1.00  0.00     0.032 A 
HETATM   17  C10 UNL     1      28.283   5.866  48.335  1.00  0.00     0.046 A 
HETATM   18  C11 UNL     1      27.722   7.086  48.607  1.00  0.00     0.138 A 
HETATM   19  F1  UNL     1      28.328   8.248  48.333  1.00  0.00    -0.204 F 
HETATM   20  C12 UNL     1      26.478   7.141  49.194  1.00  0.00     0.074 A 
HETATM   21 CL1  UNL     1      25.736   8.693  49.552  1.00  0.00    -0.081 Cl
HETATM   22  C13 UNL     1      25.819   5.972  49.496  1.00  0.00     0.056 A 
ENDBRANCH  13  15
ENDBRANCH   9  13
ENDBRANCH   4   7
TORSDOF 4
ENDMDL
MODEL 2
REMARK VINA RESULT:      -7.3      2.112      2.964
REMARK  4 active torsions:
REMARK  status: ('A' for Active; 'I' for Inactive)
REMARK    1  A    between atoms: C3_3  and  O1_20 
REMARK    2  A    between atoms: C4_4  and  C5_5 
REMARK    3  A    between atoms: C7_7  and  N1_8 
REMARK    4  A    between atoms: N1_8  and  C8_9 
ROOT
HETATM    1  C1  UNL     1      26.845  -2.126  52.085  1.00  0.00     0.016 C 
HETATM    2  C2  UNL     1      26.883  -1.184  53.052  1.00  0.00     0.028 C 
HETATM    3  C3  UNL     1      27.009  -0.211  54.109  1.00  0.00     0.066 C 
HETATM    4  C4  UNL     1      26.001   0.603  54.244  1.00  0.00     0.068 C 
ENDROOT
BRANCH   3   5
HETATM    5  O1  UNL     1      28.136  -0.163  54.916  1.00  0.00    -0.356 OA
HETATM    6  C15 UNL     1      29.381  -0.340  54.283  1.00  0.00     0.210 C 
ENDBRANCH   3   5
BRANCH   4   7
HETATM    7  C5  UNL     1      24.804   0.593  53.428  1.00  0.00     0.064 A 
HETATM    8  C6  UNL     1      24.640   1.453  52.371  1.00  0.00     0.082 A 
HETATM    9  C7  UNL     1      23.532   1.501  51.552  1.00  0.00     0.131 A 
HETATM   10  N2  UNL     1      22.596   0.608  51.886  1.00  0.00    -0.224 NA
HETATM   11  C14 UNL     1      22.713  -0.239  52.898  1.00  0.00     0.235 A 
HETATM   12  N3  UNL     1      23.803  -0.252  53.665  1.00  0.00    -0.242 NA
BRANCH   9  13
HETATM   13  N1  UNL     1      23.450   2.422  50.494  1.00  0.00    -0.341 N 
HETATM   14  H6  UNL     1      22.752   2.188  49.725  1.00  0.00     0.167 HD
BRANCH  13  15
HETATM   15  C8  UNL     1      24.162   3.612  50.313  1.00  0.00     0.035 A 
HETATM   16  C9  UNL     1      23.763   4.859  50.752  1.00  0.00     0.032 A 
HETATM   17  C10 UNL     1      24.464   6.035  50.585  1.00  0.00     0.046 A 
HETATM   18  C11 UNL     1      25.665   5.982  49.927  1.00  0.00     0.138 A 
HETATM   19  F1  UNL     1      26.427   7.060  49.707  1.00  0.00    -0.204 F 
HETATM   20  C12 UNL     1      26.125   4.772  49.460  1.00  0.00     0.074 A 
HETATM   21 CL1  UNL     1      27.662   4.676  48.614  1.00  0.00    -0.081 Cl
HETATM   22  C13 UNL     1      25.374   3.637  49.662  1.00  0.00     0.056 A 
ENDBRANCH  13  15
ENDBRANCH   9  13
ENDBRANCH   4   7
TORSDOF 4
ENDMDL
MODEL 3
REMARK VINA RESULT:      -7.2      4.693      6.677
REMARK  4 active torsions:
REMARK  status: ('A' for Active; 'I' for Inactive)
REMARK    1  A    between atoms: C3_3  and  O1_20 
REMARK    2  A    between atoms: C4_4  and  C5_5 
REMARK    3  A    between atoms: C7_7  and  N1_8 
REMARK    4  A    between atoms: N1_8  and  C8_9 
ROOT
HETATM    1  C1  UNL     1      26.423  -1.227  52.474  1.00  0.00     0.016 C 
HETATM    2  C2  UNL     1      27.206  -0.202  52.872  1.00  0.00     0.028 C 
HETATM    3  C3  UNL     1      28.094   0.830  53.346  1.00  0.00     0.066 C 
HETATM    4  C4  UNL     1      27.822   2.036  52.934  1.00  0.00     0.068 C 
ENDROOT
BRANCH   3   5
HETATM    5  O1  UNL     1      29.159   0.537  54.184  1.00  0.00    -0.356 OA
HETATM    6  C15 UNL     1      29.887  -0.634  53.904  1.00  0.00     0.210 C 
ENDBRANCH   3   5
BRANCH   4   7
HETATM    7  C5  UNL     1      26.723   2.392  52.060  1.00  0.00     0.064 A 
HETATM    8  C6  UNL     1      25.419   2.363  52.488  1.00  0.00     0.082 A 
HETATM    9  C7  UNL     1      24.324   2.687  51.715  1.00  0.00     0.131 A 
HETATM   10  N2  UNL     1      24.651   3.046  50.470  1.00  0.00    -0.224 NA
HETATM   11  C14 UNL     1      25.895   3.088  50.017  1.00  0.00     0.235 A 
HETATM   12  N3  UNL     1      26.926   2.766  50.799  1.00  0.00    -0.242 NA
BRANCH   9  13
HETATM   13  N1  UNL     1      23.021   2.623  52.238  1.00  0.00    -0.341 N 
HETATM   14  H6  UNL     1      22.498   3.547  52.300  1.00  0.00     0.167 HD
BRANCH  13  15
HETATM   15  C8  UNL     1      22.313   1.503  52.686  1.00  0.00     0.035 A 
HETATM   16  C9  UNL     1      21.067   1.111  52.239  1.00  0.00     0.032 A 
HETATM   17  C10 UNL     1      20.367   0.003  52.671  1.00  0.00     0.046 A 
HETATM   18  C11 UNL     1      20.944  -0.791  53.626  1.00  0.00     0.138 A 
HETATM   19  F1  UNL     1      20.355  -1.888  54.119  1.00  0.00    -0.204 F 
HETATM   20  C12 UNL     1      22.185  -0.461  54.118  1.00  0.00     0.074 A 
HETATM   21 CL1  UNL     1      22.947  -1.464  55.344  1.00  0.00    -0.081 Cl
HETATM   22  C13 UNL     1      22.828   0.659  53.643  1.00  0.00     0.056 A 
ENDBRANCH  13  15
ENDBRANCH   9  13
ENDBRANCH   4   7
TORSDOF 4
ENDMDL
MODEL 4
REMARK VINA RESULT:      -7.2      4.384      6.947
REMARK  4 active torsions:
REMARK  status: ('A' for Active; 'I' for Inactive)
REMARK    1  A    between atoms: C3_3  and  O1_20 
REMARK    2  A    between atoms: C4_4  and  C5_5 
REMARK    3  A    between atoms: C7_7  and  N1_8 
REMARK    4  A    between atoms: N1_8  and  C8_9 
ROOT
HETATM    1  C1  UNL     1      26.684   3.723  49.356  1.00  0.00     0.016 C 
HETATM    2  C2  UNL     1      25.759   4.514  49.941  1.00  0.00     0.028 C 
HETATM    3  C3  UNL     1      24.815   5.434  50.526  1.00  0.00     0.066 C 
HETATM    4  C4  UNL     1      23.881   4.890  51.254  1.00  0.00     0.068 C 
ENDROOT
BRANCH   3   5
HETATM    5  O1  UNL     1      24.913   6.801  50.316  1.00  0.00    -0.356 OA
HETATM    6  C15 UNL     1      23.928   7.610  50.914  1.00  0.00     0.210 C 
ENDBRANCH   3   5
BRANCH   4   7
HETATM    7  C5  UNL     1      23.736   3.471  51.503  1.00  0.00     0.064 A 
HETATM    8  C6  UNL     1      24.493   2.819  52.445  1.00  0.00     0.082 A 
HETATM    9  C7  UNL     1      24.411   1.474  52.736  1.00  0.00     0.131 A 
HETATM   10  N2  UNL     1      23.500   0.834  51.998  1.00  0.00    -0.224 NA
HETATM   11  C14 UNL     1      22.749   1.424  51.080  1.00  0.00     0.235 A 
HETATM   12  N3  UNL     1      22.861   2.729  50.830  1.00  0.00    -0.242 NA
BRANCH   9  13
HETATM   13  N1  UNL     1      25.233   0.892  53.716  1.00  0.00    -0.341 N 
HETATM   14  H6  UNL     1      24.743   0.575  54.607  1.00  0.00     0.167 HD
BRANCH  13  15
HETATM   15  C8  UNL     1      26.613   0.666  53.680  1.00  0.00     0.035 A 
HETATM   16  C9  UNL     1      27.587   1.628  53.858  1.00  0.00     0.032 A 
HETATM   17  C10 UNL     1      28.949   1.412  53.831  1.00  0.00     0.046 A 
HETATM   18  C11 UNL     1      29.394   0.134  53.611  1.00  0.00     0.138 A 
HETATM   19  F1  UNL     1      30.692  -0.190  53.563  1.00  0.00    -0.204 F 
HETATM   20  C12 UNL     1      28.478  -0.876  53.424  1.00  0.00     0.074 A 
HETATM   21 CL1  UNL     1      29.023  -2.522  53.140  1.00  0.00    -0.081 Cl
HETATM   22  C13 UNL     1      27.133  -0.589  53.463  1.00  0.00     0.056 A 
ENDBRANCH  13  15
ENDBRANCH   9  13
ENDBRANCH   4   7
TORSDOF 4
ENDMDL
MODEL 5
REMARK VINA RESULT:      -7.2      5.488      7.467
REMARK  4 active torsions:
REMARK  status: ('A' for Active; 'I' for Inactive)
REMARK    1  A    between atoms: C3_3  and  O1_20 
REMARK    2  A    between atoms: C4_4  and  C5_5 
REMARK    3  A    between atoms: C7_7  and  N1_8 
REMARK    4  A    between atoms: N1_8  and  C8_9 
ROOT
HETATM    1  C1  UNL     1      21.026   2.290  52.724  1.00  0.00     0.016 C 
HETATM    2  C2  UNL     1      20.407   1.095  52.833  1.00  0.00     0.028 C 
HETATM    3  C3  UNL     1      19.671  -0.142  52.908  1.00  0.00     0.066 C 
HETATM    4  C4  UNL     1      20.307  -1.141  53.454  1.00  0.00     0.068 C 
ENDROOT
BRANCH   3   5
HETATM    5  O1  UNL     1      18.374  -0.241  52.427  1.00  0.00    -0.356 OA
HETATM    6  C15 UNL     1      17.597  -1.312  52.908  1.00  0.00     0.210 C 
ENDBRANCH   3   5
BRANCH   4   7
HETATM    7  C5  UNL     1      21.659  -1.087  53.970  1.00  0.00     0.064 A 
HETATM    8  C6  UNL     1      22.730  -0.785  53.166  1.00  0.00     0.082 A 
HETATM    9  C7  UNL     1      24.042  -0.716  53.586  1.00  0.00     0.131 A 
HETATM   10  N2  UNL     1      24.188  -0.979  54.889  1.00  0.00    -0.224 NA
HETATM   11  C14 UNL     1      23.182  -1.275  55.698  1.00  0.00     0.235 A 
HETATM   12  N3  UNL     1      21.928  -1.330  55.251  1.00  0.00    -0.242 NA
BRANCH   9  13
HETATM   13  N1  UNL     1      25.077  -0.404  52.689  1.00  0.00    -0.341 N 
HETATM   14  H6  UNL     1      24.777  -0.180  51.692  1.00  0.00     0.167 HD
BRANCH  13  15
HETATM   15  C8  UNL     1      26.453  -0.342  52.928  1.00  0.00     0.035 A 
HETATM   16  C9  UNL     1      27.323  -1.413  52.880  1.00  0.00     0.032 A 
HETATM   17  C10 UNL     1      28.683  -1.358  53.106  1.00  0.00     0.046 A 
HETATM   18  C11 UNL     1      29.238  -0.141  53.405  1.00  0.00     0.138 A 
HETATM   19  F1  UNL     1      30.544   0.028  53.645  1.00  0.00    -0.204 F 
HETATM   20  C12 UNL     1      28.430   0.970  53.471  1.00  0.00     0.074 A 
HETATM   21 CL1  UNL     1      29.117   2.543  53.852  1.00  0.00    -0.081 Cl
HETATM   22  C13 UNL     1      27.080   0.844  53.234  1.00  0.00     0.056 A 
ENDBRANCH  13  15
ENDBRANCH   9  13
ENDBRANCH   4   7
TORSDOF 4
ENDMDL
MODEL 6
REMARK VINA RESULT:      -7.0      4.272      7.125
REMARK  4 active torsions:
REMARK  status: ('A' for Active; 'I' for Inactive)
REMARK    1  A    between atoms: C3_3  and  O1_20 
REMARK    2  A    between atoms: C4_4  and  C5_5 
REMARK    3  A    between atoms: C7_7  and  N1_8 
REMARK    4  A    between atoms: N1_8  and  C8_9 
ROOT
HETATM    1  C1  UNL     1      24.569   7.177  50.790  1.00  0.00     0.016 C 
HETATM    2  C2  UNL     1      25.499   6.587  50.008  1.00  0.00     0.028 C 
HETATM    3  C3  UNL     1      26.524   6.044  49.152  1.00  0.00     0.066 C 
HETATM    4  C4  UNL     1      26.545   4.744  49.059  1.00  0.00     0.068 C 
ENDROOT
BRANCH   3   5
HETATM    5  O1  UNL     1      27.416   6.867  48.482  1.00  0.00    -0.356 OA
HETATM    6  C15 UNL     1      27.184   8.253  48.557  1.00  0.00     0.210 C 
ENDBRANCH   3   5
BRANCH   4   7
HETATM    7  C5  UNL     1      25.636   3.843  49.737  1.00  0.00     0.064 A 
HETATM    8  C6  UNL     1      25.976   3.220  50.912  1.00  0.00     0.082 A 
HETATM    9  C7  UNL     1      25.166   2.352  51.613  1.00  0.00     0.131 A 
HETATM   10  N2  UNL     1      23.978   2.160  51.031  1.00  0.00    -0.224 NA
HETATM   11  C14 UNL     1      23.611   2.741  49.898  1.00  0.00     0.235 A 
HETATM   12  N3  UNL     1      24.426   3.575  49.252  1.00  0.00    -0.242 NA
BRANCH   9  13
HETATM   13  N1  UNL     1      25.602   1.756  52.808  1.00  0.00    -0.341 N 
HETATM   14  H6  UNL     1      24.920   1.797  53.625  1.00  0.00     0.167 HD
BRANCH  13  15
HETATM   15  C8  UNL     1      26.814   1.109  53.072  1.00  0.00     0.035 A 
HETATM   16  C9  UNL     1      27.961   1.718  53.540  1.00  0.00     0.032 A 
HETATM   17  C10 UNL     1      29.157   1.085  53.810  1.00  0.00     0.046 A 
HETATM   18  C11 UNL     1      29.231  -0.267  53.603  1.00  0.00     0.138 A 
HETATM   19  F1  UNL     1      30.340  -0.983  53.830  1.00  0.00    -0.204 F 
HETATM   20  C12 UNL     1      28.125  -0.940  53.136  1.00  0.00     0.074 A 
HETATM   21 CL1  UNL     1      28.194  -2.675  52.863  1.00  0.00    -0.081 Cl
HETATM   22  C13 UNL     1      26.964  -0.246  52.887  1.00  0.00     0.056 A 
ENDBRANCH  13  15
ENDBRANCH   9  13
ENDBRANCH   4   7
TORSDOF 4
ENDMDL
MODEL 7
REMARK VINA RESULT:      -6.8      4.987      7.107
REMARK  4 active torsions:
REMARK  status: ('A' for Active; 'I' for Inactive)
REMARK    1  A    between atoms: C3_3  and  O1_20 
REMARK    2  A    between atoms: C4_4  and  C5_5 
REMARK    3  A    between atoms: C7_7  and  N1_8 
REMARK    4  A    between atoms: N1_8  and  C8_9 
ROOT
HETATM    1  C1  UNL     1      21.142  -0.307  54.671  1.00  0.00     0.016 C 
HETATM    2  C2  UNL     1      20.320  -0.183  53.607  1.00  0.00     0.028 C 
HETATM    3  C3  UNL     1      19.395  -0.128  52.502  1.00  0.00     0.066 C 
HETATM    4  C4  UNL     1      19.595   0.841  51.653  1.00  0.00     0.068 C 
ENDROOT
BRANCH   3   5
HETATM    5  O1  UNL     1      18.372  -1.053  52.369  1.00  0.00    -0.356 OA
HETATM    6  C15 UNL     1      17.876  -1.628  53.555  1.00  0.00     0.210 C 
ENDBRANCH   3   5
BRANCH   4   7
HETATM    7  C5  UNL     1      20.648   1.831  51.747  1.00  0.00     0.064 A 
HETATM    8  C6  UNL     1      21.969   1.503  51.565  1.00  0.00     0.082 A 
HETATM    9  C7  UNL     1      23.023   2.389  51.639  1.00  0.00     0.131 A 
HETATM   10  N2  UNL     1      22.637   3.638  51.914  1.00  0.00    -0.224 NA
HETATM   11  C14 UNL     1      21.375   3.997  52.097  1.00  0.00     0.235 A 
HETATM   12  N3  UNL     1      20.386   3.107  52.016  1.00  0.00    -0.242 NA
BRANCH   9  13
HETATM   13  N1  UNL     1      24.347   1.960  51.442  1.00  0.00    -0.341 N 
HETATM   14  H6  UNL     1      24.716   2.029  50.446  1.00  0.00     0.167 HD
BRANCH  13  15
HETATM   15  C8  UNL     1      25.252   1.457  52.382  1.00  0.00     0.035 A 
HETATM   16  C9  UNL     1      25.068   0.318  53.142  1.00  0.00     0.032 A 
HETATM   17  C10 UNL     1      25.960  -0.189  54.064  1.00  0.00     0.046 A 
HETATM   18  C11 UNL     1      27.139   0.483  54.256  1.00  0.00     0.138 A 
HETATM   19  F1  UNL     1      28.075   0.083  55.126  1.00  0.00    -0.204 F 
HETATM   20  C12 UNL     1      27.389   1.627  53.534  1.00  0.00     0.074 A 
HETATM   21 CL1  UNL     1      28.894   2.506  53.762  1.00  0.00    -0.081 Cl
HETATM   22  C13 UNL     1      26.455   2.077  52.630  1.00  0.00     0.056 A 
ENDBRANCH  13  15
ENDBRANCH   9  13
ENDBRANCH   4   7
TORSDOF 4
ENDMDL
MODEL 8
REMARK VINA RESULT:      -6.8      5.393      6.221
REMARK  4 active torsions:
REMARK  status: ('A' for Active; 'I' for Inactive)
REMARK    1  A    between atoms: C3_3  and  O1_20 
REMARK    2  A    between atoms: C4_4  and  C5_5 
REMARK    3  A    between atoms: C7_7  and  N1_8 
REMARK    4  A    between atoms: N1_8  and  C8_9 
ROOT
HETATM    1  C1  UNL     1      26.835  -2.384  52.209  1.00  0.00     0.016 C 
HETATM    2  C2  UNL     1      26.953  -1.167  52.784  1.00  0.00     0.028 C 
HETATM    3  C3  UNL     1      27.162   0.141  53.351  1.00  0.00     0.066 C 
HETATM    4  C4  UNL     1      26.232   0.554  54.166  1.00  0.00     0.068 C 
ENDROOT
BRANCH   3   5
HETATM    5  O1  UNL     1      28.285   0.893  53.039  1.00  0.00    -0.356 OA
HETATM    6  C15 UNL     1      29.078   1.330  54.117  1.00  0.00     0.210 C 
ENDBRANCH   3   5
BRANCH   4   7
HETATM    7  C5  UNL     1      25.044  -0.193  54.524  1.00  0.00     0.064 A 
HETATM    8  C6  UNL     1      23.893  -0.123  53.780  1.00  0.00     0.082 A 
HETATM    9  C7  UNL     1      22.726  -0.803  54.058  1.00  0.00     0.131 A 
HETATM   10  N2  UNL     1      22.813  -1.564  55.154  1.00  0.00    -0.224 NA
HETATM   11  C14 UNL     1      23.904  -1.659  55.900  1.00  0.00     0.235 A 
HETATM   12  N3  UNL     1      25.011  -0.984  55.594  1.00  0.00    -0.242 NA
BRANCH   9  13
HETATM   13  N1  UNL     1      21.592  -0.666  53.240  1.00  0.00    -0.341 N 
HETATM   14  H6  UNL     1      20.917  -1.489  53.236  1.00  0.00     0.167 HD
BRANCH  13  15
HETATM   15  C8  UNL     1      21.225   0.412  52.428  1.00  0.00     0.035 A 
HETATM   16  C9  UNL     1      20.641   1.584  52.867  1.00  0.00     0.032 A 
HETATM   17  C10 UNL     1      20.284   2.654  52.074  1.00  0.00     0.046 A 
HETATM   18  C11 UNL     1      20.523   2.566  50.727  1.00  0.00     0.138 A 
HETATM   19  F1  UNL     1      20.216   3.542  49.864  1.00  0.00    -0.204 F 
HETATM   20  C12 UNL     1      21.102   1.426  50.219  1.00  0.00     0.074 A 
HETATM   21 CL1  UNL     1      21.420   1.288  48.496  1.00  0.00    -0.081 Cl
HETATM   22  C13 UNL     1      21.433   0.395  51.068  1.00  0.00     0.056 A 
ENDBRANCH  13  15
ENDBRANCH   9  13
ENDBRANCH   4   7
TORSDOF 4
ENDMDL
MODEL 9
REMARK VINA RESULT:      -6.8      5.175      7.010
REMARK  4 active torsions:
REMARK  status: ('A' for Active; 'I' for Inactive)
REMARK    1  A    between atoms: C3_3  and  O1_20 
REMARK    2  A    between atoms: C4_4  and  C5_5 
REMARK    3  A    between atoms: C7_7  and  N1_8 
REMARK    4  A    between atoms: N1_8  and  C8_9 
ROOT
HETATM    1  C1  UNL     1      22.434   3.462  51.944  1.00  0.00     0.016 C 
HETATM    2  C2  UNL     1      21.663   2.510  51.376  1.00  0.00     0.028 C 
HETATM    3  C3  UNL     1      20.819   1.556  50.702  1.00  0.00     0.066 C 
HETATM    4  C4  UNL     1      20.734   0.385  51.267  1.00  0.00     0.068 C 
ENDROOT
BRANCH   3   5
HETATM    5  O1  UNL     1      20.150   1.883  49.532  1.00  0.00    -0.356 OA
HETATM    6  C15 UNL     1      20.926   1.983  48.362  1.00  0.00     0.210 C 
ENDBRANCH   3   5
BRANCH   4   7
HETATM    7  C5  UNL     1      21.411  -0.005  52.487  1.00  0.00     0.064 A 
HETATM    8  C6  UNL     1      22.764  -0.235  52.523  1.00  0.00     0.082 A 
HETATM    9  C7  UNL     1      23.475  -0.608  53.644  1.00  0.00     0.131 A 
HETATM   10  N2  UNL     1      22.709  -0.731  54.732  1.00  0.00    -0.224 NA
HETATM   11  C14 UNL     1      21.401  -0.519  54.741  1.00  0.00     0.235 A 
HETATM   12  N3  UNL     1      20.752  -0.159  53.633  1.00  0.00    -0.242 NA
BRANCH   9  13
HETATM   13  N1  UNL     1      24.861  -0.827  53.585  1.00  0.00    -0.341 N 
HETATM   14  H6  UNL     1      25.170  -1.844  53.527  1.00  0.00     0.167 HD
BRANCH  13  15
HETATM   15  C8  UNL     1      25.897   0.114  53.589  1.00  0.00     0.035 A 
HETATM   16  C9  UNL     1      25.734   1.484  53.631  1.00  0.00     0.032 A 
HETATM   17  C10 UNL     1      26.750   2.417  53.643  1.00  0.00     0.046 A 
HETATM   18  C11 UNL     1      28.043   1.962  53.612  1.00  0.00     0.138 A 
HETATM   19  F1  UNL     1      29.105   2.776  53.618  1.00  0.00    -0.204 F 
HETATM   20  C12 UNL     1      28.280   0.607  53.568  1.00  0.00     0.074 A 
HETATM   21 CL1  UNL     1      29.928  -0.002  53.528  1.00  0.00    -0.081 Cl
HETATM   22  C13 UNL     1      27.218  -0.268  53.558  1.00  0.00     0.056 A 
ENDBRANCH  13  15
ENDBRANCH   9  13
ENDBRANCH   4   7
TORSDOF 4
ENDMDL
