MODEL 1
REMARK VINA RESULT:      -8.5      0.000      0.000
REMARK  2 active torsions:
REMARK  status: ('A' for Active; 'I' for Inactive)
REMARK    1  A    between atoms: C2_2  and  C3_3 
REMARK    2  A    between atoms: C18_22  and  O1_23 
ROOT
HETATM    1  C3  UNL     1      25.523   3.232  50.325  1.00  0.00     0.083 C 
HETATM    2  C4  UNL     1      25.985   3.076  51.553  1.00  0.00     0.125 C 
HETATM    3  N1  UNL     1      25.368   2.618  52.740  1.00  0.00    -0.358 N 
HETATM    4  C5  UNL     1      25.043   1.245  52.941  1.00  0.00     0.200 C 
HETATM    5  N2  UNL     1      24.813   0.011  53.197  1.00  0.00    -0.281 NA
HETATM    6  C6  UNL     1      25.541  -0.594  54.309  1.00  0.00     0.177 C 
HETATM    7  C7  UNL     1      24.625  -1.179  55.311  1.00  0.00    -0.006 C 
HETATM    8  C8  UNL     1      23.371  -1.402  55.644  1.00  0.00    -0.006 C 
HETATM    9  C9  UNL     1      22.113  -1.089  55.011  1.00  0.00    -0.014 C 
HETATM   10  C10 UNL     1      21.183  -0.682  54.229  1.00  0.00     0.081 C 
HETATM   11  C11 UNL     1      20.622  -0.063  53.082  1.00  0.00     0.085 A 
HETATM   12  N3  UNL     1      20.643   0.695  52.087  1.00  0.00    -0.243 NA
HETATM   13  C12 UNL     1      19.535   0.722  51.398  1.00  0.00     0.087 A 
HETATM   14  C13 UNL     1      19.614   1.568  50.317  1.00  0.00     0.027 A 
HETATM   15  C14 UNL     1      18.537   1.716  49.484  1.00  0.00     0.017 A 
HETATM   16  C15 UNL     1      17.341   1.054  49.657  1.00  0.00     0.002 A 
HETATM   17  C16 UNL     1      17.289   0.213  50.747  1.00  0.00     0.021 A 
HETATM   18  C17 UNL     1      18.350   0.059  51.580  1.00  0.00     0.036 A 
HETATM   19  S1  UNL     1      18.883  -0.812  53.051  1.00  0.00    -0.072 SA
HETATM   20  C18 UNL     1      20.709   2.392  49.842  1.00  0.00     0.079 C 
HETATM   21  C20 UNL     1      22.007   2.409  49.624  1.00  0.00     0.037 C 
HETATM   22  C21 UNL     1      23.349   2.893  49.231  1.00  0.00     0.206 C 
HETATM   23  O2  UNL     1      24.214   2.853  50.324  1.00  0.00    -0.346 OA
HETATM   24  H5  UNL     1      25.049   3.081  53.614  1.00  0.00     0.166 HD
ENDROOT
BRANCH   1  25
HETATM   25  C2  UNL     1      26.447   3.730  49.349  1.00  0.00     0.028 C 
HETATM   26  C1  UNL     1      26.508   4.993  48.981  1.00  0.00     0.014 C 
ENDBRANCH   1  25
BRANCH  20  27
HETATM   27  O1  UNL     1      20.686   3.675  49.382  1.00  0.00    -0.355 OA
HETATM   28  C19 UNL     1      20.359   4.862  50.046  1.00  0.00     0.210 C 
ENDBRANCH  20  27
TORSDOF 2
ENDMDL
MODEL 2
REMARK VINA RESULT:      -8.3      2.397      6.182
REMARK  2 active torsions:
REMARK  status: ('A' for Active; 'I' for Inactive)
REMARK    1  A    between atoms: C2_2  and  C3_3 
REMARK    2  A    between atoms: C18_22  and  O1_23 
ROOT
HETATM    1  C3  UNL     1      18.305   3.373  51.008  1.00  0.00     0.083 C 
HETATM    2  C4  UNL     1      18.188   2.136  51.458  1.00  0.00     0.125 C 
HETATM    3  N1  UNL     1      19.140   1.107  51.641  1.00  0.00    -0.358 N 
HETATM    4  C5  UNL     1      20.104   1.146  52.689  1.00  0.00     0.200 C 
HETATM    5  N2  UNL     1      20.929   1.101  53.669  1.00  0.00    -0.281 NA
HETATM    6  C6  UNL     1      20.775   0.013  54.630  1.00  0.00     0.177 C 
HETATM    7  C7  UNL     1      22.014  -0.782  54.764  1.00  0.00    -0.006 C 
HETATM    8  C8  UNL     1      23.260  -0.933  54.369  1.00  0.00    -0.006 C 
HETATM    9  C9  UNL     1      24.093  -0.213  53.436  1.00  0.00    -0.014 C 
HETATM   10  C10 UNL     1      24.572   0.603  52.571  1.00  0.00     0.081 C 
HETATM   11  C11 UNL     1      24.569   1.703  51.676  1.00  0.00     0.085 A 
HETATM   12  N3  UNL     1      24.023   2.569  50.955  1.00  0.00    -0.243 NA
HETATM   13  C12 UNL     1      24.851   3.368  50.341  1.00  0.00     0.087 A 
HETATM   14  C13 UNL     1      24.200   4.298  49.566  1.00  0.00     0.027 A 
HETATM   15  C14 UNL     1      24.919   5.219  48.851  1.00  0.00     0.017 A 
HETATM   16  C15 UNL     1      26.296   5.281  48.855  1.00  0.00     0.002 A 
HETATM   17  C16 UNL     1      26.923   4.339  49.639  1.00  0.00     0.021 A 
HETATM   18  C17 UNL     1      26.221   3.421  50.351  1.00  0.00     0.036 A 
HETATM   19  S1  UNL     1      26.421   2.042  51.475  1.00  0.00    -0.072 SA
HETATM   20  C18 UNL     1      22.782   4.521  49.351  1.00  0.00     0.079 C 
HETATM   21  C20 UNL     1      21.615   4.584  49.955  1.00  0.00     0.037 C 
HETATM   22  C21 UNL     1      20.158   4.747  50.162  1.00  0.00     0.206 C 
HETATM   23  O2  UNL     1      19.616   3.579  50.698  1.00  0.00    -0.346 OA
HETATM   24  H5  UNL     1      19.346   0.217  51.145  1.00  0.00     0.166 HD
ENDROOT
BRANCH   1  25
HETATM   25  C2  UNL     1      17.103   4.154  50.957  1.00  0.00     0.028 C 
HETATM   26  C1  UNL     1      16.304   4.330  51.989  1.00  0.00     0.014 C 
ENDBRANCH   1  25
BRANCH  20  27
HETATM   27  O1  UNL     1      22.118   4.788  48.191  1.00  0.00    -0.355 OA
HETATM   28  C19 UNL     1      21.971   4.008  47.039  1.00  0.00     0.210 C 
ENDBRANCH  20  27
TORSDOF 2
ENDMDL
MODEL 3
REMARK VINA RESULT:      -8.2      2.260      5.994
REMARK  2 active torsions:
REMARK  status: ('A' for Active; 'I' for Inactive)
REMARK    1  A    between atoms: C2_2  and  C3_3 
REMARK    2  A    between atoms: C18_22  and  O1_23 
ROOT
HETATM    1  C3  UNL     1      21.591   6.397  50.553  1.00  0.00     0.083 C 
HETATM    2  C4  UNL     1      20.518   5.954  49.921  1.00  0.00     0.125 C 
HETATM    3  N1  UNL     1      19.988   4.651  49.765  1.00  0.00    -0.358 N 
HETATM    4  C5  UNL     1      19.352   3.961  50.838  1.00  0.00     0.200 C 
HETATM    5  N2  UNL     1      18.698   3.342  51.749  1.00  0.00    -0.281 NA
HETATM    6  C6  UNL     1      17.287   3.065  51.495  1.00  0.00     0.177 C 
HETATM    7  C7  UNL     1      16.983   1.622  51.602  1.00  0.00    -0.006 C 
HETATM    8  C8  UNL     1      17.465   0.421  51.843  1.00  0.00    -0.006 C 
HETATM    9  C9  UNL     1      18.783  -0.064  52.174  1.00  0.00    -0.014 C 
HETATM   10  C10 UNL     1      20.029  -0.188  52.449  1.00  0.00     0.081 C 
HETATM   11  C11 UNL     1      21.362   0.240  52.677  1.00  0.00     0.085 A 
HETATM   12  N3  UNL     1      22.317   1.045  52.598  1.00  0.00    -0.243 NA
HETATM   13  C12 UNL     1      23.420   0.640  53.165  1.00  0.00     0.087 A 
HETATM   14  C13 UNL     1      24.433   1.562  53.049  1.00  0.00     0.027 A 
HETATM   15  C14 UNL     1      25.664   1.299  53.591  1.00  0.00     0.017 A 
HETATM   16  C15 UNL     1      25.967   0.136  54.266  1.00  0.00     0.002 A 
HETATM   17  C16 UNL     1      24.934  -0.770  54.367  1.00  0.00     0.021 A 
HETATM   18  C17 UNL     1      23.711  -0.519  53.834  1.00  0.00     0.036 A 
HETATM   19  S1  UNL     1      22.078  -1.226  53.639  1.00  0.00    -0.072 SA
HETATM   20  C18 UNL     1      24.451   2.872  52.427  1.00  0.00     0.079 C 
HETATM   21  C20 UNL     1      23.767   3.988  52.282  1.00  0.00     0.037 C 
HETATM   22  C21 UNL     1      23.402   5.353  51.844  1.00  0.00     0.206 C 
HETATM   23  O2  UNL     1      22.214   5.323  51.114  1.00  0.00    -0.346 OA
HETATM   24  H5  UNL     1      19.936   3.983  48.972  1.00  0.00     0.166 HD
ENDROOT
BRANCH   1  25
HETATM   25  C2  UNL     1      21.828   7.810  50.501  1.00  0.00     0.028 C 
HETATM   26  C1  UNL     1      22.687   8.375  49.679  1.00  0.00     0.014 C 
ENDBRANCH   1  25
BRANCH  20  27
HETATM   27  O1  UNL     1      25.406   3.438  51.636  1.00  0.00    -0.355 OA
HETATM   28  C19 UNL     1      25.956   2.990  50.430  1.00  0.00     0.210 C 
ENDBRANCH  20  27
TORSDOF 2
ENDMDL
MODEL 4
REMARK VINA RESULT:      -8.1      2.148      6.064
REMARK  2 active torsions:
REMARK  status: ('A' for Active; 'I' for Inactive)
REMARK    1  A    between atoms: C2_2  and  C3_3 
REMARK    2  A    between atoms: C18_22  and  O1_23 
ROOT
HETATM    1  C3  UNL     1      21.496   3.476  48.570  1.00  0.00     0.083 C 
HETATM    2  C4  UNL     1      20.617   2.489  48.598  1.00  0.00     0.125 C 
HETATM    3  N1  UNL     1      20.615   1.249  49.279  1.00  0.00    -0.358 N 
HETATM    4  C5  UNL     1      20.407   1.160  50.685  1.00  0.00     0.200 C 
HETATM    5  N2  UNL     1      20.138   1.029  51.931  1.00  0.00    -0.281 NA
HETATM    6  C6  UNL     1      18.924   0.299  52.286  1.00  0.00     0.177 C 
HETATM    7  C7  UNL     1      19.211  -0.841  53.182  1.00  0.00    -0.006 C 
HETATM    8  C8  UNL     1      20.139  -1.511  53.832  1.00  0.00    -0.006 C 
HETATM    9  C9  UNL     1      21.569  -1.353  53.949  1.00  0.00    -0.014 C 
HETATM   10  C10 UNL     1      22.787  -0.967  53.860  1.00  0.00     0.081 C 
HETATM   11  C11 UNL     1      23.869  -0.155  53.434  1.00  0.00     0.085 A 
HETATM   12  N3  UNL     1      24.428   0.676  52.683  1.00  0.00    -0.243 NA
HETATM   13  C12 UNL     1      25.654   0.974  53.015  1.00  0.00     0.087 A 
HETATM   14  C13 UNL     1      26.218   1.890  52.158  1.00  0.00     0.027 A 
HETATM   15  C14 UNL     1      27.503   2.317  52.362  1.00  0.00     0.017 A 
HETATM   16  C15 UNL     1      28.297   1.879  53.399  1.00  0.00     0.002 A 
HETATM   17  C16 UNL     1      27.708   0.962  54.242  1.00  0.00     0.021 A 
HETATM   18  C17 UNL     1      26.436   0.532  54.050  1.00  0.00     0.036 A 
HETATM   19  S1  UNL     1      25.188  -0.556  54.733  1.00  0.00    -0.072 SA
HETATM   20  C18 UNL     1      25.667   2.557  50.994  1.00  0.00     0.079 C 
HETATM   21  C20 UNL     1      24.595   3.162  50.526  1.00  0.00     0.037 C 
HETATM   22  C21 UNL     1      23.691   3.878  49.598  1.00  0.00     0.206 C 
HETATM   23  O2  UNL     1      22.538   3.125  49.375  1.00  0.00    -0.346 OA
HETATM   24  H5  UNL     1      20.744   0.262  48.981  1.00  0.00     0.166 HD
ENDROOT
BRANCH   1  25
HETATM   25  C2  UNL     1      21.165   4.607  47.753  1.00  0.00     0.028 C 
HETATM   26  C1  UNL     1      21.699   4.833  46.571  1.00  0.00     0.014 C 
ENDBRANCH   1  25
BRANCH  20  27
HETATM   27  O1  UNL     1      26.244   2.794  49.782  1.00  0.00    -0.355 OA
HETATM   28  C19 UNL     1      26.908   3.932  49.310  1.00  0.00     0.210 C 
ENDBRANCH  20  27
TORSDOF 2
ENDMDL
MODEL 5
REMARK VINA RESULT:      -8.0      2.808      7.713
REMARK  2 active torsions:
REMARK  status: ('A' for Active; 'I' for Inactive)
REMARK    1  A    between atoms: C2_2  and  C3_3 
REMARK    2  A    between atoms: C18_22  and  O1_23 
ROOT
HETATM    1  C3  UNL     1      18.455   1.544  51.524  1.00  0.00     0.083 C 
HETATM    2  C4  UNL     1      18.360   2.798  51.118  1.00  0.00     0.125 C 
HETATM    3  N1  UNL     1      19.335   3.806  50.934  1.00  0.00    -0.358 N 
HETATM    4  C5  UNL     1      20.260   3.774  49.851  1.00  0.00     0.200 C 
HETATM    5  N2  UNL     1      21.050   3.828  48.843  1.00  0.00    -0.281 NA
HETATM    6  C6  UNL     1      20.894   4.951  47.924  1.00  0.00     0.177 C 
HETATM    7  C7  UNL     1      22.151   5.714  47.771  1.00  0.00    -0.006 C 
HETATM    8  C8  UNL     1      23.415   5.817  48.125  1.00  0.00    -0.006 C 
HETATM    9  C9  UNL     1      24.258   5.042  49.004  1.00  0.00    -0.014 C 
HETATM   10  C10 UNL     1      24.743   4.185  49.823  1.00  0.00     0.081 C 
HETATM   11  C11 UNL     1      24.739   3.055  50.682  1.00  0.00     0.085 A 
HETATM   12  N3  UNL     1      24.194   2.182  51.394  1.00  0.00    -0.243 NA
HETATM   13  C12 UNL     1      25.019   1.340  51.951  1.00  0.00     0.087 A 
HETATM   14  C13 UNL     1      24.368   0.403  52.719  1.00  0.00     0.027 A 
HETATM   15  C14 UNL     1      25.085  -0.561  53.377  1.00  0.00     0.017 A 
HETATM   16  C15 UNL     1      26.458  -0.662  53.321  1.00  0.00     0.002 A 
HETATM   17  C16 UNL     1      27.085   0.287  52.546  1.00  0.00     0.021 A 
HETATM   18  C17 UNL     1      26.385   1.248  51.890  1.00  0.00     0.036 A 
HETATM   19  S1  UNL     1      26.587   2.657  50.804  1.00  0.00    -0.072 SA
HETATM   20  C18 UNL     1      22.953   0.215  52.979  1.00  0.00     0.079 C 
HETATM   21  C20 UNL     1      21.764   0.205  52.416  1.00  0.00     0.037 C 
HETATM   22  C21 UNL     1      20.296   0.091  52.258  1.00  0.00     0.206 C 
HETATM   23  O2  UNL     1      19.770   1.291  51.779  1.00  0.00    -0.346 OA
HETATM   24  H5  UNL     1      19.585   4.672  51.451  1.00  0.00     0.166 HD
ENDROOT
BRANCH   1  25
HETATM   25  C2  UNL     1      17.234   0.797  51.594  1.00  0.00     0.028 C 
HETATM   26  C1  UNL     1      16.903  -0.140  50.730  1.00  0.00     0.014 C 
ENDBRANCH   1  25
BRANCH  20  27
HETATM   27  O1  UNL     1      22.323  -0.072  54.153  1.00  0.00    -0.355 OA
HETATM   28  C19 UNL     1      22.220  -1.284  54.845  1.00  0.00     0.210 C 
ENDBRANCH  20  27
TORSDOF 2
ENDMDL
MODEL 6
REMARK VINA RESULT:      -8.0      1.730      2.611
REMARK  2 active torsions:
REMARK  status: ('A' for Active; 'I' for Inactive)
REMARK    1  A    between atoms: C2_2  and  C3_3 
REMARK    2  A    between atoms: C18_22  and  O1_23 
ROOT
HETATM    1  C3  UNL     1      23.446   4.661  49.446  1.00  0.00     0.083 C 
HETATM    2  C4  UNL     1      24.511   4.746  50.224  1.00  0.00     0.125 C 
HETATM    3  N1  UNL     1      24.837   4.113  51.447  1.00  0.00    -0.358 N 
HETATM    4  C5  UNL     1      25.190   2.735  51.513  1.00  0.00     0.200 C 
HETATM    5  N2  UNL     1      25.597   1.522  51.605  1.00  0.00    -0.281 NA
HETATM    6  C6  UNL     1      26.964   1.303  52.066  1.00  0.00     0.177 C 
HETATM    7  C7  UNL     1      27.009   0.427  53.256  1.00  0.00    -0.006 C 
HETATM    8  C8  UNL     1      26.307  -0.278  54.118  1.00  0.00    -0.006 C 
HETATM    9  C9  UNL     1      24.894  -0.525  54.270  1.00  0.00    -0.014 C 
HETATM   10  C10 UNL     1      23.618  -0.558  54.150  1.00  0.00     0.081 C 
HETATM   11  C11 UNL     1      22.355  -0.258  53.580  1.00  0.00     0.085 A 
HETATM   12  N3  UNL     1      21.566   0.410  52.875  1.00  0.00    -0.243 NA
HETATM   13  C12 UNL     1      20.342  -0.039  52.850  1.00  0.00     0.087 A 
HETATM   14  C13 UNL     1      19.520   0.731  52.060  1.00  0.00     0.027 A 
HETATM   15  C14 UNL     1      18.198   0.400  51.920  1.00  0.00     0.017 A 
HETATM   16  C15 UNL     1      17.614  -0.687  52.534  1.00  0.00     0.002 A 
HETATM   17  C16 UNL     1      18.459  -1.440  53.319  1.00  0.00     0.021 A 
HETATM   18  C17 UNL     1      19.771  -1.122  53.466  1.00  0.00     0.036 A 
HETATM   19  S1  UNL     1      21.277  -1.652  54.275  1.00  0.00    -0.072 SA
HETATM   20  C18 UNL     1      19.807   1.915  51.272  1.00  0.00     0.079 C 
HETATM   21  C20 UNL     1      20.679   2.453  50.445  1.00  0.00     0.037 C 
HETATM   22  C21 UNL     1      21.321   3.430  49.538  1.00  0.00     0.206 C 
HETATM   23  O2  UNL     1      22.581   3.780  50.024  1.00  0.00    -0.346 OA
HETATM   24  H5  UNL     1      24.892   4.434  52.434  1.00  0.00     0.166 HD
ENDROOT
BRANCH   1  25
HETATM   25  C2  UNL     1      23.454   5.461  48.257  1.00  0.00     0.028 C 
HETATM   26  C1  UNL     1      24.133   6.584  48.139  1.00  0.00     0.014 C 
ENDBRANCH   1  25
BRANCH  20  27
HETATM   27  O1  UNL     1      19.082   3.061  51.143  1.00  0.00    -0.355 OA
HETATM   28  C19 UNL     1      17.997   3.349  50.307  1.00  0.00     0.210 C 
ENDBRANCH  20  27
TORSDOF 2
ENDMDL
MODEL 7
REMARK VINA RESULT:      -7.5      2.421      5.445
REMARK  2 active torsions:
REMARK  status: ('A' for Active; 'I' for Inactive)
REMARK    1  A    between atoms: C2_2  and  C3_3 
REMARK    2  A    between atoms: C18_22  and  O1_23 
ROOT
HETATM    1  C3  UNL     1      26.330   2.072  52.507  1.00  0.00     0.083 C 
HETATM    2  C4  UNL     1      26.778   2.623  51.393  1.00  0.00     0.125 C 
HETATM    3  N1  UNL     1      26.142   2.911  50.163  1.00  0.00    -0.358 N 
HETATM    4  C5  UNL     1      25.199   3.971  50.030  1.00  0.00     0.200 C 
HETATM    5  N2  UNL     1      24.414   4.967  49.847  1.00  0.00    -0.281 NA
HETATM    6  C6  UNL     1      24.855   6.014  48.931  1.00  0.00     0.177 C 
HETATM    7  C7  UNL     1      23.879   6.239  47.843  1.00  0.00    -0.006 C 
HETATM    8  C8  UNL     1      22.723   5.882  47.323  1.00  0.00    -0.006 C 
HETATM    9  C9  UNL     1      21.730   4.908  47.705  1.00  0.00    -0.014 C 
HETATM   10  C10 UNL     1      21.051   3.987  48.281  1.00  0.00     0.081 C 
HETATM   11  C11 UNL     1      20.757   3.001  49.258  1.00  0.00     0.085 A 
HETATM   12  N3  UNL     1      21.049   2.198  50.173  1.00  0.00    -0.243 NA
HETATM   13  C12 UNL     1      20.037   1.534  50.660  1.00  0.00     0.087 A 
HETATM   14  C13 UNL     1      20.413   0.671  51.661  1.00  0.00     0.027 A 
HETATM   15  C14 UNL     1      19.473  -0.106  52.285  1.00  0.00     0.017 A 
HETATM   16  C15 UNL     1      18.131  -0.081  51.970  1.00  0.00     0.002 A 
HETATM   17  C16 UNL     1      17.782   0.792  50.964  1.00  0.00     0.021 A 
HETATM   18  C17 UNL     1      18.705   1.567  50.338  1.00  0.00     0.036 A 
HETATM   19  S1  UNL     1      18.883   2.808  49.061  1.00  0.00    -0.072 SA
HETATM   20  C18 UNL     1      21.717   0.409  52.242  1.00  0.00     0.079 C 
HETATM   21  C20 UNL     1      22.820   0.983  52.673  1.00  0.00     0.037 C 
HETATM   22  C21 UNL     1      24.175   1.147  53.244  1.00  0.00     0.206 C 
HETATM   23  O2  UNL     1      25.014   1.771  52.320  1.00  0.00    -0.346 OA
HETATM   24  H5  UNL     1      26.190   2.497  49.211  1.00  0.00     0.166 HD
ENDROOT
BRANCH   1  25
HETATM   25  C2  UNL     1      27.272   1.931  53.578  1.00  0.00     0.028 C 
HETATM   26  C1  UNL     1      28.488   2.436  53.550  1.00  0.00     0.014 C 
ENDBRANCH   1  25
BRANCH  20  27
HETATM   27  O1  UNL     1      22.288  -0.781  52.578  1.00  0.00    -0.355 OA
HETATM   28  C19 UNL     1      22.122  -1.566  53.724  1.00  0.00     0.210 C 
ENDBRANCH  20  27
TORSDOF 2
ENDMDL
MODEL 8
REMARK VINA RESULT:      -7.1      3.261      6.065
REMARK  2 active torsions:
REMARK  status: ('A' for Active; 'I' for Inactive)
REMARK    1  A    between atoms: C2_2  and  C3_3 
REMARK    2  A    between atoms: C18_22  and  O1_23 
ROOT
HETATM    1  C3  UNL     1      26.105   2.259  52.155  1.00  0.00     0.083 C 
HETATM    2  C4  UNL     1      26.767   2.658  51.083  1.00  0.00     0.125 C 
HETATM    3  N1  UNL     1      26.333   3.251  49.875  1.00  0.00    -0.358 N 
HETATM    4  C5  UNL     1      25.888   4.604  49.815  1.00  0.00     0.200 C 
HETATM    5  N2  UNL     1      25.564   5.838  49.701  1.00  0.00    -0.281 NA
HETATM    6  C6  UNL     1      26.409   6.682  48.861  1.00  0.00     0.177 C 
HETATM    7  C7  UNL     1      25.633   7.343  47.790  1.00  0.00    -0.006 C 
HETATM    8  C8  UNL     1      24.446   7.506  47.244  1.00  0.00    -0.006 C 
HETATM    9  C9  UNL     1      23.139   6.980  47.555  1.00  0.00    -0.014 C 
HETATM   10  C10 UNL     1      22.134   6.368  48.063  1.00  0.00     0.081 C 
HETATM   11  C11 UNL     1      21.447   5.518  48.968  1.00  0.00     0.085 A 
HETATM   12  N3  UNL     1      21.372   4.609  49.825  1.00  0.00    -0.243 NA
HETATM   13  C12 UNL     1      20.166   4.370  50.262  1.00  0.00     0.087 A 
HETATM   14  C13 UNL     1      20.142   3.366  51.201  1.00  0.00     0.027 A 
HETATM   15  C14 UNL     1      18.954   2.986  51.767  1.00  0.00     0.017 A 
HETATM   16  C15 UNL     1      17.741   3.558  51.451  1.00  0.00     0.002 A 
HETATM   17  C16 UNL     1      17.794   4.561  50.508  1.00  0.00     0.021 A 
HETATM   18  C17 UNL     1      18.965   4.946  49.941  1.00  0.00     0.036 A 
HETATM   19  S1  UNL     1      19.656   6.094  48.753  1.00  0.00    -0.072 SA
HETATM   20  C18 UNL     1      21.220   2.574  51.764  1.00  0.00     0.079 C 
HETATM   21  C20 UNL     1      22.447   2.637  52.237  1.00  0.00     0.037 C 
HETATM   22  C21 UNL     1      23.740   2.215  52.821  1.00  0.00     0.206 C 
HETATM   23  O2  UNL     1      24.783   2.515  51.945  1.00  0.00    -0.346 OA
HETATM   24  H5  UNL     1      26.241   2.914  48.897  1.00  0.00     0.166 HD
ENDROOT
BRANCH   1  25
HETATM   25  C2  UNL     1      26.883   1.689  53.216  1.00  0.00     0.028 C 
HETATM   26  C1  UNL     1      28.044   2.172  53.607  1.00  0.00     0.014 C 
ENDBRANCH   1  25
BRANCH  20  27
HETATM   27  O1  UNL     1      21.266   1.236  52.017  1.00  0.00    -0.355 OA
HETATM   28  C19 UNL     1      21.203   0.152  51.135  1.00  0.00     0.210 C 
ENDBRANCH  20  27
TORSDOF 2
ENDMDL
MODEL 9
REMARK VINA RESULT:      -7.1      2.890      6.459
REMARK  2 active torsions:
REMARK  status: ('A' for Active; 'I' for Inactive)
REMARK    1  A    between atoms: C2_2  and  C3_3 
REMARK    2  A    between atoms: C18_22  and  O1_23 
ROOT
HETATM    1  C3  UNL     1      19.391   1.858  51.073  1.00  0.00     0.083 C 
HETATM    2  C4  UNL     1      19.985   0.699  51.297  1.00  0.00     0.125 C 
HETATM    3  N1  UNL     1      21.308   0.258  51.065  1.00  0.00    -0.358 N 
HETATM    4  C5  UNL     1      22.404   0.705  51.858  1.00  0.00     0.200 C 
HETATM    5  N2  UNL     1      23.401   1.013  52.602  1.00  0.00    -0.281 NA
HETATM    6  C6  UNL     1      24.042  -0.063  53.351  1.00  0.00     0.177 C 
HETATM    7  C7  UNL     1      25.487  -0.157  53.051  1.00  0.00    -0.006 C 
HETATM    8  C8  UNL     1      26.493   0.343  52.366  1.00  0.00    -0.006 C 
HETATM    9  C9  UNL     1      26.599   1.430  51.422  1.00  0.00    -0.014 C 
HETATM   10  C10 UNL     1      26.383   2.424  50.642  1.00  0.00     0.081 C 
HETATM   11  C11 UNL     1      25.623   3.431  49.993  1.00  0.00     0.085 A 
HETATM   12  N3  UNL     1      24.563   3.958  49.589  1.00  0.00    -0.243 NA
HETATM   13  C12 UNL     1      24.721   5.093  48.966  1.00  0.00     0.087 A 
HETATM   14  C13 UNL     1      23.526   5.628  48.546  1.00  0.00     0.027 A 
HETATM   15  C14 UNL     1      23.508   6.822  47.875  1.00  0.00     0.017 A 
HETATM   16  C15 UNL     1      24.641   7.549  47.581  1.00  0.00     0.002 A 
HETATM   17  C16 UNL     1      25.824   6.991  48.013  1.00  0.00     0.021 A 
HETATM   18  C17 UNL     1      25.854   5.809  48.679  1.00  0.00     0.036 A 
HETATM   19  S1  UNL     1      26.973   4.643  49.449  1.00  0.00    -0.072 SA
HETATM   20  C18 UNL     1      22.168   5.141  48.700  1.00  0.00     0.079 C 
HETATM   21  C20 UNL     1      21.328   4.590  49.551  1.00  0.00     0.037 C 
HETATM   22  C21 UNL     1      20.086   4.008  50.106  1.00  0.00     0.206 C 
HETATM   23  O2  UNL     1      20.314   2.696  50.522  1.00  0.00    -0.346 OA
HETATM   24  H5  UNL     1      21.744  -0.387  50.377  1.00  0.00     0.166 HD
ENDROOT
BRANCH   1  25
HETATM   25  C2  UNL     1      18.009   1.953  51.440  1.00  0.00     0.028 C 
HETATM   26  C1  UNL     1      17.336   3.085  51.459  1.00  0.00     0.014 C 
ENDBRANCH   1  25
BRANCH  20  27
HETATM   27  O1  UNL     1      21.153   5.114  47.790  1.00  0.00    -0.355 OA
HETATM   28  C19 UNL     1      21.009   4.351  46.626  1.00  0.00     0.210 C 
ENDBRANCH  20  27
TORSDOF 2
ENDMDL
