MODEL 1
REMARK VINA RESULT:      -8.5      0.000      0.000
REMARK  7 active torsions:
REMARK  status: ('A' for Active; 'I' for Inactive)
REMARK    1  A    between atoms: C2_2  and  C3_3 
REMARK    2  A    between atoms: C4_4  and  C5_5 
REMARK       I    between atoms: C5_5  and  N1_7 
REMARK    3  A    between atoms: C13_17  and  N4_18 
REMARK    4  A    between atoms: C20_27  and  O2_28 
REMARK    5  A    between atoms: O2_28  and  C21_29 
REMARK    6  A    between atoms: C21_29  and  C22_30 
REMARK    7  A    between atoms: C22_30  and  N5_31 
ROOT
HETATM    1  C5  UNL     1      25.992   0.177  54.182  1.00  0.00     0.249 C 
HETATM    2  O1  UNL     1      25.745  -0.917  54.712  1.00  0.00    -0.268 OA
HETATM    3  N1  UNL     1      25.045   0.701  53.313  1.00  0.00    -0.291 N 
HETATM    4  C6  UNL     1      25.366   1.959  52.691  1.00  0.00     0.098 A 
HETATM    5  C7  UNL     1      24.576   2.617  51.846  1.00  0.00     0.033 A 
HETATM    6  C8  UNL     1      23.276   2.078  51.481  1.00  0.00     0.022 A 
HETATM    7  C9  UNL     1      22.980   0.876  52.080  1.00  0.00     0.095 A 
HETATM    8  N2  UNL     1      21.790   0.253  51.835  1.00  0.00    -0.258 NA
HETATM    9  C10 UNL     1      20.897   0.813  51.002  1.00  0.00     0.142 A 
HETATM   10  C11 UNL     1      21.149   2.029  50.370  1.00  0.00     0.089 A 
HETATM   11  C12 UNL     1      20.213   2.645  49.479  1.00  0.00     0.103 C 
HETATM   12  N3  UNL     1      19.449   3.148  48.739  1.00  0.00    -0.191 NA
HETATM   13  C13 UNL     1      22.358   2.643  50.630  1.00  0.00     0.066 A 
HETATM   14  C20 UNL     1      23.803   0.058  53.029  1.00  0.00     0.284 A 
ENDROOT
BRANCH  13  15
HETATM   15  N4  UNL     1      22.724   3.899  50.019  1.00  0.00    -0.369 N 
HETATM   16  C14 UNL     1      22.391   5.133  50.701  1.00  0.00     0.151 C 
HETATM   17  C15 UNL     1      23.583   6.030  50.916  1.00  0.00     0.162 C 
HETATM   18 CL1  UNL     1      23.117   7.727  50.681  1.00  0.00    -0.116 Cl
HETATM   19  C16 UNL     1      24.735   5.624  50.065  1.00  0.00     0.112 C 
HETATM   20  F1  UNL     1      25.925   6.227  50.414  1.00  0.00    -0.209 F 
HETATM   21  C17 UNL     1      24.768   4.776  49.037  1.00  0.00     0.037 C 
HETATM   22  C18 UNL     1      23.410   4.205  48.783  1.00  0.00     0.106 C 
HETATM   23  C19 UNL     1      22.695   5.150  47.880  1.00  0.00     0.037 C 
ENDBRANCH  13  15
BRANCH  14  24
HETATM   24  O2  UNL     1      23.069  -0.238  54.165  1.00  0.00    -0.359 OA
BRANCH  24  25
HETATM   25  C21 UNL     1      22.602  -1.541  54.227  1.00  0.00     0.200 C 
BRANCH  25  26
HETATM   26  C22 UNL     1      21.113  -1.491  54.515  1.00  0.00     0.292 C 
BRANCH  26  27
HETATM   27  N5  UNL     1      20.780  -0.114  54.837  1.00  0.00     0.080 N 
HETATM   28  H24 UNL     1      21.475   0.550  54.391  1.00  0.00     0.312 HD
HETATM   29  H25 UNL     1      19.842   0.148  54.485  1.00  0.00     0.312 HD
ENDBRANCH  26  27
ENDBRANCH  25  26
ENDBRANCH  24  25
ENDBRANCH  14  24
BRANCH   1  30
HETATM   30  C4  UNL     1      27.277   0.657  54.626  1.00  0.00     0.070 C 
HETATM   31  C3  UNL     1      28.477   0.188  54.377  1.00  0.00    -0.022 C 
BRANCH  31  32
HETATM   32  C2  UNL     1      29.501  -0.695  53.815  1.00  0.00     0.023 C 
HETATM   33  C1  UNL     1      28.924  -1.971  53.197  1.00  0.00     0.009 C 
ENDBRANCH  31  32
ENDBRANCH   1  30
TORSDOF 7
ENDMDL
MODEL 2
REMARK VINA RESULT:      -8.3      3.707      6.965
REMARK  7 active torsions:
REMARK  status: ('A' for Active; 'I' for Inactive)
REMARK    1  A    between atoms: C2_2  and  C3_3 
REMARK    2  A    between atoms: C4_4  and  C5_5 
REMARK       I    between atoms: C5_5  and  N1_7 
REMARK    3  A    between atoms: C13_17  and  N4_18 
REMARK    4  A    between atoms: C20_27  and  O2_28 
REMARK    5  A    between atoms: O2_28  and  C21_29 
REMARK    6  A    between atoms: C21_29  and  C22_30 
REMARK    7  A    between atoms: C22_30  and  N5_31 
ROOT
HETATM    1  C5  UNL     1      26.056   5.042  49.102  1.00  0.00     0.249 C 
HETATM    2  O1  UNL     1      25.294   5.859  48.561  1.00  0.00    -0.268 OA
HETATM    3  N1  UNL     1      25.502   4.140  50.001  1.00  0.00    -0.291 N 
HETATM    4  C6  UNL     1      26.410   3.219  50.633  1.00  0.00     0.098 A 
HETATM    5  C7  UNL     1      26.058   2.279  51.505  1.00  0.00     0.033 A 
HETATM    6  C8  UNL     1      24.666   2.116  51.893  1.00  0.00     0.022 A 
HETATM    7  C9  UNL     1      23.808   3.001  51.283  1.00  0.00     0.095 A 
HETATM    8  N2  UNL     1      22.470   2.962  51.548  1.00  0.00    -0.258 NA
HETATM    9  C10 UNL     1      21.979   2.055  52.409  1.00  0.00     0.142 A 
HETATM   10  C11 UNL     1      22.807   1.137  53.053  1.00  0.00     0.089 A 
HETATM   11  C12 UNL     1      22.308   0.161  53.974  1.00  0.00     0.103 C 
HETATM   12  N3  UNL     1      21.901  -0.635  54.740  1.00  0.00    -0.191 NA
HETATM   13  C13 UNL     1      24.158   1.192  52.773  1.00  0.00     0.066 A 
HETATM   14  C20 UNL     1      24.108   4.095  50.304  1.00  0.00     0.284 A 
ENDROOT
BRANCH  13  15
HETATM   15  N4  UNL     1      25.104   0.295  53.394  1.00  0.00    -0.369 N 
HETATM   16  C14 UNL     1      25.526  -0.887  52.670  1.00  0.00     0.151 C 
HETATM   17  C15 UNL     1      27.023  -0.995  52.538  1.00  0.00     0.162 C 
HETATM   18 CL1  UNL     1      27.528  -2.689  52.711  1.00  0.00    -0.116 Cl
HETATM   19  C16 UNL     1      27.725  -0.084  53.483  1.00  0.00     0.112 C 
HETATM   20  F1  UNL     1      29.071   0.062  53.221  1.00  0.00    -0.209 F 
HETATM   21  C17 UNL     1      27.236   0.593  54.522  1.00  0.00     0.037 C 
HETATM   22  C18 UNL     1      25.772   0.335  54.675  1.00  0.00     0.106 C 
HETATM   23  C19 UNL     1      25.623  -0.893  55.506  1.00  0.00     0.037 C 
ENDBRANCH  13  15
BRANCH  14  24
HETATM   24  O2  UNL     1      23.308   3.963  49.182  1.00  0.00    -0.359 OA
BRANCH  24  25
HETATM   25  C21 UNL     1      23.412   2.740  48.539  1.00  0.00     0.200 C 
BRANCH  25  26
HETATM   26  C22 UNL     1      22.110   2.485  47.805  1.00  0.00     0.292 C 
BRANCH  26  27
HETATM   27  N5  UNL     1      21.048   2.477  48.796  1.00  0.00     0.080 N 
HETATM   28  H24 UNL     1      20.224   1.905  48.453  1.00  0.00     0.312 HD
HETATM   29  H25 UNL     1      21.358   2.056  49.689  1.00  0.00     0.312 HD
ENDBRANCH  26  27
ENDBRANCH  25  26
ENDBRANCH  24  25
ENDBRANCH  14  24
BRANCH   1  30
HETATM   30  C4  UNL     1      27.404   5.247  48.635  1.00  0.00     0.070 C 
HETATM   31  C3  UNL     1      27.988   6.347  48.221  1.00  0.00    -0.022 C 
BRANCH  31  32
HETATM   32  C2  UNL     1      28.131   7.764  47.881  1.00  0.00     0.023 C 
HETATM   33  C1  UNL     1      27.143   8.229  46.810  1.00  0.00     0.009 C 
ENDBRANCH  31  32
ENDBRANCH   1  30
TORSDOF 7
ENDMDL
MODEL 3
REMARK VINA RESULT:      -8.2      1.324      1.831
REMARK  7 active torsions:
REMARK  status: ('A' for Active; 'I' for Inactive)
REMARK    1  A    between atoms: C2_2  and  C3_3 
REMARK    2  A    between atoms: C4_4  and  C5_5 
REMARK       I    between atoms: C5_5  and  N1_7 
REMARK    3  A    between atoms: C13_17  and  N4_18 
REMARK    4  A    between atoms: C20_27  and  O2_28 
REMARK    5  A    between atoms: O2_28  and  C21_29 
REMARK    6  A    between atoms: C21_29  and  C22_30 
REMARK    7  A    between atoms: C22_30  and  N5_31 
ROOT
HETATM    1  C5  UNL     1      26.006   0.042  54.214  1.00  0.00     0.249 C 
HETATM    2  O1  UNL     1      25.715  -1.119  54.538  1.00  0.00    -0.268 OA
HETATM    3  N1  UNL     1      25.100   0.737  53.423  1.00  0.00    -0.291 N 
HETATM    4  C6  UNL     1      25.472   2.074  53.040  1.00  0.00     0.098 A 
HETATM    5  C7  UNL     1      24.727   2.891  52.300  1.00  0.00     0.033 A 
HETATM    6  C8  UNL     1      23.427   2.462  51.809  1.00  0.00     0.022 A 
HETATM    7  C9  UNL     1      23.083   1.184  52.181  1.00  0.00     0.095 A 
HETATM    8  N2  UNL     1      21.887   0.649  51.797  1.00  0.00    -0.258 NA
HETATM    9  C10 UNL     1      21.035   1.370  51.050  1.00  0.00     0.142 A 
HETATM   10  C11 UNL     1      21.338   2.670  50.647  1.00  0.00     0.089 A 
HETATM   11  C12 UNL     1      20.446   3.459  49.851  1.00  0.00     0.103 C 
HETATM   12  N3  UNL     1      19.719   4.105  49.188  1.00  0.00    -0.191 NA
HETATM   13  C13 UNL     1      22.551   3.194  51.045  1.00  0.00     0.066 A 
HETATM   14  C20 UNL     1      23.854   0.190  52.996  1.00  0.00     0.284 A 
ENDROOT
BRANCH  13  15
HETATM   15  N4  UNL     1      22.968   4.525  50.673  1.00  0.00    -0.369 N 
HETATM   16  C14 UNL     1      23.616   4.724  49.392  1.00  0.00     0.151 C 
HETATM   17  C15 UNL     1      22.943   5.772  48.545  1.00  0.00     0.162 C 
HETATM   18 CL1  UNL     1      24.163   6.729  47.680  1.00  0.00    -0.116 Cl
HETATM   19  C16 UNL     1      22.013   6.613  49.348  1.00  0.00     0.112 C 
HETATM   20  F1  UNL     1      21.174   7.399  48.587  1.00  0.00    -0.209 F 
HETATM   21  C17 UNL     1      21.887   6.703  50.672  1.00  0.00     0.037 C 
HETATM   22  C18 UNL     1      22.859   5.795  51.355  1.00  0.00     0.106 C 
HETATM   23  C19 UNL     1      24.137   6.545  51.505  1.00  0.00     0.037 C 
ENDBRANCH  13  15
BRANCH  14  24
HETATM   24  O2  UNL     1      23.076  -0.277  54.041  1.00  0.00    -0.359 OA
BRANCH  24  25
HETATM   25  C21 UNL     1      22.485  -1.510  53.815  1.00  0.00     0.200 C 
BRANCH  25  26
HETATM   26  C22 UNL     1      21.093  -1.480  54.417  1.00  0.00     0.292 C 
BRANCH  26  27
HETATM   27  N5  UNL     1      20.813  -0.105  54.792  1.00  0.00     0.080 N 
HETATM   28  H24 UNL     1      21.569   0.541  54.425  1.00  0.00     0.312 HD
HETATM   29  H25 UNL     1      19.914   0.226  54.397  1.00  0.00     0.312 HD
ENDBRANCH  26  27
ENDBRANCH  25  26
ENDBRANCH  24  25
ENDBRANCH  14  24
BRANCH   1  30
HETATM   30  C4  UNL     1      27.286   0.400  54.771  1.00  0.00     0.070 C 
HETATM   31  C3  UNL     1      28.488  -0.002  54.431  1.00  0.00    -0.022 C 
BRANCH  31  32
HETATM   32  C2  UNL     1      29.517  -0.732  53.688  1.00  0.00     0.023 C 
HETATM   33  C1  UNL     1      29.064  -2.123  53.239  1.00  0.00     0.009 C 
ENDBRANCH  31  32
ENDBRANCH   1  30
TORSDOF 7
ENDMDL
MODEL 4
REMARK VINA RESULT:      -8.2      3.007      5.794
REMARK  7 active torsions:
REMARK  status: ('A' for Active; 'I' for Inactive)
REMARK    1  A    between atoms: C2_2  and  C3_3 
REMARK    2  A    between atoms: C4_4  and  C5_5 
REMARK       I    between atoms: C5_5  and  N1_7 
REMARK    3  A    between atoms: C13_17  and  N4_18 
REMARK    4  A    between atoms: C20_27  and  O2_28 
REMARK    5  A    between atoms: O2_28  and  C21_29 
REMARK    6  A    between atoms: C21_29  and  C22_30 
REMARK    7  A    between atoms: C22_30  and  N5_31 
ROOT
HETATM    1  C5  UNL     1      26.240   3.626  50.186  1.00  0.00     0.249 C 
HETATM    2  O1  UNL     1      27.407   3.392  50.537  1.00  0.00    -0.268 OA
HETATM    3  N1  UNL     1      25.231   2.853  50.744  1.00  0.00    -0.291 N 
HETATM    4  C6  UNL     1      23.889   3.127  50.302  1.00  0.00     0.098 A 
HETATM    5  C7  UNL     1      22.799   2.500  50.736  1.00  0.00     0.033 A 
HETATM    6  C8  UNL     1      22.903   1.446  51.733  1.00  0.00     0.022 A 
HETATM    7  C9  UNL     1      24.189   1.193  52.147  1.00  0.00     0.095 A 
HETATM    8  N2  UNL     1      24.439   0.232  53.085  1.00  0.00    -0.258 NA
HETATM    9  C10 UNL     1      23.425  -0.475  53.611  1.00  0.00     0.142 A 
HETATM   10  C11 UNL     1      22.104  -0.256  53.224  1.00  0.00     0.089 A 
HETATM   11  C12 UNL     1      21.006  -0.996  53.771  1.00  0.00     0.103 C 
HETATM   12  N3  UNL     1      20.104  -1.610  54.211  1.00  0.00    -0.191 NA
HETATM   13  C13 UNL     1      21.871   0.719  52.275  1.00  0.00     0.066 A 
HETATM   14  C20 UNL     1      25.472   1.832  51.712  1.00  0.00     0.284 A 
ENDROOT
BRANCH  13  15
HETATM   15  N4  UNL     1      20.542   1.018  51.796  1.00  0.00    -0.369 N 
HETATM   16  C14 UNL     1      19.825   2.136  52.374  1.00  0.00     0.151 C 
HETATM   17  C15 UNL     1      19.341   3.124  51.344  1.00  0.00     0.162 C 
HETATM   18 CL1  UNL     1      17.733   3.729  51.791  1.00  0.00    -0.116 Cl
HETATM   19  C16 UNL     1      19.381   2.549  49.972  1.00  0.00     0.112 C 
HETATM   20  F1  UNL     1      19.214   3.483  48.971  1.00  0.00    -0.209 F 
HETATM   21  C17 UNL     1      19.553   1.283  49.591  1.00  0.00     0.037 C 
HETATM   22  C18 UNL     1      19.721   0.395  50.782  1.00  0.00     0.106 C 
HETATM   23  C19 UNL     1      18.358  -0.007  51.230  1.00  0.00     0.037 C 
ENDBRANCH  13  15
BRANCH  14  24
HETATM   24  O2  UNL     1      26.181   2.281  52.813  1.00  0.00    -0.359 OA
BRANCH  24  25
HETATM   25  C21 UNL     1      27.257   1.485  53.170  1.00  0.00     0.200 C 
BRANCH  25  26
HETATM   26  C22 UNL     1      28.379   2.395  53.633  1.00  0.00     0.292 C 
BRANCH  26  27
HETATM   27  N5  UNL     1      29.108   1.690  54.673  1.00  0.00     0.080 N 
HETATM   28  H24 UNL     1      29.648   0.876  54.261  1.00  0.00     0.312 HD
HETATM   29  H25 UNL     1      29.798   2.304  55.143  1.00  0.00     0.312 HD
ENDBRANCH  26  27
ENDBRANCH  25  26
ENDBRANCH  24  25
ENDBRANCH  14  24
BRANCH   1  30
HETATM   30  C4  UNL     1      26.224   4.705  49.230  1.00  0.00     0.070 C 
HETATM   31  C3  UNL     1      27.224   5.303  48.627  1.00  0.00    -0.022 C 
BRANCH  31  32
HETATM   32  C2  UNL     1      28.611   5.598  48.263  1.00  0.00     0.023 C 
HETATM   33  C1  UNL     1      28.785   6.970  47.608  1.00  0.00     0.009 C 
ENDBRANCH  31  32
ENDBRANCH   1  30
TORSDOF 7
ENDMDL
MODEL 5
REMARK VINA RESULT:      -7.9      6.813      9.457
REMARK  7 active torsions:
REMARK  status: ('A' for Active; 'I' for Inactive)
REMARK    1  A    between atoms: C2_2  and  C3_3 
REMARK    2  A    between atoms: C4_4  and  C5_5 
REMARK       I    between atoms: C5_5  and  N1_7 
REMARK    3  A    between atoms: C13_17  and  N4_18 
REMARK    4  A    between atoms: C20_27  and  O2_28 
REMARK    5  A    between atoms: O2_28  and  C21_29 
REMARK    6  A    between atoms: C21_29  and  C22_30 
REMARK    7  A    between atoms: C22_30  and  N5_31 
ROOT
HETATM    1  C5  UNL     1      26.064   4.726  49.267  1.00  0.00     0.249 C 
HETATM    2  O1  UNL     1      24.932   5.153  49.540  1.00  0.00    -0.268 OA
HETATM    3  N1  UNL     1      27.035   5.653  48.914  1.00  0.00    -0.291 N 
HETATM    4  C6  UNL     1      28.334   5.130  48.578  1.00  0.00     0.098 A 
HETATM    5  C7  UNL     1      29.387   5.866  48.232  1.00  0.00     0.033 A 
HETATM    6  C8  UNL     1      29.285   7.316  48.169  1.00  0.00     0.022 A 
HETATM    7  C9  UNL     1      28.040   7.803  48.492  1.00  0.00     0.095 A 
HETATM    8  N2  UNL     1      27.798   9.147  48.481  1.00  0.00    -0.258 NA
HETATM    9  C10 UNL     1      28.778  10.005  48.153  1.00  0.00     0.142 A 
HETATM   10  C11 UNL     1      30.057   9.561  47.818  1.00  0.00     0.089 A 
HETATM   11  C12 UNL     1      31.118  10.456  47.467  1.00  0.00     0.103 C 
HETATM   12  N3  UNL     1      31.988  11.189  47.167  1.00  0.00    -0.191 NA
HETATM   13  C13 UNL     1      30.282   8.199  47.835  1.00  0.00     0.066 A 
HETATM   14  C20 UNL     1      26.798   7.060  48.879  1.00  0.00     0.284 A 
ENDROOT
BRANCH  13  15
HETATM   15  N4  UNL     1      31.566   7.633  47.494  1.00  0.00    -0.369 N 
HETATM   16  C14 UNL     1      32.525   7.384  48.551  1.00  0.00     0.151 C 
HETATM   17  C15 UNL     1      33.019   5.961  48.579  1.00  0.00     0.162 C 
HETATM   18 CL1  UNL     1      34.749   5.926  48.978  1.00  0.00    -0.116 Cl
HETATM   19  C16 UNL     1      32.704   5.247  47.312  1.00  0.00     0.112 C 
HETATM   20  F1  UNL     1      32.884   3.881  47.382  1.00  0.00    -0.209 F 
HETATM   21  C17 UNL     1      32.281   5.739  46.148  1.00  0.00     0.037 C 
HETATM   22  C18 UNL     1      32.133   7.224  46.228  1.00  0.00     0.106 C 
HETATM   23  C19 UNL     1      33.461   7.820  45.908  1.00  0.00     0.037 C 
ENDBRANCH  13  15
BRANCH  14  24
HETATM   24  O2  UNL     1      26.294   7.558  50.068  1.00  0.00    -0.359 OA
BRANCH  24  25
HETATM   25  C21 UNL     1      25.267   8.476  49.920  1.00  0.00     0.200 C 
BRANCH  25  26
HETATM   26  C22 UNL     1      24.087   7.996  50.743  1.00  0.00     0.292 C 
BRANCH  26  27
HETATM   27  N5  UNL     1      24.610   7.133  51.787  1.00  0.00     0.080 N 
HETATM   28  H24 UNL     1      25.668   7.094  51.742  1.00  0.00     0.312 HD
HETATM   29  H25 UNL     1      24.360   7.476  52.732  1.00  0.00     0.312 HD
ENDBRANCH  26  27
ENDBRANCH  25  26
ENDBRANCH  24  25
ENDBRANCH  14  24
BRANCH   1  30
HETATM   30  C4  UNL     1      26.088   3.290  49.391  1.00  0.00     0.070 C 
HETATM   31  C3  UNL     1      26.397   2.545  50.425  1.00  0.00    -0.022 C 
BRANCH  31  32
HETATM   32  C2  UNL     1      26.811   2.222  51.793  1.00  0.00     0.023 C 
HETATM   33  C1  UNL     1      26.736   0.727  52.108  1.00  0.00     0.009 C 
ENDBRANCH  31  32
ENDBRANCH   1  30
TORSDOF 7
ENDMDL
MODEL 6
REMARK VINA RESULT:      -7.6      2.449      5.191
REMARK  7 active torsions:
REMARK  status: ('A' for Active; 'I' for Inactive)
REMARK    1  A    between atoms: C2_2  and  C3_3 
REMARK    2  A    between atoms: C4_4  and  C5_5 
REMARK       I    between atoms: C5_5  and  N1_7 
REMARK    3  A    between atoms: C13_17  and  N4_18 
REMARK    4  A    between atoms: C20_27  and  O2_28 
REMARK    5  A    between atoms: O2_28  and  C21_29 
REMARK    6  A    between atoms: C21_29  and  C22_30 
REMARK    7  A    between atoms: C22_30  and  N5_31 
ROOT
HETATM    1  C5  UNL     1      22.183  -0.028  54.067  1.00  0.00     0.249 C 
HETATM    2  O1  UNL     1      22.833  -0.830  54.754  1.00  0.00    -0.268 OA
HETATM    3  N1  UNL     1      22.887   0.807  53.210  1.00  0.00    -0.291 N 
HETATM    4  C6  UNL     1      22.112   1.746  52.442  1.00  0.00     0.098 A 
HETATM    5  C7  UNL     1      22.612   2.610  51.563  1.00  0.00     0.033 A 
HETATM    6  C8  UNL     1      24.044   2.662  51.312  1.00  0.00     0.022 A 
HETATM    7  C9  UNL     1      24.774   1.761  52.052  1.00  0.00     0.095 A 
HETATM    8  N2  UNL     1      26.131   1.693  51.917  1.00  0.00    -0.258 NA
HETATM    9  C10 UNL     1      26.764   2.508  51.058  1.00  0.00     0.142 A 
HETATM   10  C11 UNL     1      26.069   3.438  50.286  1.00  0.00     0.089 A 
HETATM   11  C12 UNL     1      26.722   4.318  49.363  1.00  0.00     0.103 C 
HETATM   12  N3  UNL     1      27.257   5.048  48.612  1.00  0.00    -0.191 NA
HETATM   13  C13 UNL     1      24.698   3.493  50.436  1.00  0.00     0.066 A 
HETATM   14  C20 UNL     1      24.307   0.764  53.068  1.00  0.00     0.284 A 
ENDROOT
BRANCH  13  15
HETATM   15  N4  UNL     1      23.885   4.427  49.694  1.00  0.00    -0.369 N 
HETATM   16  C14 UNL     1      23.223   3.974  48.487  1.00  0.00     0.151 C 
HETATM   17  C15 UNL     1      21.737   4.222  48.500  1.00  0.00     0.162 C 
HETATM   18 CL1  UNL     1      21.189   4.714  46.884  1.00  0.00    -0.116 Cl
HETATM   19  C16 UNL     1      21.351   5.192  49.561  1.00  0.00     0.112 C 
HETATM   20  F1  UNL     1      19.994   5.248  49.798  1.00  0.00    -0.209 F 
HETATM   21  C17 UNL     1      22.124   5.993  50.293  1.00  0.00     0.037 C 
HETATM   22  C18 UNL     1      23.562   5.818  49.923  1.00  0.00     0.106 C 
HETATM   23  C19 UNL     1      23.839   6.729  48.777  1.00  0.00     0.037 C 
ENDBRANCH  13  15
BRANCH  14  24
HETATM   24  O2  UNL     1      24.786  -0.497  52.755  1.00  0.00    -0.359 OA
BRANCH  24  25
HETATM   25  C21 UNL     1      25.836  -0.929  53.549  1.00  0.00     0.200 C 
BRANCH  25  26
HETATM   26  C22 UNL     1      26.792  -1.716  52.673  1.00  0.00     0.292 C 
BRANCH  26  27
HETATM   27  N5  UNL     1      28.108  -1.629  53.282  1.00  0.00     0.080 N 
HETATM   28  H24 UNL     1      28.782  -1.123  52.639  1.00  0.00     0.312 HD
HETATM   29  H25 UNL     1      28.086  -1.102  54.173  1.00  0.00     0.312 HD
ENDBRANCH  26  27
ENDBRANCH  25  26
ENDBRANCH  24  25
ENDBRANCH  14  24
BRANCH   1  30
HETATM   30  C4  UNL     1      20.776  -0.172  54.347  1.00  0.00     0.070 C 
HETATM   31  C3  UNL     1      19.763  -0.265  53.519  1.00  0.00    -0.022 C 
BRANCH  31  32
HETATM   32  C2  UNL     1      19.057  -0.325  52.238  1.00  0.00     0.023 C 
HETATM   33  C1  UNL     1      17.632  -0.870  52.360  1.00  0.00     0.009 C 
ENDBRANCH  31  32
ENDBRANCH   1  30
TORSDOF 7
ENDMDL
MODEL 7
REMARK VINA RESULT:      -7.5      7.207     10.201
REMARK  7 active torsions:
REMARK  status: ('A' for Active; 'I' for Inactive)
REMARK    1  A    between atoms: C2_2  and  C3_3 
REMARK    2  A    between atoms: C4_4  and  C5_5 
REMARK       I    between atoms: C5_5  and  N1_7 
REMARK    3  A    between atoms: C13_17  and  N4_18 
REMARK    4  A    between atoms: C20_27  and  O2_28 
REMARK    5  A    between atoms: O2_28  and  C21_29 
REMARK    6  A    between atoms: C21_29  and  C22_30 
REMARK    7  A    between atoms: C22_30  and  N5_31 
ROOT
HETATM    1  C5  UNL     1      25.947   5.204  49.047  1.00  0.00     0.249 C 
HETATM    2  O1  UNL     1      24.844   5.772  49.025  1.00  0.00    -0.268 OA
HETATM    3  N1  UNL     1      27.020   5.858  48.455  1.00  0.00    -0.291 N 
HETATM    4  C6  UNL     1      28.283   5.167  48.471  1.00  0.00     0.098 A 
HETATM    5  C7  UNL     1      29.420   5.643  47.969  1.00  0.00     0.033 A 
HETATM    6  C8  UNL     1      29.456   6.955  47.341  1.00  0.00     0.022 A 
HETATM    7  C9  UNL     1      28.244   7.604  47.331  1.00  0.00     0.095 A 
HETATM    8  N2  UNL     1      28.128   8.847  46.779  1.00  0.00    -0.258 NA
HETATM    9  C10 UNL     1      29.202   9.446  46.238  1.00  0.00     0.142 A 
HETATM   10  C11 UNL     1      30.452   8.830  46.223  1.00  0.00     0.089 A 
HETATM   11  C12 UNL     1      31.612   9.449  45.654  1.00  0.00     0.103 C 
HETATM   12  N3  UNL     1      32.563   9.952  45.178  1.00  0.00    -0.191 NA
HETATM   13  C13 UNL     1      30.550   7.573  46.786  1.00  0.00     0.066 A 
HETATM   14  C20 UNL     1      26.917   7.149  47.857  1.00  0.00     0.284 A 
ENDROOT
BRANCH  13  15
HETATM   15  N4  UNL     1      31.794   6.842  46.812  1.00  0.00    -0.369 N 
HETATM   16  C14 UNL     1      32.651   6.960  47.975  1.00  0.00     0.151 C 
HETATM   17  C15 UNL     1      33.006   5.629  48.585  1.00  0.00     0.162 C 
HETATM   18 CL1  UNL     1      34.693   5.644  49.138  1.00  0.00    -0.116 Cl
HETATM   19  C16 UNL     1      32.712   4.504  47.656  1.00  0.00     0.112 C 
HETATM   20  F1  UNL     1      32.757   3.261  48.253  1.00  0.00    -0.209 F 
HETATM   21  C17 UNL     1      32.418   4.537  46.356  1.00  0.00     0.037 C 
HETATM   22  C18 UNL     1      32.406   5.946  45.857  1.00  0.00     0.106 C 
HETATM   23  C19 UNL     1      33.803   6.291  45.469  1.00  0.00     0.037 C 
ENDBRANCH  13  15
BRANCH  14  24
HETATM   24  O2  UNL     1      26.387   8.104  48.708  1.00  0.00    -0.359 OA
BRANCH  24  25
HETATM   25  C21 UNL     1      27.036   8.214  49.927  1.00  0.00     0.200 C 
BRANCH  25  26
HETATM   26  C22 UNL     1      27.462   9.660  50.102  1.00  0.00     0.292 C 
BRANCH  26  27
HETATM   27  N5  UNL     1      28.910   9.700  50.002  1.00  0.00     0.080 N 
HETATM   28  H24 UNL     1      29.315   8.723  50.071  1.00  0.00     0.312 HD
HETATM   29  H25 UNL     1      29.223  10.094  49.097  1.00  0.00     0.312 HD
ENDBRANCH  26  27
ENDBRANCH  25  26
ENDBRANCH  24  25
ENDBRANCH  14  24
BRANCH   1  30
HETATM   30  C4  UNL     1      25.831   3.934  49.718  1.00  0.00     0.070 C 
HETATM   31  C3  UNL     1      24.774   3.177  49.899  1.00  0.00    -0.022 C 
BRANCH  31  32
HETATM   32  C2  UNL     1      23.374   2.756  49.817  1.00  0.00     0.023 C 
HETATM   33  C1  UNL     1      22.838   2.723  48.384  1.00  0.00     0.009 C 
ENDBRANCH  31  32
ENDBRANCH   1  30
TORSDOF 7
ENDMDL
MODEL 8
REMARK VINA RESULT:      -7.2      6.867      9.620
REMARK  7 active torsions:
REMARK  status: ('A' for Active; 'I' for Inactive)
REMARK    1  A    between atoms: C2_2  and  C3_3 
REMARK    2  A    between atoms: C4_4  and  C5_5 
REMARK       I    between atoms: C5_5  and  N1_7 
REMARK    3  A    between atoms: C13_17  and  N4_18 
REMARK    4  A    between atoms: C20_27  and  O2_28 
REMARK    5  A    between atoms: O2_28  and  C21_29 
REMARK    6  A    between atoms: C21_29  and  C22_30 
REMARK    7  A    between atoms: C22_30  and  N5_31 
ROOT
HETATM    1  C5  UNL     1      25.615   4.761  49.308  1.00  0.00     0.249 C 
HETATM    2  O1  UNL     1      24.519   5.289  49.548  1.00  0.00    -0.268 OA
HETATM    3  N1  UNL     1      26.671   5.593  48.962  1.00  0.00    -0.291 N 
HETATM    4  C6  UNL     1      27.926   4.953  48.665  1.00  0.00     0.098 A 
HETATM    5  C7  UNL     1      29.047   5.589  48.332  1.00  0.00     0.033 A 
HETATM    6  C8  UNL     1      29.073   7.040  48.243  1.00  0.00     0.022 A 
HETATM    7  C9  UNL     1      27.869   7.640  48.529  1.00  0.00     0.095 A 
HETATM    8  N2  UNL     1      27.746   8.999  48.491  1.00  0.00    -0.258 NA
HETATM    9  C10 UNL     1      28.804   9.763  48.172  1.00  0.00     0.142 A 
HETATM   10  C11 UNL     1      30.045   9.203  47.874  1.00  0.00     0.089 A 
HETATM   11  C12 UNL     1      31.188   9.996  47.532  1.00  0.00     0.103 C 
HETATM   12  N3  UNL     1      32.125  10.645  47.241  1.00  0.00    -0.191 NA
HETATM   13  C13 UNL     1      30.151   7.827  47.917  1.00  0.00     0.066 A 
HETATM   14  C20 UNL     1      26.559   7.014  48.900  1.00  0.00     0.284 A 
ENDROOT
BRANCH  13  15
HETATM   15  N4  UNL     1      31.387   7.146  47.615  1.00  0.00    -0.369 N 
HETATM   16  C14 UNL     1      31.724   6.891  46.229  1.00  0.00     0.151 C 
HETATM   17  C15 UNL     1      33.081   7.422  45.844  1.00  0.00     0.162 C 
HETATM   18 CL1  UNL     1      33.888   6.287  44.742  1.00  0.00    -0.116 Cl
HETATM   19  C16 UNL     1      33.903   7.747  47.042  1.00  0.00     0.112 C 
HETATM   20  F1  UNL     1      35.034   8.484  46.758  1.00  0.00    -0.209 F 
HETATM   21  C17 UNL     1      33.696   7.428  48.319  1.00  0.00     0.037 C 
HETATM   22  C18 UNL     1      32.438   6.634  48.465  1.00  0.00     0.106 C 
HETATM   23  C19 UNL     1      32.789   5.202  48.247  1.00  0.00     0.037 C 
ENDBRANCH  13  15
BRANCH  14  24
HETATM   24  O2  UNL     1      26.075   7.576  50.069  1.00  0.00    -0.359 OA
BRANCH  24  25
HETATM   25  C21 UNL     1      25.139   8.581  49.882  1.00  0.00     0.200 C 
BRANCH  25  26
HETATM   26  C22 UNL     1      23.842   8.139  50.531  1.00  0.00     0.292 C 
BRANCH  26  27
HETATM   27  N5  UNL     1      24.189   7.359  51.706  1.00  0.00     0.080 N 
HETATM   28  H24 UNL     1      25.216   7.097  51.688  1.00  0.00     0.312 HD
HETATM   29  H25 UNL     1      24.027   7.888  52.582  1.00  0.00     0.312 HD
ENDBRANCH  26  27
ENDBRANCH  25  26
ENDBRANCH  24  25
ENDBRANCH  14  24
BRANCH   1  30
HETATM   30  C4  UNL     1      25.511   3.330  49.455  1.00  0.00     0.070 C 
HETATM   31  C3  UNL     1      25.056   2.624  50.463  1.00  0.00    -0.022 C 
BRANCH  31  32
HETATM   32  C2  UNL     1      24.478   2.353  51.781  1.00  0.00     0.023 C 
HETATM   33  C1  UNL     1      23.232   1.467  51.721  1.00  0.00     0.009 C 
ENDBRANCH  31  32
ENDBRANCH   1  30
TORSDOF 7
ENDMDL
MODEL 9
REMARK VINA RESULT:      -7.2      1.883      2.468
REMARK  7 active torsions:
REMARK  status: ('A' for Active; 'I' for Inactive)
REMARK    1  A    between atoms: C2_2  and  C3_3 
REMARK    2  A    between atoms: C4_4  and  C5_5 
REMARK       I    between atoms: C5_5  and  N1_7 
REMARK    3  A    between atoms: C13_17  and  N4_18 
REMARK    4  A    between atoms: C20_27  and  O2_28 
REMARK    5  A    between atoms: O2_28  and  C21_29 
REMARK    6  A    between atoms: C21_29  and  C22_30 
REMARK    7  A    between atoms: C22_30  and  N5_31 
ROOT
HETATM    1  C5  UNL     1      24.917   0.443  53.032  1.00  0.00     0.249 C 
HETATM    2  O1  UNL     1      24.895  -0.388  53.953  1.00  0.00    -0.268 OA
HETATM    3  N1  UNL     1      23.719   0.726  52.390  1.00  0.00    -0.291 N 
HETATM    4  C6  UNL     1      23.776   1.674  51.308  1.00  0.00     0.098 A 
HETATM    5  C7  UNL     1      22.731   2.078  50.591  1.00  0.00     0.033 A 
HETATM    6  C8  UNL     1      21.401   1.559  50.869  1.00  0.00     0.022 A 
HETATM    7  C9  UNL     1      21.359   0.653  51.904  1.00  0.00     0.095 A 
HETATM    8  N2  UNL     1      20.176   0.087  52.281  1.00  0.00    -0.258 NA
HETATM    9  C10 UNL     1      19.040   0.411  51.642  1.00  0.00     0.142 A 
HETATM   10  C11 UNL     1      19.030   1.322  50.587  1.00  0.00     0.089 A 
HETATM   11  C12 UNL     1      17.832   1.684  49.890  1.00  0.00     0.103 C 
HETATM   12  N3  UNL     1      16.850   1.974  49.310  1.00  0.00    -0.191 NA
HETATM   13  C13 UNL     1      20.236   1.885  50.219  1.00  0.00     0.066 A 
HETATM   14  C20 UNL     1      22.475   0.131  52.757  1.00  0.00     0.284 A 
ENDROOT
BRANCH  13  15
HETATM   15  N4  UNL     1      20.339   2.830  49.134  1.00  0.00    -0.369 N 
HETATM   16  C14 UNL     1      20.158   4.241  49.414  1.00  0.00     0.151 C 
HETATM   17  C15 UNL     1      21.312   5.089  48.944  1.00  0.00     0.162 C 
HETATM   18 CL1  UNL     1      20.709   6.624  48.287  1.00  0.00    -0.116 Cl
HETATM   19  C16 UNL     1      22.180   4.351  47.986  1.00  0.00     0.112 C 
HETATM   20  F1  UNL     1      23.387   4.971  47.737  1.00  0.00    -0.209 F 
HETATM   21  C17 UNL     1      21.952   3.201  47.353  1.00  0.00     0.037 C 
HETATM   22  C18 UNL     1      20.611   2.654  47.725  1.00  0.00     0.106 C 
HETATM   23  C19 UNL     1      19.612   3.268  46.805  1.00  0.00     0.037 C 
ENDBRANCH  13  15
BRANCH  14  24
HETATM   24  O2  UNL     1      22.168   0.292  54.097  1.00  0.00    -0.359 OA
BRANCH  24  25
HETATM   25  C21 UNL     1      21.374  -0.710  54.631  1.00  0.00     0.200 C 
BRANCH  25  26
HETATM   26  C22 UNL     1      22.234  -1.949  54.797  1.00  0.00     0.292 C 
BRANCH  26  27
HETATM   27  N5  UNL     1      23.225  -1.656  55.817  1.00  0.00     0.080 N 
HETATM   28  H24 UNL     1      24.203  -1.713  55.413  1.00  0.00     0.312 HD
HETATM   29  H25 UNL     1      23.111  -0.701  56.201  1.00  0.00     0.312 HD
ENDBRANCH  26  27
ENDBRANCH  25  26
ENDBRANCH  24  25
ENDBRANCH  14  24
BRANCH   1  30
HETATM   30  C4  UNL     1      26.260   0.933  52.848  1.00  0.00     0.070 C 
HETATM   31  C3  UNL     1      27.404   0.297  52.945  1.00  0.00    -0.022 C 
BRANCH  31  32
HETATM   32  C2  UNL     1      28.321  -0.822  53.168  1.00  0.00     0.023 C 
HETATM   33  C1  UNL     1      29.680  -0.386  53.721  1.00  0.00     0.009 C 
ENDBRANCH  31  32
ENDBRANCH   1  30
TORSDOF 7
ENDMDL
