MODEL 1
REMARK VINA RESULT:      -8.2      0.000      0.000
REMARK  4 active torsions:
REMARK  status: ('A' for Active; 'I' for Inactive)
REMARK    1  A    between atoms: C17_18  and  C18_19 
REMARK    2  A    between atoms: C18_19  and  C19_20 
REMARK    3  A    between atoms: C19_20  and  C20_21 
REMARK    4  A    between atoms: C20_21  and  O2_23 
ROOT
HETATM    1  C1  UNL     1      21.522  -1.712  53.856  1.00  0.00     0.011 C 
HETATM    2  C2  UNL     1      22.154  -0.430  53.279  1.00  0.00    -0.042 C 
HETATM    3  C3  UNL     1      23.234   0.394  53.176  1.00  0.00     0.054 C 
HETATM    4  C4  UNL     1      24.587   0.227  53.824  1.00  0.00    -0.008 C 
HETATM    5  C5  UNL     1      25.349   1.281  53.437  1.00  0.00     0.012 C 
HETATM    6  C6  UNL     1      25.057   2.457  52.547  1.00  0.00     0.100 C 
HETATM    7  C7  UNL     1      26.272   2.632  51.728  1.00  0.00     0.013 C 
HETATM    8  C8  UNL     1      26.615   2.870  50.455  1.00  0.00    -0.001 C 
HETATM    9  C9  UNL     1      25.916   3.085  49.202  1.00  0.00     0.033 C 
HETATM   10  C10 UNL     1      24.414   3.189  49.297  1.00  0.00     0.044 C 
HETATM   11  C11 UNL     1      23.998   4.357  50.117  1.00  0.00    -0.031 A 
HETATM   12  C12 UNL     1      24.882   5.374  50.413  1.00  0.00     0.009 A 
HETATM   13  C13 UNL     1      24.488   6.458  51.166  1.00  0.00     0.001 A 
HETATM   14  C14 UNL     1      23.213   6.607  51.670  1.00  0.00     0.002 A 
HETATM   15  C15 UNL     1      22.366   5.551  51.339  1.00  0.00     0.030 A 
HETATM   16  C16 UNL     1      22.707   4.443  50.591  1.00  0.00     0.038 A 
HETATM   17  N1  UNL     1      21.771   3.413  50.318  1.00  0.00    -0.359 N 
HETATM   18  C17 UNL     1      21.418   2.109  50.756  1.00  0.00     0.006 C 
HETATM   19  C21 UNL     1      21.335   1.416  51.875  1.00  0.00    -0.002 C 
HETATM   20  C22 UNL     1      21.014   0.140  52.517  1.00  0.00     0.034 C 
HETATM   21  N2  UNL     1      27.307   2.501  52.726  1.00  0.00    -0.327 N 
HETATM   22  C23 UNL     1      26.734   1.680  53.755  1.00  0.00     0.252 C 
HETATM   23  O3  UNL     1      27.356   1.337  54.824  1.00  0.00    -0.268 OA
HETATM   24  H17 UNL     1      21.295   3.916  49.590  1.00  0.00     0.166 HD
HETATM   25  H26 UNL     1      28.298   2.871  52.801  1.00  0.00     0.169 HD
ENDROOT
BRANCH  18  26
HETATM   26  C18 UNL     1      21.068   1.255  49.626  1.00  0.00     0.067 C 
BRANCH  26  27
HETATM   27  C19 UNL     1      21.102   1.866  48.266  1.00  0.00     0.116 C 
BRANCH  27  28
HETATM   28  C20 UNL     1      19.924   2.537  47.766  1.00  0.00     0.139 C 
HETATM   29  O1  UNL     1      19.782   3.788  47.999  1.00  0.00    -0.650 OA
BRANCH  28  30
HETATM   30  O2  UNL     1      18.719   2.855  47.163  1.00  0.00    -0.776 OA
HETATM   31  H22 UNL     1      17.867   2.858  47.706  1.00  0.00     0.167 HD
ENDBRANCH  28  30
ENDBRANCH  27  28
ENDBRANCH  26  27
ENDBRANCH  18  26
TORSDOF 4
ENDMDL
MODEL 2
REMARK VINA RESULT:      -8.1      2.516      6.207
REMARK  4 active torsions:
REMARK  status: ('A' for Active; 'I' for Inactive)
REMARK    1  A    between atoms: C17_18  and  C18_19 
REMARK    2  A    between atoms: C18_19  and  C19_20 
REMARK    3  A    between atoms: C19_20  and  C20_21 
REMARK    4  A    between atoms: C20_21  and  O2_23 
ROOT
HETATM    1  C1  UNL     1      22.700  -1.691  55.253  1.00  0.00     0.011 C 
HETATM    2  C2  UNL     1      22.380  -0.741  54.083  1.00  0.00    -0.042 C 
HETATM    3  C3  UNL     1      21.454  -0.176  53.257  1.00  0.00     0.054 C 
HETATM    4  C4  UNL     1      19.962  -0.402  53.255  1.00  0.00    -0.008 C 
HETATM    5  C5  UNL     1      19.442   0.371  52.269  1.00  0.00     0.012 C 
HETATM    6  C6  UNL     1      20.084   1.317  51.291  1.00  0.00     0.100 C 
HETATM    7  C7  UNL     1      19.182   2.483  51.234  1.00  0.00     0.013 C 
HETATM    8  C8  UNL     1      19.248   3.821  51.228  1.00  0.00    -0.001 C 
HETATM    9  C9  UNL     1      20.300   4.821  51.276  1.00  0.00     0.033 C 
HETATM   10  C10 UNL     1      21.711   4.293  51.206  1.00  0.00     0.044 C 
HETATM   11  C11 UNL     1      21.970   3.597  49.918  1.00  0.00    -0.031 A 
HETATM   12  C12 UNL     1      21.131   3.760  48.835  1.00  0.00     0.009 A 
HETATM   13  C13 UNL     1      21.381   3.118  47.642  1.00  0.00     0.001 A 
HETATM   14  C14 UNL     1      22.461   2.284  47.443  1.00  0.00     0.002 A 
HETATM   15  C15 UNL     1      23.272   2.158  48.570  1.00  0.00     0.030 A 
HETATM   16  C16 UNL     1      23.068   2.774  49.788  1.00  0.00     0.038 A 
HETATM   17  N1  UNL     1      23.949   2.571  50.881  1.00  0.00    -0.359 N 
HETATM   18  C17 UNL     1      24.042   1.832  52.090  1.00  0.00     0.006 C 
HETATM   19  C21 UNL     1      23.733   0.640  52.562  1.00  0.00    -0.002 C 
HETATM   20  C22 UNL     1      23.739  -0.276  53.704  1.00  0.00     0.034 C 
HETATM   21  N2  UNL     1      17.893   1.839  51.141  1.00  0.00    -0.327 N 
HETATM   22  C23 UNL     1      18.065   0.561  51.771  1.00  0.00     0.252 C 
HETATM   23  O3  UNL     1      17.131  -0.310  51.887  1.00  0.00    -0.268 OA
HETATM   24  H17 UNL     1      24.659   3.195  50.539  1.00  0.00     0.166 HD
HETATM   25  H26 UNL     1      16.960   2.133  50.730  1.00  0.00     0.169 HD
ENDROOT
BRANCH  18  26
HETATM   26  C18 UNL     1      24.631   2.640  53.152  1.00  0.00     0.067 C 
BRANCH  26  27
HETATM   27  C19 UNL     1      25.851   2.108  53.824  1.00  0.00     0.116 C 
BRANCH  27  28
HETATM   28  C20 UNL     1      27.152   2.468  53.310  1.00  0.00     0.139 C 
HETATM   29  O1  UNL     1      28.121   2.618  54.134  1.00  0.00    -0.650 OA
BRANCH  28  30
HETATM   30  O2  UNL     1      28.228   2.803  52.505  1.00  0.00    -0.776 OA
HETATM   31  H22 UNL     1      28.703   3.685  52.637  1.00  0.00     0.167 HD
ENDBRANCH  28  30
ENDBRANCH  27  28
ENDBRANCH  26  27
ENDBRANCH  18  26
TORSDOF 4
ENDMDL
MODEL 3
REMARK VINA RESULT:      -8.0      2.895      5.874
REMARK  4 active torsions:
REMARK  status: ('A' for Active; 'I' for Inactive)
REMARK    1  A    between atoms: C17_18  and  C18_19 
REMARK    2  A    between atoms: C18_19  and  C19_20 
REMARK    3  A    between atoms: C19_20  and  C20_21 
REMARK    4  A    between atoms: C20_21  and  O2_23 
ROOT
HETATM    1  C1  UNL     1      23.428  -1.312  55.338  1.00  0.00     0.011 C 
HETATM    2  C2  UNL     1      22.792  -0.531  54.172  1.00  0.00    -0.042 C 
HETATM    3  C3  UNL     1      21.692  -0.244  53.421  1.00  0.00     0.054 C 
HETATM    4  C4  UNL     1      20.300  -0.811  53.573  1.00  0.00    -0.008 C 
HETATM    5  C5  UNL     1      19.529  -0.237  52.615  1.00  0.00     0.012 C 
HETATM    6  C6  UNL     1      19.842   0.775  51.547  1.00  0.00     0.100 C 
HETATM    7  C7  UNL     1      18.688   1.695  51.536  1.00  0.00     0.013 C 
HETATM    8  C8  UNL     1      18.435   3.008  51.477  1.00  0.00    -0.001 C 
HETATM    9  C9  UNL     1      19.221   4.226  51.387  1.00  0.00     0.033 C 
HETATM   10  C10 UNL     1      20.705   4.037  51.198  1.00  0.00     0.044 C 
HETATM   11  C11 UNL     1      21.009   3.348  49.917  1.00  0.00    -0.031 A 
HETATM   12  C12 UNL     1      20.065   3.250  48.916  1.00  0.00     0.009 A 
HETATM   13  C13 UNL     1      20.356   2.616  47.727  1.00  0.00     0.001 A 
HETATM   14  C14 UNL     1      21.581   2.045  47.453  1.00  0.00     0.002 A 
HETATM   15  C15 UNL     1      22.493   2.176  48.500  1.00  0.00     0.030 A 
HETATM   16  C16 UNL     1      22.255   2.797  49.709  1.00  0.00     0.038 A 
HETATM   17  N1  UNL     1      23.251   2.867  50.717  1.00  0.00    -0.359 N 
HETATM   18  C17 UNL     1      23.620   2.240  51.937  1.00  0.00     0.006 C 
HETATM   19  C21 UNL     1      23.643   1.037  52.478  1.00  0.00    -0.002 C 
HETATM   20  C22 UNL     1      23.965   0.215  53.646  1.00  0.00     0.034 C 
HETATM   21  N2  UNL     1      17.585   0.765  51.592  1.00  0.00    -0.327 N 
HETATM   22  C23 UNL     1      18.109  -0.400  52.247  1.00  0.00     0.252 C 
HETATM   23  O3  UNL     1      17.420  -1.457  52.484  1.00  0.00    -0.268 OA
HETATM   24  H17 UNL     1      23.760   3.617  50.286  1.00  0.00     0.166 HD
HETATM   25  H26 UNL     1      16.577   0.809  51.264  1.00  0.00     0.169 HD
ENDROOT
BRANCH  18  26
HETATM   26  C18 UNL     1      24.091   3.222  52.908  1.00  0.00     0.067 C 
BRANCH  26  27
HETATM   27  C19 UNL     1      23.353   4.516  52.989  1.00  0.00     0.116 C 
BRANCH  27  28
HETATM   28  C20 UNL     1      23.911   5.685  52.349  1.00  0.00     0.139 C 
HETATM   29  O1  UNL     1      23.700   5.862  51.099  1.00  0.00    -0.650 OA
BRANCH  28  30
HETATM   30  O2  UNL     1      24.568   6.869  52.064  1.00  0.00    -0.776 OA
HETATM   31  H22 UNL     1      24.117   7.755  52.249  1.00  0.00     0.167 HD
ENDBRANCH  28  30
ENDBRANCH  27  28
ENDBRANCH  26  27
ENDBRANCH  18  26
TORSDOF 4
ENDMDL
MODEL 4
REMARK VINA RESULT:      -8.0      4.982      8.229
REMARK  4 active torsions:
REMARK  status: ('A' for Active; 'I' for Inactive)
REMARK    1  A    between atoms: C17_18  and  C18_19 
REMARK    2  A    between atoms: C18_19  and  C19_20 
REMARK    3  A    between atoms: C19_20  and  C20_21 
REMARK    4  A    between atoms: C20_21  and  O2_23 
ROOT
HETATM    1  C1  UNL     1      30.840   7.077  46.854  1.00  0.00     0.011 C 
HETATM    2  C2  UNL     1      29.328   7.031  47.149  1.00  0.00    -0.042 C 
HETATM    3  C3  UNL     1      28.279   6.427  47.776  1.00  0.00     0.054 C 
HETATM    4  C4  UNL     1      28.315   5.208  48.666  1.00  0.00    -0.008 C 
HETATM    5  C5  UNL     1      27.042   4.971  49.069  1.00  0.00     0.012 C 
HETATM    6  C6  UNL     1      25.748   5.682  48.783  1.00  0.00     0.100 C 
HETATM    7  C7  UNL     1      25.030   5.714  50.071  1.00  0.00     0.013 C 
HETATM    8  C8  UNL     1      24.319   6.568  50.819  1.00  0.00    -0.001 C 
HETATM    9  C9  UNL     1      23.887   7.949  50.711  1.00  0.00     0.033 C 
HETATM   10  C10 UNL     1      24.185   8.630  49.399  1.00  0.00     0.044 C 
HETATM   11  C11 UNL     1      23.481   7.970  48.269  1.00  0.00    -0.031 A 
HETATM   12  C12 UNL     1      22.432   7.101  48.489  1.00  0.00     0.009 A 
HETATM   13  C13 UNL     1      21.778   6.499  47.436  1.00  0.00     0.001 A 
HETATM   14  C14 UNL     1      22.112   6.711  46.116  1.00  0.00     0.002 A 
HETATM   15  C15 UNL     1      23.177   7.597  45.955  1.00  0.00     0.030 A 
HETATM   16  C16 UNL     1      23.867   8.226  46.971  1.00  0.00     0.038 A 
HETATM   17  N1  UNL     1      24.948   9.105  46.702  1.00  0.00    -0.359 N 
HETATM   18  C17 UNL     1      26.368   9.127  46.704  1.00  0.00     0.006 C 
HETATM   19  C21 UNL     1      27.383   8.340  46.405  1.00  0.00    -0.002 C 
HETATM   20  C22 UNL     1      28.836   8.171  46.334  1.00  0.00     0.034 C 
HETATM   21  N2  UNL     1      25.223   4.360  50.535  1.00  0.00    -0.327 N 
HETATM   22  C23 UNL     1      26.444   3.922  49.920  1.00  0.00     0.252 C 
HETATM   23  O3  UNL     1      26.952   2.757  50.093  1.00  0.00    -0.268 OA
HETATM   24  H17 UNL     1      24.367   9.882  46.442  1.00  0.00     0.166 HD
HETATM   25  H26 UNL     1      24.668   3.725  51.178  1.00  0.00     0.169 HD
ENDROOT
BRANCH  18  26
HETATM   26  C18 UNL     1      26.870  10.395  47.224  1.00  0.00     0.067 C 
BRANCH  26  27
HETATM   27  C19 UNL     1      26.816  10.601  48.700  1.00  0.00     0.116 C 
BRANCH  27  28
HETATM   28  C20 UNL     1      27.769   9.915  49.542  1.00  0.00     0.139 C 
HETATM   29  O1  UNL     1      27.378   9.464  50.675  1.00  0.00    -0.650 OA
BRANCH  28  30
HETATM   30  O2  UNL     1      28.902   9.329  50.078  1.00  0.00    -0.776 OA
HETATM   31  H22 UNL     1      29.320   8.527  49.625  1.00  0.00     0.167 HD
ENDBRANCH  28  30
ENDBRANCH  27  28
ENDBRANCH  26  27
ENDBRANCH  18  26
TORSDOF 4
ENDMDL
MODEL 5
REMARK VINA RESULT:      -7.7      8.573     12.004
REMARK  4 active torsions:
REMARK  status: ('A' for Active; 'I' for Inactive)
REMARK    1  A    between atoms: C17_18  and  C18_19 
REMARK    2  A    between atoms: C18_19  and  C19_20 
REMARK    3  A    between atoms: C19_20  and  C20_21 
REMARK    4  A    between atoms: C20_21  and  O2_23 
ROOT
HETATM    1  C1  UNL     1      34.114   3.646  46.048  1.00  0.00     0.011 C 
HETATM    2  C2  UNL     1      33.213   4.890  46.175  1.00  0.00    -0.042 C 
HETATM    3  C3  UNL     1      32.071   5.461  46.652  1.00  0.00     0.054 C 
HETATM    4  C4  UNL     1      30.989   4.806  47.477  1.00  0.00    -0.008 C 
HETATM    5  C5  UNL     1      30.050   5.754  47.727  1.00  0.00     0.012 C 
HETATM    6  C6  UNL     1      29.959   7.204  47.339  1.00  0.00     0.100 C 
HETATM    7  C7  UNL     1      29.457   7.895  48.543  1.00  0.00     0.013 C 
HETATM    8  C8  UNL     1      29.696   9.005  49.252  1.00  0.00    -0.001 C 
HETATM    9  C9  UNL     1      30.615  10.126  49.170  1.00  0.00     0.033 C 
HETATM   10  C10 UNL     1      31.479  10.178  47.934  1.00  0.00     0.044 C 
HETATM   11  C11 UNL     1      30.661  10.324  46.702  1.00  0.00    -0.031 A 
HETATM   12  C12 UNL     1      29.341  10.723  46.762  1.00  0.00     0.009 A 
HETATM   13  C13 UNL     1      28.591  10.864  45.615  1.00  0.00     0.001 A 
HETATM   14  C14 UNL     1      29.087  10.625  44.351  1.00  0.00     0.002 A 
HETATM   15  C15 UNL     1      30.423  10.227  44.353  1.00  0.00     0.030 A 
HETATM   16  C16 UNL     1      31.220  10.068  45.468  1.00  0.00     0.038 A 
HETATM   17  N1  UNL     1      32.570   9.646  45.364  1.00  0.00    -0.359 N 
HETATM   18  C17 UNL     1      33.369   8.482  45.521  1.00  0.00     0.006 C 
HETATM   19  C21 UNL     1      33.306   7.185  45.293  1.00  0.00    -0.002 C 
HETATM   20  C22 UNL     1      33.971   5.883  45.371  1.00  0.00     0.034 C 
HETATM   21  N2  UNL     1      28.393   7.010  48.954  1.00  0.00    -0.327 N 
HETATM   22  C23 UNL     1      28.765   5.717  48.453  1.00  0.00     0.252 C 
HETATM   23  O3  UNL     1      28.061   4.657  48.619  1.00  0.00    -0.268 OA
HETATM   24  H17 UNL     1      32.921  10.544  45.083  1.00  0.00     0.166 HD
HETATM   25  H26 UNL     1      27.495   7.154  49.500  1.00  0.00     0.169 HD
ENDROOT
BRANCH  18  26
HETATM   26  C18 UNL     1      34.642   8.805  46.157  1.00  0.00     0.067 C 
BRANCH  26  27
HETATM   27  C19 UNL     1      34.679   8.826  47.648  1.00  0.00     0.116 C 
BRANCH  27  28
HETATM   28  C20 UNL     1      35.470   7.840  48.347  1.00  0.00     0.139 C 
HETATM   29  O1  UNL     1      34.918   6.735  48.687  1.00  0.00    -0.650 OA
BRANCH  28  30
HETATM   30  O2  UNL     1      36.483   7.141  48.981  1.00  0.00    -0.776 OA
HETATM   31  H22 UNL     1      36.302   6.221  49.360  1.00  0.00     0.167 HD
ENDBRANCH  28  30
ENDBRANCH  27  28
ENDBRANCH  26  27
ENDBRANCH  18  26
TORSDOF 4
ENDMDL
MODEL 6
REMARK VINA RESULT:      -7.6      2.991      7.150
REMARK  4 active torsions:
REMARK  status: ('A' for Active; 'I' for Inactive)
REMARK    1  A    between atoms: C17_18  and  C18_19 
REMARK    2  A    between atoms: C18_19  and  C19_20 
REMARK    3  A    between atoms: C19_20  and  C20_21 
REMARK    4  A    between atoms: C20_21  and  O2_23 
ROOT
HETATM    1  C1  UNL     1      21.158   9.607  49.224  1.00  0.00     0.011 C 
HETATM    2  C2  UNL     1      21.406   8.119  49.538  1.00  0.00    -0.042 C 
HETATM    3  C3  UNL     1      20.903   6.865  49.724  1.00  0.00     0.054 C 
HETATM    4  C4  UNL     1      19.459   6.431  49.651  1.00  0.00    -0.008 C 
HETATM    5  C5  UNL     1      19.430   5.098  49.897  1.00  0.00     0.012 C 
HETATM    6  C6  UNL     1      20.522   4.108  50.197  1.00  0.00     0.100 C 
HETATM    7  C7  UNL     1      20.175   2.902  49.421  1.00  0.00     0.013 C 
HETATM    8  C8  UNL     1      20.766   1.991  48.638  1.00  0.00    -0.001 C 
HETATM    9  C9  UNL     1      22.110   1.737  48.152  1.00  0.00     0.033 C 
HETATM   10  C10 UNL     1      23.191   2.622  48.721  1.00  0.00     0.044 C 
HETATM   11  C11 UNL     1      23.327   2.443  50.190  1.00  0.00    -0.031 A 
HETATM   12  C12 UNL     1      22.779   1.351  50.831  1.00  0.00     0.009 A 
HETATM   13  C13 UNL     1      22.916   1.188  52.192  1.00  0.00     0.001 A 
HETATM   14  C14 UNL     1      23.592   2.078  52.999  1.00  0.00     0.002 A 
HETATM   15  C15 UNL     1      24.123   3.160  52.296  1.00  0.00     0.030 A 
HETATM   16  C16 UNL     1      24.016   3.374  50.937  1.00  0.00     0.038 A 
HETATM   17  N1  UNL     1      24.584   4.517  50.318  1.00  0.00    -0.359 N 
HETATM   18  C17 UNL     1      24.209   5.791  49.815  1.00  0.00     0.006 C 
HETATM   19  C21 UNL     1      23.391   6.782  50.108  1.00  0.00    -0.002 C 
HETATM   20  C22 UNL     1      22.876   8.106  49.752  1.00  0.00     0.034 C 
HETATM   21  N2  UNL     1      18.762   2.786  49.697  1.00  0.00    -0.327 N 
HETATM   22  C23 UNL     1      18.324   4.123  49.984  1.00  0.00     0.252 C 
HETATM   23  O3  UNL     1      17.115   4.430  50.280  1.00  0.00    -0.268 OA
HETATM   24  H17 UNL     1      25.523   4.158  50.316  1.00  0.00     0.166 HD
HETATM   25  H26 UNL     1      18.088   1.967  49.716  1.00  0.00     0.169 HD
ENDROOT
BRANCH  18  26
HETATM   26  C18 UNL     1      24.918   6.093  48.576  1.00  0.00     0.067 C 
BRANCH  26  27
HETATM   27  C19 UNL     1      26.303   6.636  48.691  1.00  0.00     0.116 C 
BRANCH  27  28
HETATM   28  C20 UNL     1      27.411   5.716  48.813  1.00  0.00     0.139 C 
HETATM   29  O1  UNL     1      27.180   4.459  48.731  1.00  0.00    -0.650 OA
BRANCH  28  30
HETATM   30  O2  UNL     1      28.658   5.137  48.967  1.00  0.00    -0.776 OA
HETATM   31  H22 UNL     1      29.215   5.344  49.785  1.00  0.00     0.167 HD
ENDBRANCH  28  30
ENDBRANCH  27  28
ENDBRANCH  26  27
ENDBRANCH  18  26
TORSDOF 4
ENDMDL
MODEL 7
REMARK VINA RESULT:      -7.4     10.506     13.119
REMARK  4 active torsions:
REMARK  status: ('A' for Active; 'I' for Inactive)
REMARK    1  A    between atoms: C17_18  and  C18_19 
REMARK    2  A    between atoms: C18_19  and  C19_20 
REMARK    3  A    between atoms: C19_20  and  C20_21 
REMARK    4  A    between atoms: C20_21  and  O2_23 
ROOT
HETATM    1  C1  UNL     1      33.740   4.040  41.688  1.00  0.00     0.011 C 
HETATM    2  C2  UNL     1      33.512   4.813  43.001  1.00  0.00    -0.042 C 
HETATM    3  C3  UNL     1      33.655   4.883  44.355  1.00  0.00     0.054 C 
HETATM    4  C4  UNL     1      34.303   3.868  45.266  1.00  0.00    -0.008 C 
HETATM    5  C5  UNL     1      34.223   4.358  46.529  1.00  0.00     0.012 C 
HETATM    6  C6  UNL     1      33.645   5.633  47.077  1.00  0.00     0.100 C 
HETATM    7  C7  UNL     1      34.615   6.094  48.089  1.00  0.00     0.013 C 
HETATM    8  C8  UNL     1      35.213   7.225  48.484  1.00  0.00    -0.001 C 
HETATM    9  C9  UNL     1      35.190   8.620  48.083  1.00  0.00     0.033 C 
HETATM   10  C10 UNL     1      34.174   8.984  47.030  1.00  0.00     0.044 C 
HETATM   11  C11 UNL     1      32.786   8.750  47.507  1.00  0.00    -0.031 A 
HETATM   12  C12 UNL     1      32.509   8.578  48.848  1.00  0.00     0.009 A 
HETATM   13  C13 UNL     1      31.219   8.369  49.283  1.00  0.00     0.001 A 
HETATM   14  C14 UNL     1      30.132   8.318  48.436  1.00  0.00     0.002 A 
HETATM   15  C15 UNL     1      30.472   8.498  47.096  1.00  0.00     0.030 A 
HETATM   16  C16 UNL     1      31.744   8.708  46.605  1.00  0.00     0.038 A 
HETATM   17  N1  UNL     1      31.988   8.870  45.216  1.00  0.00    -0.359 N 
HETATM   18  C17 UNL     1      32.459   8.138  44.095  1.00  0.00     0.006 C 
HETATM   19  C21 UNL     1      32.389   6.921  43.591  1.00  0.00    -0.002 C 
HETATM   20  C22 UNL     1      32.772   6.005  42.514  1.00  0.00     0.034 C 
HETATM   21  N2  UNL     1      34.895   4.864  48.792  1.00  0.00    -0.327 N 
HETATM   22  C23 UNL     1      34.654   3.821  47.836  1.00  0.00     0.252 C 
HETATM   23  O3  UNL     1      34.796   2.572  48.090  1.00  0.00    -0.268 OA
HETATM   24  H17 UNL     1      31.679   9.825  45.184  1.00  0.00     0.166 HD
HETATM   25  H26 UNL     1      35.212   4.646  49.781  1.00  0.00     0.169 HD
ENDROOT
BRANCH  18  26
HETATM   26  C18 UNL     1      33.309   8.968  43.248  1.00  0.00     0.067 C 
BRANCH  26  27
HETATM   27  C19 UNL     1      34.748   8.591  43.140  1.00  0.00     0.116 C 
BRANCH  27  28
HETATM   28  C20 UNL     1      35.726   9.316  43.918  1.00  0.00     0.139 C 
HETATM   29  O1  UNL     1      35.595  10.583  44.047  1.00  0.00    -0.650 OA
BRANCH  28  30
HETATM   30  O2  UNL     1      36.804   9.686  44.704  1.00  0.00    -0.776 OA
HETATM   31  H22 UNL     1      36.831  10.605  45.125  1.00  0.00     0.167 HD
ENDBRANCH  28  30
ENDBRANCH  27  28
ENDBRANCH  26  27
ENDBRANCH  18  26
TORSDOF 4
ENDMDL
MODEL 8
REMARK VINA RESULT:      -7.3      2.719      6.241
REMARK  4 active torsions:
REMARK  status: ('A' for Active; 'I' for Inactive)
REMARK    1  A    between atoms: C17_18  and  C18_19 
REMARK    2  A    between atoms: C18_19  and  C19_20 
REMARK    3  A    between atoms: C19_20  and  C20_21 
REMARK    4  A    between atoms: C20_21  and  O2_23 
ROOT
HETATM    1  C1  UNL     1      19.558  -0.666  53.367  1.00  0.00     0.011 C 
HETATM    2  C2  UNL     1      19.881   0.405  52.307  1.00  0.00    -0.042 C 
HETATM    3  C3  UNL     1      19.471   1.467  51.558  1.00  0.00     0.054 C 
HETATM    4  C4  UNL     1      18.109   2.119  51.551  1.00  0.00    -0.008 C 
HETATM    5  C5  UNL     1      18.159   3.139  50.658  1.00  0.00     0.012 C 
HETATM    6  C6  UNL     1      19.266   3.649  49.777  1.00  0.00     0.100 C 
HETATM    7  C7  UNL     1      19.175   5.120  49.854  1.00  0.00     0.013 C 
HETATM    8  C8  UNL     1      19.978   6.183  49.989  1.00  0.00    -0.001 C 
HETATM    9  C9  UNL     1      21.405   6.411  50.128  1.00  0.00     0.033 C 
HETATM   10  C10 UNL     1      22.281   5.191  49.984  1.00  0.00     0.044 C 
HETATM   11  C11 UNL     1      22.168   4.595  48.627  1.00  0.00    -0.031 A 
HETATM   12  C12 UNL     1      21.618   5.302  47.578  1.00  0.00     0.009 A 
HETATM   13  C13 UNL     1      21.523   4.746  46.321  1.00  0.00     0.001 A 
HETATM   14  C14 UNL     1      21.960   3.473  46.021  1.00  0.00     0.002 A 
HETATM   15  C15 UNL     1      22.506   2.808  47.118  1.00  0.00     0.030 A 
HETATM   16  C16 UNL     1      22.624   3.315  48.396  1.00  0.00     0.038 A 
HETATM   17  N1  UNL     1      23.187   2.550  49.451  1.00  0.00    -0.359 N 
HETATM   18  C17 UNL     1      22.792   1.776  50.574  1.00  0.00     0.006 C 
HETATM   19  C21 UNL     1      21.846   0.925  50.922  1.00  0.00    -0.002 C 
HETATM   20  C22 UNL     1      21.284   0.061  51.961  1.00  0.00     0.034 C 
HETATM   21  N2  UNL     1      17.752   5.323  49.711  1.00  0.00    -0.327 N 
HETATM   22  C23 UNL     1      17.150   4.116  50.201  1.00  0.00     0.252 C 
HETATM   23  O3  UNL     1      15.884   3.913  50.236  1.00  0.00    -0.268 OA
HETATM   24  H17 UNL     1      24.139   2.697  49.167  1.00  0.00     0.166 HD
HETATM   25  H26 UNL     1      17.164   6.126  49.346  1.00  0.00     0.169 HD
ENDROOT
BRANCH  18  26
HETATM   26  C18 UNL     1      23.680   2.010  51.708  1.00  0.00     0.067 C 
BRANCH  26  27
HETATM   27  C19 UNL     1      25.082   1.514  51.596  1.00  0.00     0.116 C 
BRANCH  27  28
HETATM   28  C20 UNL     1      26.150   2.464  51.388  1.00  0.00     0.139 C 
HETATM   29  O1  UNL     1      25.913   3.516  50.696  1.00  0.00    -0.650 OA
BRANCH  28  30
HETATM   30  O2  UNL     1      27.357   3.142  51.384  1.00  0.00    -0.776 OA
HETATM   31  H22 UNL     1      28.090   2.872  52.026  1.00  0.00     0.167 HD
ENDBRANCH  28  30
ENDBRANCH  27  28
ENDBRANCH  26  27
ENDBRANCH  18  26
TORSDOF 4
ENDMDL
MODEL 9
REMARK VINA RESULT:      -7.3      6.875      8.942
REMARK  4 active torsions:
REMARK  status: ('A' for Active; 'I' for Inactive)
REMARK    1  A    between atoms: C17_18  and  C18_19 
REMARK    2  A    between atoms: C18_19  and  C19_20 
REMARK    3  A    between atoms: C19_20  and  C20_21 
REMARK    4  A    between atoms: C20_21  and  O2_23 
ROOT
HETATM    1  C1  UNL     1      25.148   5.150  49.070  1.00  0.00     0.011 C 
HETATM    2  C2  UNL     1      26.275   6.119  48.664  1.00  0.00    -0.042 C 
HETATM    3  C3  UNL     1      27.589   6.321  48.363  1.00  0.00     0.054 C 
HETATM    4  C4  UNL     1      28.696   5.295  48.335  1.00  0.00    -0.008 C 
HETATM    5  C5  UNL     1      29.833   5.944  47.979  1.00  0.00     0.012 C 
HETATM    6  C6  UNL     1      30.104   7.385  47.644  1.00  0.00     0.100 C 
HETATM    7  C7  UNL     1      31.017   7.348  46.486  1.00  0.00     0.013 C 
HETATM    8  C8  UNL     1      31.186   7.953  45.304  1.00  0.00    -0.001 C 
HETATM    9  C9  UNL     1      30.512   8.997  44.553  1.00  0.00     0.033 C 
HETATM   10  C10 UNL     1      29.392   9.705  45.273  1.00  0.00     0.044 C 
HETATM   11  C11 UNL     1      29.884  10.423  46.477  1.00  0.00    -0.031 A 
HETATM   12  C12 UNL     1      31.227  10.681  46.657  1.00  0.00     0.009 A 
HETATM   13  C13 UNL     1      31.675  11.354  47.772  1.00  0.00     0.001 A 
HETATM   14  C14 UNL     1      30.839  11.811  48.769  1.00  0.00     0.002 A 
HETATM   15  C15 UNL     1      29.496  11.523  48.533  1.00  0.00     0.030 A 
HETATM   16  C16 UNL     1      28.992  10.851  47.437  1.00  0.00     0.038 A 
HETATM   17  N1  UNL     1      27.604  10.596  47.295  1.00  0.00    -0.359 N 
HETATM   18  C17 UNL     1      26.660   9.549  47.461  1.00  0.00     0.006 C 
HETATM   19  C21 UNL     1      26.411   8.545  48.280  1.00  0.00    -0.002 C 
HETATM   20  C22 UNL     1      25.546   7.413  48.618  1.00  0.00     0.034 C 
HETATM   21  N2  UNL     1      31.958   6.334  46.901  1.00  0.00    -0.327 N 
HETATM   22  C23 UNL     1      31.228   5.491  47.805  1.00  0.00     0.252 C 
HETATM   23  O3  UNL     1      31.731   4.467  48.390  1.00  0.00    -0.268 OA
HETATM   24  H17 UNL     1      27.375  11.526  46.992  1.00  0.00     0.166 HD
HETATM   25  H26 UNL     1      32.975   6.144  46.668  1.00  0.00     0.169 HD
ENDROOT
BRANCH  18  26
HETATM   26  C18 UNL     1      25.677   9.555  46.383  1.00  0.00     0.067 C 
BRANCH  26  27
HETATM   27  C19 UNL     1      25.934   8.665  45.213  1.00  0.00     0.116 C 
BRANCH  27  28
HETATM   28  C20 UNL     1      24.816   8.046  44.541  1.00  0.00     0.139 C 
HETATM   29  O1  UNL     1      24.945   7.709  43.312  1.00  0.00    -0.650 OA
BRANCH  28  30
HETATM   30  O2  UNL     1      23.588   7.496  44.213  1.00  0.00    -0.776 OA
HETATM   31  H22 UNL     1      22.778   8.091  44.110  1.00  0.00     0.167 HD
ENDBRANCH  28  30
ENDBRANCH  27  28
ENDBRANCH  26  27
ENDBRANCH  18  26
TORSDOF 4
ENDMDL
