MODEL 1
REMARK VINA RESULT:      -8.0      0.000      0.000
REMARK  3 active torsions:
REMARK  status: ('A' for Active; 'I' for Inactive)
REMARK    1  A    between atoms: O1_1  and  C1_2 
REMARK    2  A    between atoms: C3_7  and  C4_8 
REMARK    3  A    between atoms: C11_17  and  C12_18 
ROOT
HETATM    1  C1  UNL     1      22.925   3.158  51.899  1.00  0.00     0.170 C 
HETATM    2  C2  UNL     1      21.627   3.261  52.341  1.00  0.00     0.127 C 
HETATM    3  S1  UNL     1      20.677   1.929  53.208  1.00  0.00    -0.000 SA
HETATM    4  N1  UNL     1      21.825   0.532  53.310  1.00  0.00    -0.223 N 
HETATM    5  N2  UNL     1      22.707  -0.535  53.766  1.00  0.00    -0.162 NA
HETATM    6  C3  UNL     1      23.949  -0.098  53.469  1.00  0.00     0.115 C 
HETATM    7  C10 UNL     1      23.593   0.878  52.386  1.00  0.00     0.098 C 
HETATM    8  N3  UNL     1      23.905   2.025  51.818  1.00  0.00    -0.224 NA
HETATM    9  C11 UNL     1      22.312   0.137  51.949  1.00  0.00     0.205 C 
ENDROOT
BRANCH   6  10
HETATM   10  C4  UNL     1      25.405  -0.098  53.710  1.00  0.00    -0.003 A 
HETATM   11  C5  UNL     1      26.180   0.492  54.648  1.00  0.00     0.015 A 
HETATM   12  C6  UNL     1      27.525   0.262  54.581  1.00  0.00     0.024 A 
HETATM   13  C7  UNL     1      28.127  -0.527  53.626  1.00  0.00     0.034 A 
HETATM   14 CL1  UNL     1      29.857  -0.676  53.738  1.00  0.00    -0.084 Cl
HETATM   15  C8  UNL     1      27.311  -1.114  52.685  1.00  0.00     0.024 A 
HETATM   16  C9  UNL     1      25.927  -0.902  52.721  1.00  0.00     0.015 A 
ENDBRANCH   6  10
BRANCH   9  17
HETATM   17  C12 UNL     1      21.655   0.759  50.827  1.00  0.00    -0.027 A 
HETATM   18  C13 UNL     1      20.276   0.760  50.783  1.00  0.00     0.010 A 
HETATM   19  C14 UNL     1      19.563   1.332  49.747  1.00  0.00     0.001 A 
HETATM   20  C15 UNL     1      20.220   1.944  48.683  1.00  0.00     0.000 A 
HETATM   21  C16 UNL     1      21.598   1.970  48.680  1.00  0.00     0.001 A 
HETATM   22  C17 UNL     1      22.244   1.379  49.746  1.00  0.00     0.010 A 
ENDBRANCH   9  17
BRANCH   1  23
HETATM   23  O1  UNL     1      23.505   4.313  51.412  1.00  0.00    -0.344 OA
HETATM   24  H1  UNL     1      22.967   5.173  51.536  1.00  0.00     0.219 HD
ENDBRANCH   1  23
TORSDOF 3
ENDMDL
MODEL 2
REMARK VINA RESULT:      -7.9      3.526      4.938
REMARK  3 active torsions:
REMARK  status: ('A' for Active; 'I' for Inactive)
REMARK    1  A    between atoms: O1_1  and  C1_2 
REMARK    2  A    between atoms: C3_7  and  C4_8 
REMARK    3  A    between atoms: C11_17  and  C12_18 
ROOT
HETATM    1  C1  UNL     1      23.631   5.615  51.703  1.00  0.00     0.170 C 
HETATM    2  C2  UNL     1      22.713   6.311  50.951  1.00  0.00     0.127 C 
HETATM    3  S1  UNL     1      21.597   5.579  49.668  1.00  0.00    -0.000 SA
HETATM    4  N1  UNL     1      22.007   3.814  49.649  1.00  0.00    -0.223 N 
HETATM    5  N2  UNL     1      21.975   2.361  49.744  1.00  0.00    -0.162 NA
HETATM    6  C3  UNL     1      22.717   2.075  50.835  1.00  0.00     0.115 C 
HETATM    7  C10 UNL     1      23.535   3.333  50.888  1.00  0.00     0.098 C 
HETATM    8  N3  UNL     1      24.133   4.202  51.676  1.00  0.00    -0.224 NA
HETATM    9  C11 UNL     1      23.464   3.606  49.371  1.00  0.00     0.205 C 
ENDROOT
BRANCH   6  10
HETATM   10  C4  UNL     1      23.064   1.183  51.957  1.00  0.00    -0.003 A 
HETATM   11  C5  UNL     1      24.243   0.718  52.430  1.00  0.00     0.015 A 
HETATM   12  C6  UNL     1      24.197  -0.100  53.524  1.00  0.00     0.024 A 
HETATM   13  C7  UNL     1      23.035  -0.472  54.162  1.00  0.00     0.034 A 
HETATM   14 CL1  UNL     1      23.221  -1.524  55.536  1.00  0.00    -0.084 Cl
HETATM   15  C8  UNL     1      21.851   0.016  53.656  1.00  0.00     0.024 A 
HETATM   16  C9  UNL     1      21.857   0.858  52.537  1.00  0.00     0.015 A 
ENDBRANCH   6  10
BRANCH   9  17
HETATM   17  C12 UNL     1      24.215   4.771  48.971  1.00  0.00    -0.027 A 
HETATM   18  C13 UNL     1      25.539   4.865  49.346  1.00  0.00     0.010 A 
HETATM   19  C14 UNL     1      26.334   5.944  49.008  1.00  0.00     0.001 A 
HETATM   20  C15 UNL     1      25.821   7.000  48.260  1.00  0.00     0.000 A 
HETATM   21  C16 UNL     1      24.503   6.953  47.862  1.00  0.00     0.001 A 
HETATM   22  C17 UNL     1      23.768   5.847  48.235  1.00  0.00     0.010 A 
ENDBRANCH   9  17
BRANCH   1  23
HETATM   23  O1  UNL     1      24.260   6.316  52.713  1.00  0.00    -0.344 OA
HETATM   24  H1  UNL     1      24.343   5.833  53.610  1.00  0.00     0.219 HD
ENDBRANCH   1  23
TORSDOF 3
ENDMDL
MODEL 3
REMARK VINA RESULT:      -7.8      1.252      1.462
REMARK  3 active torsions:
REMARK  status: ('A' for Active; 'I' for Inactive)
REMARK    1  A    between atoms: O1_1  and  C1_2 
REMARK    2  A    between atoms: C3_7  and  C4_8 
REMARK    3  A    between atoms: C11_17  and  C12_18 
ROOT
HETATM    1  C1  UNL     1      23.733   4.239  51.671  1.00  0.00     0.170 C 
HETATM    2  C2  UNL     1      22.392   4.417  51.918  1.00  0.00     0.127 C 
HETATM    3  S1  UNL     1      21.195   3.079  52.372  1.00  0.00    -0.000 SA
HETATM    4  N1  UNL     1      22.185   1.561  52.396  1.00  0.00    -0.223 N 
HETATM    5  N2  UNL     1      22.879   0.340  52.783  1.00  0.00    -0.162 NA
HETATM    6  C3  UNL     1      24.187   0.673  52.766  1.00  0.00     0.115 C 
HETATM    7  C10 UNL     1      24.108   1.848  51.835  1.00  0.00     0.098 C 
HETATM    8  N3  UNL     1      24.611   3.030  51.540  1.00  0.00    -0.224 NA
HETATM    9  C11 UNL     1      22.863   1.342  51.079  1.00  0.00     0.205 C 
ENDROOT
BRANCH   6  10
HETATM   10  C4  UNL     1      25.573   0.467  53.226  1.00  0.00    -0.003 A 
HETATM   11  C5  UNL     1      26.317   1.052  54.193  1.00  0.00     0.015 A 
HETATM   12  C6  UNL     1      27.593   0.593  54.361  1.00  0.00     0.024 A 
HETATM   13  C7  UNL     1      28.156  -0.417  53.613  1.00  0.00     0.034 A 
HETATM   14 CL1  UNL     1      29.799  -0.834  54.007  1.00  0.00    -0.084 Cl
HETATM   15  C8  UNL     1      27.374  -0.992  52.637  1.00  0.00     0.024 A 
HETATM   16  C9  UNL     1      26.061  -0.549  52.433  1.00  0.00     0.015 A 
ENDBRANCH   6  10
BRANCH   9  17
HETATM   17  C12 UNL     1      22.466   2.211  49.999  1.00  0.00    -0.027 A 
HETATM   18  C13 UNL     1      21.120   2.380  49.745  1.00  0.00     0.010 A 
HETATM   19  C14 UNL     1      20.649   3.192  48.731  1.00  0.00     0.001 A 
HETATM   20  C15 UNL     1      21.530   3.889  47.909  1.00  0.00     0.000 A 
HETATM   21  C16 UNL     1      22.885   3.754  48.123  1.00  0.00     0.001 A 
HETATM   22  C17 UNL     1      23.284   2.926  49.151  1.00  0.00     0.010 A 
ENDBRANCH   9  17
BRANCH   1  23
HETATM   23  O1  UNL     1      24.486   5.384  51.497  1.00  0.00    -0.344 OA
HETATM   24  H1  UNL     1      24.803   5.573  50.544  1.00  0.00     0.219 HD
ENDBRANCH   1  23
TORSDOF 3
ENDMDL
MODEL 4
REMARK VINA RESULT:      -7.7      2.966      3.776
REMARK  3 active torsions:
REMARK  status: ('A' for Active; 'I' for Inactive)
REMARK    1  A    between atoms: O1_1  and  C1_2 
REMARK    2  A    between atoms: C3_7  and  C4_8 
REMARK    3  A    between atoms: C11_17  and  C12_18 
ROOT
HETATM    1  C1  UNL     1      23.654   5.551  51.592  1.00  0.00     0.170 C 
HETATM    2  C2  UNL     1      22.377   5.781  51.135  1.00  0.00     0.127 C 
HETATM    3  S1  UNL     1      21.294   4.534  50.298  1.00  0.00    -0.000 SA
HETATM    4  N1  UNL     1      22.292   3.024  50.229  1.00  0.00    -0.223 N 
HETATM    5  N2  UNL     1      22.815   1.674  50.394  1.00  0.00    -0.162 NA
HETATM    6  C3  UNL     1      23.881   1.820  51.211  1.00  0.00     0.115 C 
HETATM    7  C10 UNL     1      24.169   3.269  50.949  1.00  0.00     0.098 C 
HETATM    8  N3  UNL     1      24.605   4.397  51.472  1.00  0.00    -0.224 NA
HETATM    9  C11 UNL     1      23.588   3.269  49.520  1.00  0.00     0.205 C 
ENDROOT
BRANCH   6  10
HETATM   10  C4  UNL     1      24.822   1.274  52.206  1.00  0.00    -0.003 A 
HETATM   11  C5  UNL     1      24.646   0.684  53.410  1.00  0.00     0.015 A 
HETATM   12  C6  UNL     1      25.768   0.277  54.076  1.00  0.00     0.024 A 
HETATM   13  C7  UNL     1      27.049   0.430  53.596  1.00  0.00     0.034 A 
HETATM   14 CL1  UNL     1      28.324  -0.166  54.619  1.00  0.00    -0.084 Cl
HETATM   15  C8  UNL     1      27.196   1.035  52.368  1.00  0.00     0.024 A 
HETATM   16  C9  UNL     1      26.070   1.466  51.655  1.00  0.00     0.015 A 
ENDBRANCH   6  10
BRANCH   9  17
HETATM   17  C12 UNL     1      23.725   4.542  48.854  1.00  0.00    -0.027 A 
HETATM   18  C13 UNL     1      22.713   4.964  48.019  1.00  0.00     0.010 A 
HETATM   19  C14 UNL     1      22.760   6.167  47.340  1.00  0.00     0.001 A 
HETATM   20  C15 UNL     1      23.852   7.020  47.477  1.00  0.00     0.000 A 
HETATM   21  C16 UNL     1      24.889   6.643  48.301  1.00  0.00     0.001 A 
HETATM   22  C17 UNL     1      24.777   5.428  48.946  1.00  0.00     0.010 A 
ENDBRANCH   9  17
BRANCH   1  23
HETATM   23  O1  UNL     1      24.240   6.565  52.323  1.00  0.00    -0.344 OA
HETATM   24  H1  UNL     1      23.654   7.382  52.509  1.00  0.00     0.219 HD
ENDBRANCH   1  23
TORSDOF 3
ENDMDL
MODEL 5
REMARK VINA RESULT:      -7.5      2.662      3.140
REMARK  3 active torsions:
REMARK  status: ('A' for Active; 'I' for Inactive)
REMARK    1  A    between atoms: O1_1  and  C1_2 
REMARK    2  A    between atoms: C3_7  and  C4_8 
REMARK    3  A    between atoms: C11_17  and  C12_18 
ROOT
HETATM    1  C1  UNL     1      25.595   4.621  49.797  1.00  0.00     0.170 C 
HETATM    2  C2  UNL     1      24.804   5.693  50.136  1.00  0.00     0.127 C 
HETATM    3  S1  UNL     1      23.646   5.762  51.580  1.00  0.00    -0.000 SA
HETATM    4  N1  UNL     1      23.805   4.144  52.379  1.00  0.00    -0.223 N 
HETATM    5  N2  UNL     1      24.058   3.054  53.312  1.00  0.00    -0.162 NA
HETATM    6  C3  UNL     1      25.149   2.431  52.817  1.00  0.00     0.115 C 
HETATM    7  C10 UNL     1      25.037   2.878  51.389  1.00  0.00     0.098 C 
HETATM    8  N3  UNL     1      25.706   3.214  50.305  1.00  0.00    -0.224 NA
HETATM    9  C11 UNL     1      23.502   3.038  51.415  1.00  0.00     0.205 C 
ENDROOT
BRANCH   6  10
HETATM   10  C4  UNL     1      26.349   1.594  53.007  1.00  0.00    -0.003 A 
HETATM   11  C5  UNL     1      27.605   1.871  53.426  1.00  0.00     0.015 A 
HETATM   12  C6  UNL     1      28.483   0.827  53.497  1.00  0.00     0.024 A 
HETATM   13  C7  UNL     1      28.166  -0.473  53.173  1.00  0.00     0.034 A 
HETATM   14 CL1  UNL     1      29.448  -1.637  53.342  1.00  0.00    -0.084 Cl
HETATM   15  C8  UNL     1      26.880  -0.723  52.749  1.00  0.00     0.024 A 
HETATM   16  C9  UNL     1      25.950   0.321  52.663  1.00  0.00     0.015 A 
ENDBRANCH   6  10
BRANCH   9  17
HETATM   17  C12 UNL     1      22.953   3.429  50.140  1.00  0.00    -0.027 A 
HETATM   18  C13 UNL     1      23.306   2.708  49.019  1.00  0.00     0.010 A 
HETATM   19  C14 UNL     1      22.829   3.010  47.757  1.00  0.00     0.001 A 
HETATM   20  C15 UNL     1      21.955   4.077  47.563  1.00  0.00     0.000 A 
HETATM   21  C16 UNL     1      21.573   4.828  48.653  1.00  0.00     0.001 A 
HETATM   22  C17 UNL     1      22.088   4.470  49.882  1.00  0.00     0.010 A 
ENDBRANCH   9  17
BRANCH   1  23
HETATM   23  O1  UNL     1      26.502   4.822  48.775  1.00  0.00    -0.344 OA
HETATM   24  H1  UNL     1      26.288   4.361  47.888  1.00  0.00     0.219 HD
ENDBRANCH   1  23
TORSDOF 3
ENDMDL
MODEL 6
REMARK VINA RESULT:      -7.4      8.839     10.551
REMARK  3 active torsions:
REMARK  status: ('A' for Active; 'I' for Inactive)
REMARK    1  A    between atoms: O1_1  and  C1_2 
REMARK    2  A    between atoms: C3_7  and  C4_8 
REMARK    3  A    between atoms: C11_17  and  C12_18 
ROOT
HETATM    1  C1  UNL     1      31.319   6.162  49.370  1.00  0.00     0.170 C 
HETATM    2  C2  UNL     1      31.752   7.461  49.494  1.00  0.00     0.127 C 
HETATM    3  S1  UNL     1      30.822   8.963  48.939  1.00  0.00    -0.000 SA
HETATM    4  N1  UNL     1      29.287   8.319  48.223  1.00  0.00    -0.223 N 
HETATM    5  N2  UNL     1      27.895   8.001  47.931  1.00  0.00    -0.162 NA
HETATM    6  C3  UNL     1      27.763   6.703  48.282  1.00  0.00     0.115 C 
HETATM    7  C10 UNL     1      29.205   6.297  48.188  1.00  0.00     0.098 C 
HETATM    8  N3  UNL     1      30.145   5.522  48.690  1.00  0.00    -0.224 NA
HETATM    9  C11 UNL     1      29.576   7.347  47.121  1.00  0.00     0.205 C 
ENDROOT
BRANCH   6  10
HETATM   10  C4  UNL     1      26.931   5.568  48.720  1.00  0.00    -0.003 A 
HETATM   11  C5  UNL     1      27.225   4.295  49.071  1.00  0.00     0.015 A 
HETATM   12  C6  UNL     1      26.182   3.495  49.447  1.00  0.00     0.024 A 
HETATM   13  C7  UNL     1      24.869   3.907  49.490  1.00  0.00     0.034 A 
HETATM   14 CL1  UNL     1      23.711   2.713  50.001  1.00  0.00    -0.084 Cl
HETATM   15  C8  UNL     1      24.602   5.208  49.127  1.00  0.00     0.024 A 
HETATM   16  C9  UNL     1      25.643   6.058  48.735  1.00  0.00     0.015 A 
ENDBRANCH   6  10
BRANCH   9  17
HETATM   17  C12 UNL     1      30.949   7.255  46.690  1.00  0.00    -0.027 A 
HETATM   18  C13 UNL     1      31.626   8.416  46.383  1.00  0.00     0.010 A 
HETATM   19  C14 UNL     1      32.943   8.422  45.962  1.00  0.00     0.001 A 
HETATM   20  C15 UNL     1      33.653   7.232  45.828  1.00  0.00     0.000 A 
HETATM   21  C16 UNL     1      33.020   6.045  46.123  1.00  0.00     0.001 A 
HETATM   22  C17 UNL     1      31.706   6.113  46.536  1.00  0.00     0.010 A 
ENDBRANCH   9  17
BRANCH   1  23
HETATM   23  O1  UNL     1      32.090   5.193  49.982  1.00  0.00    -0.344 OA
HETATM   24  H1  UNL     1      31.580   4.417  50.410  1.00  0.00     0.219 HD
ENDBRANCH   1  23
TORSDOF 3
ENDMDL
MODEL 7
REMARK VINA RESULT:      -7.3      9.211     11.497
REMARK  3 active torsions:
REMARK  status: ('A' for Active; 'I' for Inactive)
REMARK    1  A    between atoms: O1_1  and  C1_2 
REMARK    2  A    between atoms: C3_7  and  C4_8 
REMARK    3  A    between atoms: C11_17  and  C12_18 
ROOT
HETATM    1  C1  UNL     1      31.691   5.996  49.791  1.00  0.00     0.170 C 
HETATM    2  C2  UNL     1      32.773   6.805  49.530  1.00  0.00     0.127 C 
HETATM    3  S1  UNL     1      32.960   7.908  48.055  1.00  0.00    -0.000 SA
HETATM    4  N1  UNL     1      31.445   7.656  47.092  1.00  0.00    -0.223 N 
HETATM    5  N2  UNL     1      30.178   7.824  46.393  1.00  0.00    -0.162 NA
HETATM    6  C3  UNL     1      29.278   7.174  47.162  1.00  0.00     0.115 C 
HETATM    7  C10 UNL     1      30.220   6.251  47.879  1.00  0.00     0.098 C 
HETATM    8  N3  UNL     1      30.465   5.622  49.011  1.00  0.00    -0.224 NA
HETATM    9  C11 UNL     1      31.265   6.211  46.745  1.00  0.00     0.205 C 
ENDROOT
BRANCH   6  10
HETATM   10  C4  UNL     1      27.894   6.972  47.630  1.00  0.00    -0.003 A 
HETATM   11  C5  UNL     1      27.327   6.061  48.454  1.00  0.00     0.015 A 
HETATM   12  C6  UNL     1      25.986   6.180  48.687  1.00  0.00     0.024 A 
HETATM   13  C7  UNL     1      25.191   7.161  48.139  1.00  0.00     0.034 A 
HETATM   14 CL1  UNL     1      23.508   7.116  48.578  1.00  0.00    -0.084 Cl
HETATM   15  C8  UNL     1      25.797   8.073  47.304  1.00  0.00     0.024 A 
HETATM   16  C9  UNL     1      27.170   7.985  47.040  1.00  0.00     0.015 A 
ENDBRANCH   6  10
BRANCH   9  17
HETATM   17  C12 UNL     1      32.376   5.337  47.031  1.00  0.00    -0.027 A 
HETATM   18  C13 UNL     1      32.115   4.054  47.465  1.00  0.00     0.010 A 
HETATM   19  C14 UNL     1      33.116   3.149  47.763  1.00  0.00     0.001 A 
HETATM   20  C15 UNL     1      34.457   3.503  47.635  1.00  0.00     0.000 A 
HETATM   21  C16 UNL     1      34.769   4.774  47.205  1.00  0.00     0.001 A 
HETATM   22  C17 UNL     1      33.720   5.625  46.926  1.00  0.00     0.010 A 
ENDBRANCH   9  17
BRANCH   1  23
HETATM   23  O1  UNL     1      31.674   5.365  51.019  1.00  0.00    -0.344 OA
HETATM   24  H1  UNL     1      30.857   5.545  51.605  1.00  0.00     0.219 HD
ENDBRANCH   1  23
TORSDOF 3
ENDMDL
MODEL 8
REMARK VINA RESULT:      -7.2      4.644      5.918
REMARK  3 active torsions:
REMARK  status: ('A' for Active; 'I' for Inactive)
REMARK    1  A    between atoms: O1_1  and  C1_2 
REMARK    2  A    between atoms: C3_7  and  C4_8 
REMARK    3  A    between atoms: C11_17  and  C12_18 
ROOT
HETATM    1  C1  UNL     1      23.495   4.733  52.052  1.00  0.00     0.170 C 
HETATM    2  C2  UNL     1      23.758   3.866  53.087  1.00  0.00     0.127 C 
HETATM    3  S1  UNL     1      25.061   2.551  53.085  1.00  0.00    -0.000 SA
HETATM    4  N1  UNL     1      25.849   2.682  51.459  1.00  0.00    -0.223 N 
HETATM    5  N2  UNL     1      26.789   2.872  50.362  1.00  0.00    -0.162 NA
HETATM    6  C3  UNL     1      26.413   4.036  49.790  1.00  0.00     0.115 C 
HETATM    7  C10 UNL     1      24.988   4.068  50.260  1.00  0.00     0.098 C 
HETATM    8  N3  UNL     1      23.992   4.842  50.641  1.00  0.00    -0.224 NA
HETATM    9  C11 UNL     1      24.841   2.535  50.361  1.00  0.00     0.205 C 
ENDROOT
BRANCH   6  10
HETATM   10  C4  UNL     1      26.726   5.239  48.996  1.00  0.00    -0.003 A 
HETATM   11  C5  UNL     1      25.986   6.305  48.613  1.00  0.00     0.015 A 
HETATM   12  C6  UNL     1      26.615   7.268  47.876  1.00  0.00     0.024 A 
HETATM   13  C7  UNL     1      27.940   7.217  47.507  1.00  0.00     0.034 A 
HETATM   14 CL1  UNL     1      28.525   8.560  46.568  1.00  0.00    -0.084 Cl
HETATM   15  C8  UNL     1      28.667   6.119  47.912  1.00  0.00     0.024 A 
HETATM   16  C9  UNL     1      28.058   5.110  48.669  1.00  0.00     0.015 A 
ENDBRANCH   6  10
BRANCH   9  17
HETATM   17  C12 UNL     1      23.518   2.119  50.754  1.00  0.00    -0.027 A 
HETATM   18  C13 UNL     1      23.391   1.094  51.668  1.00  0.00     0.010 A 
HETATM   19  C14 UNL     1      22.163   0.630  52.102  1.00  0.00     0.001 A 
HETATM   20  C15 UNL     1      20.981   1.191  51.626  1.00  0.00     0.000 A 
HETATM   21  C16 UNL     1      21.056   2.219  50.711  1.00  0.00     0.001 A 
HETATM   22  C17 UNL     1      22.313   2.630  50.322  1.00  0.00     0.010 A 
ENDBRANCH   9  17
BRANCH   1  23
HETATM   23  O1  UNL     1      22.586   5.741  52.307  1.00  0.00    -0.344 OA
HETATM   24  H1  UNL     1      21.600   5.487  52.228  1.00  0.00     0.219 HD
ENDBRANCH   1  23
TORSDOF 3
ENDMDL
MODEL 9
REMARK VINA RESULT:      -7.2      4.051      5.530
REMARK  3 active torsions:
REMARK  status: ('A' for Active; 'I' for Inactive)
REMARK    1  A    between atoms: O1_1  and  C1_2 
REMARK    2  A    between atoms: C3_7  and  C4_8 
REMARK    3  A    between atoms: C11_17  and  C12_18 
ROOT
HETATM    1  C1  UNL     1      22.218   2.658  48.840  1.00  0.00     0.170 C 
HETATM    2  C2  UNL     1      20.979   3.160  49.165  1.00  0.00     0.127 C 
HETATM    3  S1  UNL     1      20.657   4.541  50.355  1.00  0.00    -0.000 SA
HETATM    4  N1  UNL     1      22.295   5.028  50.956  1.00  0.00    -0.223 N 
HETATM    5  N2  UNL     1      23.520   5.750  51.273  1.00  0.00    -0.162 NA
HETATM    6  C3  UNL     1      24.458   5.193  50.477  1.00  0.00     0.115 C 
HETATM    7  C10 UNL     1      23.791   3.870  50.233  1.00  0.00     0.098 C 
HETATM    8  N3  UNL     1      23.603   2.897  49.365  1.00  0.00    -0.224 NA
HETATM    9  C11 UNL     1      23.011   3.862  51.565  1.00  0.00     0.205 C 
ENDROOT
BRANCH   6  10
HETATM   10  C4  UNL     1      25.737   5.271  49.747  1.00  0.00    -0.003 A 
HETATM   11  C5  UNL     1      26.621   4.332  49.338  1.00  0.00     0.015 A 
HETATM   12  C6  UNL     1      27.722   4.767  48.656  1.00  0.00     0.024 A 
HETATM   13  C7  UNL     1      27.980   6.088  48.366  1.00  0.00     0.034 A 
HETATM   14 CL1  UNL     1      29.447   6.406  47.487  1.00  0.00    -0.084 Cl
HETATM   15  C8  UNL     1      27.062   7.021  48.797  1.00  0.00     0.024 A 
HETATM   16  C9  UNL     1      25.920   6.614  49.498  1.00  0.00     0.015 A 
ENDBRANCH   6  10
BRANCH   9  17
HETATM   17  C12 UNL     1      22.236   2.661  51.758  1.00  0.00    -0.027 A 
HETATM   18  C13 UNL     1      20.994   2.763  52.347  1.00  0.00     0.010 A 
HETATM   19  C14 UNL     1      20.183   1.666  52.572  1.00  0.00     0.001 A 
HETATM   20  C15 UNL     1      20.595   0.389  52.204  1.00  0.00     0.000 A 
HETATM   21  C16 UNL     1      21.830   0.235  51.611  1.00  0.00     0.001 A 
HETATM   22  C17 UNL     1      22.586   1.372  51.418  1.00  0.00     0.010 A 
ENDBRANCH   9  17
BRANCH   1  23
HETATM   23  O1  UNL     1      22.260   1.731  47.817  1.00  0.00    -0.344 OA
HETATM   24  H1  UNL     1      22.179   0.751  48.096  1.00  0.00     0.219 HD
ENDBRANCH   1  23
TORSDOF 3
ENDMDL
