MODEL 1
REMARK VINA RESULT:      -7.1      0.000      0.000
REMARK  7 active torsions:
REMARK  status: ('A' for Active; 'I' for Inactive)
REMARK    1  A    between atoms: C2_2  and  N1_4 
REMARK       I    between atoms: N1_4  and  C3_5 
REMARK       I    between atoms: C3_5  and  N2_7 
REMARK    2  A    between atoms: N2_7  and  C4_8 
REMARK    3  A    between atoms: N2_7  and  C8_12 
REMARK    4  A    between atoms: C4_8  and  C5_9 
REMARK    5  A    between atoms: C5_9  and  C6_10 
REMARK    6  A    between atoms: C8_12  and  C9_13 
REMARK    7  A    between atoms: C13_20  and  O2_21 
ROOT
HETATM    1  N1  UNL     1      28.050  -0.002  53.383  1.00  0.00    -0.286 N 
HETATM    2  C3  UNL     1      26.701  -0.408  53.281  1.00  0.00     0.324 C 
HETATM    3  O1  UNL     1      26.417  -1.639  53.139  1.00  0.00    -0.247 OA
HETATM    4  N2  UNL     1      25.460   0.278  53.300  1.00  0.00    -0.330 N 
HETATM    5  H3  UNL     1      28.108   1.029  53.504  1.00  0.00     0.172 HD
ENDROOT
BRANCH   4   6
HETATM    6  C4  UNL     1      24.314  -0.619  53.189  1.00  0.00     0.128 C 
BRANCH   6   7
HETATM    7  C5  UNL     1      23.110  -0.080  53.913  1.00  0.00     0.020 C 
BRANCH   7   8
HETATM    8  C6  UNL     1      22.593  -1.170  54.829  1.00  0.00    -0.003 C 
HETATM    9  C7  UNL     1      21.171  -1.564  54.436  1.00  0.00     0.005 C 
ENDBRANCH   7   8
ENDBRANCH   6   7
ENDBRANCH   4   6
BRANCH   4  10
HETATM   10  C8  UNL     1      25.062   1.676  53.384  1.00  0.00     0.169 C 
BRANCH  10  11
HETATM   11  C9  UNL     1      25.057   2.376  52.082  1.00  0.00    -0.003 C 
HETATM   12  C10 UNL     1      23.881   2.575  51.456  1.00  0.00     0.036 C 
HETATM   13  C11 UNL     1      23.604   3.234  50.170  1.00  0.00     0.048 C 
HETATM   14 CL1  UNL     1      22.003   3.869  49.842  1.00  0.00    -0.083 Cl
HETATM   15  C12 UNL     1      24.545   3.361  49.243  1.00  0.00     0.026 C 
HETATM   16  P1  UNL     1      25.953   3.648  49.928  1.00  0.00     0.078 P 
HETATM   17 CL2  UNL     1      27.483   4.438  48.799  1.00  0.00    -0.083 Cl
HETATM   18  C13 UNL     1      26.176   2.911  51.339  1.00  0.00     0.097 C 
BRANCH  18  19
HETATM   19  O2  UNL     1      27.441   2.770  51.876  1.00  0.00    -0.358 OA
HETATM   20  H16 UNL     1      27.665   2.802  52.847  1.00  0.00     0.217 HD
ENDBRANCH  18  19
ENDBRANCH  10  11
ENDBRANCH   4  10
BRANCH   1  21
HETATM   21  C2  UNL     1      29.118  -0.934  53.327  1.00  0.00     0.182 C 
HETATM   22  C1  UNL     1      30.307  -0.414  53.594  1.00  0.00     0.077 C 
HETATM   23  F1  UNL     1      28.828  -2.218  53.017  1.00  0.00    -0.187 F 
ENDBRANCH   1  21
TORSDOF 7
ENDMDL
MODEL 2
REMARK VINA RESULT:      -6.9      3.971      5.273
REMARK  7 active torsions:
REMARK  status: ('A' for Active; 'I' for Inactive)
REMARK    1  A    between atoms: C2_2  and  N1_4 
REMARK       I    between atoms: N1_4  and  C3_5 
REMARK       I    between atoms: C3_5  and  N2_7 
REMARK    2  A    between atoms: N2_7  and  C4_8 
REMARK    3  A    between atoms: N2_7  and  C8_12 
REMARK    4  A    between atoms: C4_8  and  C5_9 
REMARK    5  A    between atoms: C5_9  and  C6_10 
REMARK    6  A    between atoms: C8_12  and  C9_13 
REMARK    7  A    between atoms: C13_20  and  O2_21 
ROOT
HETATM    1  N1  UNL     1      25.329   3.616  51.011  1.00  0.00    -0.286 N 
HETATM    2  C3  UNL     1      24.159   2.833  50.895  1.00  0.00     0.324 C 
HETATM    3  O1  UNL     1      23.432   2.928  49.856  1.00  0.00    -0.247 OA
HETATM    4  N2  UNL     1      23.527   1.873  51.725  1.00  0.00    -0.330 N 
HETATM    5  H3  UNL     1      25.810   3.413  51.910  1.00  0.00     0.172 HD
ENDROOT
BRANCH   4   6
HETATM    6  C4  UNL     1      22.321   1.310  51.126  1.00  0.00     0.128 C 
BRANCH   6   7
HETATM    7  C5  UNL     1      21.815   0.123  51.900  1.00  0.00     0.020 C 
BRANCH   7   8
HETATM    8  C6  UNL     1      20.318   0.281  52.065  1.00  0.00    -0.003 C 
HETATM    9  C7  UNL     1      19.863  -0.325  53.391  1.00  0.00     0.005 C 
ENDBRANCH   7   8
ENDBRANCH   6   7
ENDBRANCH   4   6
BRANCH   4  10
HETATM   10  C8  UNL     1      23.791   1.333  53.051  1.00  0.00     0.169 C 
BRANCH  10  11
HETATM   11  C9  UNL     1      25.188   0.893  53.252  1.00  0.00    -0.003 C 
HETATM   12  C10 UNL     1      25.507  -0.392  53.004  1.00  0.00     0.036 C 
HETATM   13  C11 UNL     1      26.805  -1.075  53.123  1.00  0.00     0.048 C 
HETATM   14 CL1  UNL     1      27.098  -2.553  52.227  1.00  0.00    -0.083 Cl
HETATM   15  C12 UNL     1      27.768  -0.596  53.899  1.00  0.00     0.026 C 
HETATM   16  P1  UNL     1      27.777   0.995  53.842  1.00  0.00     0.078 P 
HETATM   17 CL2  UNL     1      29.452   2.020  54.462  1.00  0.00    -0.083 Cl
HETATM   18  C13 UNL     1      26.325   1.669  53.692  1.00  0.00     0.097 C 
BRANCH  18  19
HETATM   19  O2  UNL     1      26.129   3.006  53.979  1.00  0.00    -0.358 OA
HETATM   20  H16 UNL     1      25.600   3.647  53.426  1.00  0.00     0.217 HD
ENDBRANCH  18  19
ENDBRANCH  10  11
ENDBRANCH   4  10
BRANCH   1  21
HETATM   21  C2  UNL     1      25.727   4.522  49.995  1.00  0.00     0.182 C 
HETATM   22  C1  UNL     1      26.787   4.130  49.302  1.00  0.00     0.077 C 
HETATM   23  F1  UNL     1      25.011   5.658  49.837  1.00  0.00    -0.187 F 
ENDBRANCH   1  21
TORSDOF 7
ENDMDL
MODEL 3
REMARK VINA RESULT:      -6.8      3.620      5.638
REMARK  7 active torsions:
REMARK  status: ('A' for Active; 'I' for Inactive)
REMARK    1  A    between atoms: C2_2  and  N1_4 
REMARK       I    between atoms: N1_4  and  C3_5 
REMARK       I    between atoms: C3_5  and  N2_7 
REMARK    2  A    between atoms: N2_7  and  C4_8 
REMARK    3  A    between atoms: N2_7  and  C8_12 
REMARK    4  A    between atoms: C4_8  and  C5_9 
REMARK    5  A    between atoms: C5_9  and  C6_10 
REMARK    6  A    between atoms: C8_12  and  C9_13 
REMARK    7  A    between atoms: C13_20  and  O2_21 
ROOT
HETATM    1  N1  UNL     1      25.391   4.307  50.707  1.00  0.00    -0.286 N 
HETATM    2  C3  UNL     1      26.004   3.058  50.954  1.00  0.00     0.324 C 
HETATM    3  O1  UNL     1      26.831   2.580  50.116  1.00  0.00    -0.247 OA
HETATM    4  N2  UNL     1      25.922   2.110  52.005  1.00  0.00    -0.330 N 
HETATM    5  H3  UNL     1      24.753   4.556  51.489  1.00  0.00     0.172 HD
ENDROOT
BRANCH   4   6
HETATM    6  C4  UNL     1      26.802   0.963  51.805  1.00  0.00     0.128 C 
BRANCH   6   7
HETATM    7  C5  UNL     1      27.657   0.696  53.013  1.00  0.00     0.020 C 
BRANCH   7   8
HETATM    8  C6  UNL     1      27.835  -0.804  53.133  1.00  0.00    -0.003 C 
HETATM    9  C7  UNL     1      26.635  -1.531  52.530  1.00  0.00     0.005 C 
ENDBRANCH   7   8
ENDBRANCH   6   7
ENDBRANCH   4   6
BRANCH   4  10
HETATM   10  C8  UNL     1      25.146   2.004  53.233  1.00  0.00     0.169 C 
BRANCH  10  11
HETATM   11  C9  UNL     1      23.743   1.590  53.020  1.00  0.00    -0.003 C 
HETATM   12  C10 UNL     1      23.396   0.313  53.276  1.00  0.00     0.036 C 
HETATM   13  C11 UNL     1      22.087  -0.346  53.148  1.00  0.00     0.048 C 
HETATM   14 CL1  UNL     1      21.754  -1.809  54.055  1.00  0.00    -0.083 Cl
HETATM   15  C12 UNL     1      21.143   0.144  52.355  1.00  0.00     0.026 C 
HETATM   16  P1  UNL     1      21.163   1.736  52.397  1.00  0.00     0.078 P 
HETATM   17 CL2  UNL     1      19.517   2.786  51.746  1.00  0.00    -0.083 Cl
HETATM   18  C13 UNL     1      22.626   2.383  52.558  1.00  0.00     0.097 C 
BRANCH  18  19
HETATM   19  O2  UNL     1      22.852   3.713  52.261  1.00  0.00    -0.358 OA
HETATM   20  H16 UNL     1      22.317   4.483  52.602  1.00  0.00     0.217 HD
ENDBRANCH  18  19
ENDBRANCH  10  11
ENDBRANCH   4  10
BRANCH   1  21
HETATM   21  C2  UNL     1      25.667   5.057  49.535  1.00  0.00     0.182 C 
HETATM   22  C1  UNL     1      24.591   5.388  48.836  1.00  0.00     0.077 C 
HETATM   23  F1  UNL     1      26.957   5.353  49.257  1.00  0.00    -0.187 F 
ENDBRANCH   1  21
TORSDOF 7
ENDMDL
MODEL 4
REMARK VINA RESULT:      -6.8      3.896      5.573
REMARK  7 active torsions:
REMARK  status: ('A' for Active; 'I' for Inactive)
REMARK    1  A    between atoms: C2_2  and  N1_4 
REMARK       I    between atoms: N1_4  and  C3_5 
REMARK       I    between atoms: C3_5  and  N2_7 
REMARK    2  A    between atoms: N2_7  and  C4_8 
REMARK    3  A    between atoms: N2_7  and  C8_12 
REMARK    4  A    between atoms: C4_8  and  C5_9 
REMARK    5  A    between atoms: C5_9  and  C6_10 
REMARK    6  A    between atoms: C8_12  and  C9_13 
REMARK    7  A    between atoms: C13_20  and  O2_21 
ROOT
HETATM    1  N1  UNL     1      26.276   4.719  50.087  1.00  0.00    -0.286 N 
HETATM    2  C3  UNL     1      24.897   4.429  49.994  1.00  0.00     0.324 C 
HETATM    3  O1  UNL     1      24.292   4.570  48.885  1.00  0.00    -0.247 OA
HETATM    4  N2  UNL     1      23.920   3.974  50.915  1.00  0.00    -0.330 N 
HETATM    5  H3  UNL     1      26.617   4.544  51.054  1.00  0.00     0.172 HD
ENDROOT
BRANCH   4   6
HETATM    6  C4  UNL     1      22.606   3.793  50.307  1.00  0.00     0.128 C 
BRANCH   6   7
HETATM    7  C5  UNL     1      21.495   4.060  51.285  1.00  0.00     0.020 C 
BRANCH   7   8
HETATM    8  C6  UNL     1      20.448   2.980  51.103  1.00  0.00    -0.003 C 
HETATM    9  C7  UNL     1      20.066   2.378  52.454  1.00  0.00     0.005 C 
ENDBRANCH   7   8
ENDBRANCH   6   7
ENDBRANCH   4   6
BRANCH   4  10
HETATM   10  C8  UNL     1      23.918   3.665  52.338  1.00  0.00     0.169 C 
BRANCH  10  11
HETATM   11  C9  UNL     1      24.403   2.304  52.656  1.00  0.00    -0.003 C 
HETATM   12  C10 UNL     1      23.506   1.357  52.991  1.00  0.00     0.036 C 
HETATM   13  C11 UNL     1      23.722  -0.054  53.348  1.00  0.00     0.048 C 
HETATM   14 CL1  UNL     1      22.410  -1.206  53.188  1.00  0.00    -0.083 Cl
HETATM   15  C12 UNL     1      24.898  -0.480  53.791  1.00  0.00     0.026 C 
HETATM   16  P1  UNL     1      26.076   0.275  53.034  1.00  0.00     0.078 P 
HETATM   17 CL2  UNL     1      27.975  -0.521  53.068  1.00  0.00    -0.083 Cl
HETATM   18  C13 UNL     1      25.760   1.807  52.660  1.00  0.00     0.097 C 
BRANCH  18  19
HETATM   19  O2  UNL     1      26.776   2.683  52.332  1.00  0.00    -0.358 OA
HETATM   20  H16 UNL     1      27.641   2.434  51.904  1.00  0.00     0.217 HD
ENDBRANCH  18  19
ENDBRANCH  10  11
ENDBRANCH   4  10
BRANCH   1  21
HETATM   21  C2  UNL     1      27.023   5.174  48.970  1.00  0.00     0.182 C 
HETATM   22  C1  UNL     1      26.829   6.451  48.670  1.00  0.00     0.077 C 
HETATM   23  F1  UNL     1      27.833   4.292  48.343  1.00  0.00    -0.187 F 
ENDBRANCH   1  21
TORSDOF 7
ENDMDL
MODEL 5
REMARK VINA RESULT:      -6.8      3.788      5.556
REMARK  7 active torsions:
REMARK  status: ('A' for Active; 'I' for Inactive)
REMARK    1  A    between atoms: C2_2  and  N1_4 
REMARK       I    between atoms: N1_4  and  C3_5 
REMARK       I    between atoms: C3_5  and  N2_7 
REMARK    2  A    between atoms: N2_7  and  C4_8 
REMARK    3  A    between atoms: N2_7  and  C8_12 
REMARK    4  A    between atoms: C4_8  and  C5_9 
REMARK    5  A    between atoms: C5_9  and  C6_10 
REMARK    6  A    between atoms: C8_12  and  C9_13 
REMARK    7  A    between atoms: C13_20  and  O2_21 
ROOT
HETATM    1  N1  UNL     1      26.402   3.874  50.689  1.00  0.00    -0.286 N 
HETATM    2  C3  UNL     1      25.309   2.994  50.848  1.00  0.00     0.324 C 
HETATM    3  O1  UNL     1      24.499   2.806  49.886  1.00  0.00    -0.247 OA
HETATM    4  N2  UNL     1      24.839   2.187  51.915  1.00  0.00    -0.330 N 
HETATM    5  H3  UNL     1      26.967   3.908  51.561  1.00  0.00     0.172 HD
ENDROOT
BRANCH   4   6
HETATM    6  C4  UNL     1      23.653   1.413  51.562  1.00  0.00     0.128 C 
BRANCH   6   7
HETATM    7  C5  UNL     1      22.610   1.463  52.645  1.00  0.00     0.020 C 
BRANCH   7   8
HETATM    8  C6  UNL     1      21.907   0.122  52.674  1.00  0.00    -0.003 C 
HETATM    9  C7  UNL     1      22.460  -0.744  53.804  1.00  0.00     0.005 C 
ENDBRANCH   7   8
ENDBRANCH   6   7
ENDBRANCH   4   6
BRANCH   4  10
HETATM   10  C8  UNL     1      25.254   1.965  53.293  1.00  0.00     0.169 C 
BRANCH  10  11
HETATM   11  C9  UNL     1      26.540   1.248  53.423  1.00  0.00    -0.003 C 
HETATM   12  C10 UNL     1      27.634   1.938  53.799  1.00  0.00     0.036 C 
HETATM   13  C11 UNL     1      29.015   1.470  53.999  1.00  0.00     0.048 C 
HETATM   14 CL1  UNL     1      30.110   2.391  55.012  1.00  0.00    -0.083 Cl
HETATM   15  C12 UNL     1      29.455   0.358  53.426  1.00  0.00     0.026 C 
HETATM   16  P1  UNL     1      28.303  -0.741  53.402  1.00  0.00     0.078 P 
HETATM   17 CL2  UNL     1      28.796  -2.718  53.108  1.00  0.00    -0.083 Cl
HETATM   18  C13 UNL     1      26.820  -0.152  53.200  1.00  0.00     0.097 C 
BRANCH  18  19
HETATM   19  O2  UNL     1      25.778  -0.971  52.809  1.00  0.00    -0.358 OA
HETATM   20  H16 UNL     1      25.432  -1.065  51.879  1.00  0.00     0.217 HD
ENDBRANCH  18  19
ENDBRANCH  10  11
ENDBRANCH   4  10
BRANCH   1  21
HETATM   21  C2  UNL     1      26.631   4.571  49.475  1.00  0.00     0.182 C 
HETATM   22  C1  UNL     1      25.970   5.715  49.371  1.00  0.00     0.077 C 
HETATM   23  F1  UNL     1      27.475   4.019  48.574  1.00  0.00    -0.187 F 
ENDBRANCH   1  21
TORSDOF 7
ENDMDL
MODEL 6
REMARK VINA RESULT:      -6.7      2.284      4.500
REMARK  7 active torsions:
REMARK  status: ('A' for Active; 'I' for Inactive)
REMARK    1  A    between atoms: C2_2  and  N1_4 
REMARK       I    between atoms: N1_4  and  C3_5 
REMARK       I    between atoms: C3_5  and  N2_7 
REMARK    2  A    between atoms: N2_7  and  C4_8 
REMARK    3  A    between atoms: N2_7  and  C8_12 
REMARK    4  A    between atoms: C4_8  and  C5_9 
REMARK    5  A    between atoms: C5_9  and  C6_10 
REMARK    6  A    between atoms: C8_12  and  C9_13 
REMARK    7  A    between atoms: C13_20  and  O2_21 
ROOT
HETATM    1  N1  UNL     1      21.918   0.580  53.598  1.00  0.00    -0.286 N 
HETATM    2  C3  UNL     1      23.209   0.058  53.359  1.00  0.00     0.324 C 
HETATM    3  O1  UNL     1      23.371  -1.196  53.222  1.00  0.00    -0.247 OA
HETATM    4  N2  UNL     1      24.496   0.635  53.219  1.00  0.00    -0.330 N 
HETATM    5  H3  UNL     1      21.957   1.616  53.676  1.00  0.00     0.172 HD
ENDROOT
BRANCH   4   6
HETATM    6  C4  UNL     1      25.534  -0.353  52.941  1.00  0.00     0.128 C 
BRANCH   6   7
HETATM    7  C5  UNL     1      26.668  -0.264  53.926  1.00  0.00     0.020 C 
BRANCH   7   8
HETATM    8  C6  UNL     1      27.965  -0.359  53.149  1.00  0.00    -0.003 C 
HETATM    9  C7  UNL     1      29.024   0.550  53.770  1.00  0.00     0.005 C 
ENDBRANCH   7   8
ENDBRANCH   6   7
ENDBRANCH   4   6
BRANCH   4  10
HETATM   10  C8  UNL     1      25.029   1.987  53.308  1.00  0.00     0.169 C 
BRANCH  10  11
HETATM   11  C9  UNL     1      25.037   2.714  52.021  1.00  0.00    -0.003 C 
HETATM   12  C10 UNL     1      23.860   3.049  51.457  1.00  0.00     0.036 C 
HETATM   13  C11 UNL     1      23.593   3.763  50.199  1.00  0.00     0.048 C 
HETATM   14 CL1  UNL     1      22.054   4.569  49.962  1.00  0.00    -0.083 Cl
HETATM   15  C12 UNL     1      24.498   3.812  49.229  1.00  0.00     0.026 C 
HETATM   16  P1  UNL     1      25.959   3.935  49.849  1.00  0.00     0.078 P 
HETATM   17 CL2  UNL     1      27.509   4.587  48.661  1.00  0.00    -0.083 Cl
HETATM   18  C13 UNL     1      26.169   3.145  51.233  1.00  0.00     0.097 C 
BRANCH  18  19
HETATM   19  O2  UNL     1      27.436   2.861  51.705  1.00  0.00    -0.358 OA
HETATM   20  H16 UNL     1      27.671   2.115  52.324  1.00  0.00     0.217 HD
ENDBRANCH  18  19
ENDBRANCH  10  11
ENDBRANCH   4  10
BRANCH   1  21
HETATM   21  C2  UNL     1      20.778  -0.258  53.697  1.00  0.00     0.182 C 
HETATM   22  C1  UNL     1      19.849  -0.022  52.781  1.00  0.00     0.077 C 
HETATM   23  F1  UNL     1      20.751  -1.185  54.681  1.00  0.00    -0.187 F 
ENDBRANCH   1  21
TORSDOF 7
ENDMDL
MODEL 7
REMARK VINA RESULT:      -6.6      3.382      5.433
REMARK  7 active torsions:
REMARK  status: ('A' for Active; 'I' for Inactive)
REMARK    1  A    between atoms: C2_2  and  N1_4 
REMARK       I    between atoms: N1_4  and  C3_5 
REMARK       I    between atoms: C3_5  and  N2_7 
REMARK    2  A    between atoms: N2_7  and  C4_8 
REMARK    3  A    between atoms: N2_7  and  C8_12 
REMARK    4  A    between atoms: C4_8  and  C5_9 
REMARK    5  A    between atoms: C5_9  and  C6_10 
REMARK    6  A    between atoms: C8_12  and  C9_13 
REMARK    7  A    between atoms: C13_20  and  O2_21 
ROOT
HETATM    1  N1  UNL     1      27.128   1.945  54.043  1.00  0.00    -0.286 N 
HETATM    2  C3  UNL     1      26.701   2.270  52.736  1.00  0.00     0.324 C 
HETATM    3  O1  UNL     1      27.513   2.181  51.762  1.00  0.00    -0.247 OA
HETATM    4  N2  UNL     1      25.475   2.714  52.180  1.00  0.00    -0.330 N 
HETATM    5  H3  UNL     1      26.345   2.062  54.717  1.00  0.00     0.172 HD
ENDROOT
BRANCH   4   6
HETATM    6  C4  UNL     1      25.535   2.882  50.732  1.00  0.00     0.128 C 
BRANCH   6   7
HETATM    7  C5  UNL     1      24.804   4.117  50.281  1.00  0.00     0.020 C 
BRANCH   7   8
HETATM    8  C6  UNL     1      25.808   5.032  49.611  1.00  0.00    -0.003 C 
HETATM    9  C7  UNL     1      27.013   4.231  49.122  1.00  0.00     0.005 C 
ENDBRANCH   7   8
ENDBRANCH   6   7
ENDBRANCH   4   6
BRANCH   4  10
HETATM   10  C8  UNL     1      24.169   3.063  52.723  1.00  0.00     0.169 C 
BRANCH  10  11
HETATM   11  C9  UNL     1      23.216   1.933  52.762  1.00  0.00    -0.003 C 
HETATM   12  C10 UNL     1      23.495   0.875  53.548  1.00  0.00     0.036 C 
HETATM   13  C11 UNL     1      22.725  -0.360  53.764  1.00  0.00     0.048 C 
HETATM   14 CL1  UNL     1      22.982  -1.306  55.218  1.00  0.00    -0.083 Cl
HETATM   15  C12 UNL     1      21.832  -0.780  52.877  1.00  0.00     0.026 C 
HETATM   16  P1  UNL     1      21.065   0.462  52.241  1.00  0.00     0.078 P 
HETATM   17 CL2  UNL     1      19.274   0.157  51.274  1.00  0.00    -0.083 Cl
HETATM   18  C13 UNL     1      21.966   1.781  52.054  1.00  0.00     0.097 C 
BRANCH  18  19
HETATM   19  O2  UNL     1      21.566   2.801  51.212  1.00  0.00    -0.358 OA
HETATM   20  H16 UNL     1      20.855   3.472  51.411  1.00  0.00     0.217 HD
ENDBRANCH  18  19
ENDBRANCH  10  11
ENDBRANCH   4  10
BRANCH   1  21
HETATM   21  C2  UNL     1      28.453   1.520  54.313  1.00  0.00     0.182 C 
HETATM   22  C1  UNL     1      28.578   0.213  54.496  1.00  0.00     0.077 C 
HETATM   23  F1  UNL     1      29.427   2.457  54.356  1.00  0.00    -0.187 F 
ENDBRANCH   1  21
TORSDOF 7
ENDMDL
MODEL 8
REMARK VINA RESULT:      -6.5      2.298      2.754
REMARK  7 active torsions:
REMARK  status: ('A' for Active; 'I' for Inactive)
REMARK    1  A    between atoms: C2_2  and  N1_4 
REMARK       I    between atoms: N1_4  and  C3_5 
REMARK       I    between atoms: C3_5  and  N2_7 
REMARK    2  A    between atoms: N2_7  and  C4_8 
REMARK    3  A    between atoms: N2_7  and  C8_12 
REMARK    4  A    between atoms: C4_8  and  C5_9 
REMARK    5  A    between atoms: C5_9  and  C6_10 
REMARK    6  A    between atoms: C8_12  and  C9_13 
REMARK    7  A    between atoms: C13_20  and  O2_21 
ROOT
HETATM    1  N1  UNL     1      27.587   1.923  52.487  1.00  0.00    -0.286 N 
HETATM    2  C3  UNL     1      26.244   2.119  52.878  1.00  0.00     0.324 C 
HETATM    3  O1  UNL     1      25.938   2.138  54.112  1.00  0.00    -0.247 OA
HETATM    4  N2  UNL     1      25.030   2.321  52.174  1.00  0.00    -0.330 N 
HETATM    5  H3  UNL     1      27.667   1.944  51.450  1.00  0.00     0.172 HD
ENDROOT
BRANCH   4   6
HETATM    6  C4  UNL     1      23.885   2.510  53.058  1.00  0.00     0.128 C 
BRANCH   6   7
HETATM    7  C5  UNL     1      22.669   1.776  52.563  1.00  0.00     0.020 C 
BRANCH   7   8
HETATM    8  C6  UNL     1      22.346   0.685  53.563  1.00  0.00    -0.003 C 
HETATM    9  C7  UNL     1      22.854  -0.665  53.059  1.00  0.00     0.005 C 
ENDBRANCH   7   8
ENDBRANCH   6   7
ENDBRANCH   4   6
BRANCH   4  10
HETATM   10  C8  UNL     1      24.656   2.363  50.767  1.00  0.00     0.169 C 
BRANCH  10  11
HETATM   11  C9  UNL     1      24.805   3.697  50.147  1.00  0.00    -0.003 C 
HETATM   12  C10 UNL     1      23.698   4.408  49.859  1.00  0.00     0.036 C 
HETATM   13  C11 UNL     1      23.572   5.740  49.248  1.00  0.00     0.048 C 
HETATM   14 CL1  UNL     1      22.110   6.677  49.491  1.00  0.00    -0.083 Cl
HETATM   15  C12 UNL     1      24.547   6.256  48.512  1.00  0.00     0.026 C 
HETATM   16  P1  UNL     1      25.963   5.857  49.120  1.00  0.00     0.078 P 
HETATM   17 CL2  UNL     1      27.636   6.925  48.573  1.00  0.00    -0.083 Cl
HETATM   18  C13 UNL     1      26.019   4.395  49.787  1.00  0.00     0.097 C 
BRANCH  18  19
HETATM   19  O2  UNL     1      27.226   3.771  50.033  1.00  0.00    -0.358 OA
HETATM   20  H16 UNL     1      28.055   4.220  50.359  1.00  0.00     0.217 HD
ENDBRANCH  18  19
ENDBRANCH  10  11
ENDBRANCH   4  10
BRANCH   1  21
HETATM   21  C2  UNL     1      28.624   1.739  53.436  1.00  0.00     0.182 C 
HETATM   22  C1  UNL     1      28.954   0.472  53.643  1.00  0.00     0.077 C 
HETATM   23  F1  UNL     1      29.158   2.837  54.018  1.00  0.00    -0.187 F 
ENDBRANCH   1  21
TORSDOF 7
ENDMDL
MODEL 9
REMARK VINA RESULT:      -6.5      2.075      2.265
REMARK  7 active torsions:
REMARK  status: ('A' for Active; 'I' for Inactive)
REMARK    1  A    between atoms: C2_2  and  N1_4 
REMARK       I    between atoms: N1_4  and  C3_5 
REMARK       I    between atoms: C3_5  and  N2_7 
REMARK    2  A    between atoms: N2_7  and  C4_8 
REMARK    3  A    between atoms: N2_7  and  C8_12 
REMARK    4  A    between atoms: C4_8  and  C5_9 
REMARK    5  A    between atoms: C5_9  and  C6_10 
REMARK    6  A    between atoms: C8_12  and  C9_13 
REMARK    7  A    between atoms: C13_20  and  O2_21 
ROOT
HETATM    1  N1  UNL     1      27.571   0.981  53.189  1.00  0.00    -0.286 N 
HETATM    2  C3  UNL     1      26.350   0.530  53.738  1.00  0.00     0.324 C 
HETATM    3  O1  UNL     1      26.309   0.115  54.939  1.00  0.00    -0.247 OA
HETATM    4  N2  UNL     1      25.028   0.412  53.240  1.00  0.00    -0.330 N 
HETATM    5  H3  UNL     1      27.431   1.293  52.207  1.00  0.00     0.172 HD
ENDROOT
BRANCH   4   6
HETATM    6  C4  UNL     1      24.089  -0.093  54.237  1.00  0.00     0.128 C 
BRANCH   6   7
HETATM    7  C5  UNL     1      23.048  -0.988  53.621  1.00  0.00     0.020 C 
BRANCH   7   8
HETATM    8  C6  UNL     1      21.933  -1.165  54.632  1.00  0.00    -0.003 C 
HETATM    9  C7  UNL     1      21.035   0.071  54.653  1.00  0.00     0.005 C 
ENDBRANCH   7   8
ENDBRANCH   6   7
ENDBRANCH   4   6
BRANCH   4  10
HETATM   10  C8  UNL     1      24.390   0.659  51.955  1.00  0.00     0.169 C 
BRANCH  10  11
HETATM   11  C9  UNL     1      23.761   1.992  51.844  1.00  0.00    -0.003 C 
HETATM   12  C10 UNL     1      22.416   2.075  51.813  1.00  0.00     0.036 C 
HETATM   13  C11 UNL     1      21.554   3.262  51.709  1.00  0.00     0.048 C 
HETATM   14 CL1  UNL     1      19.888   3.181  52.252  1.00  0.00    -0.083 Cl
HETATM   15  C12 UNL     1      22.009   4.404  51.209  1.00  0.00     0.026 C 
HETATM   16  P1  UNL     1      23.521   4.631  51.652  1.00  0.00     0.078 P 
HETATM   17 CL2  UNL     1      24.337   6.518  51.530  1.00  0.00    -0.083 Cl
HETATM   18  C13 UNL     1      24.396   3.287  51.763  1.00  0.00     0.097 C 
BRANCH  18  19
HETATM   19  O2  UNL     1      25.777   3.338  51.785  1.00  0.00    -0.358 OA
HETATM   20  H16 UNL     1      26.356   3.684  51.051  1.00  0.00     0.217 HD
ENDBRANCH  18  19
ENDBRANCH  10  11
ENDBRANCH   4  10
BRANCH   1  21
HETATM   21  C2  UNL     1      28.774   0.984  53.939  1.00  0.00     0.182 C 
HETATM   22  C1  UNL     1      29.223   2.194  54.243  1.00  0.00     0.077 C 
HETATM   23  F1  UNL     1      29.327  -0.207  54.262  1.00  0.00    -0.187 F 
ENDBRANCH   1  21
TORSDOF 7
ENDMDL
