MODEL 1
REMARK VINA RESULT:      -8.7      0.000      0.000
REMARK  5 active torsions:
REMARK  status: ('A' for Active; 'I' for Inactive)
REMARK    1  A    between atoms: C4_4  and  C5_5 
REMARK    2  A    between atoms: C5_5  and  O2_7 
REMARK    3  A    between atoms: C8_10  and  O3_11 
REMARK    4  A    between atoms: O3_11  and  C9_12 
REMARK    5  A    between atoms: C11_14  and  N1_15 
ROOT
HETATM    1  C9  UNL     1      24.885   3.205  50.841  1.00  0.00     0.174 A 
HETATM    2  C10 UNL     1      26.007   2.496  51.245  1.00  0.00     0.109 A 
HETATM    3  C11 UNL     1      26.069   1.711  52.367  1.00  0.00     0.135 A 
HETATM    4  N2  UNL     1      24.920   1.683  53.069  1.00  0.00    -0.224 NA
HETATM    5  C17 UNL     1      23.823   2.360  52.697  1.00  0.00     0.238 A 
HETATM    6  N3  UNL     1      23.775   3.125  51.595  1.00  0.00    -0.217 NA
ENDROOT
BRANCH   1   7
HETATM    7  O3  UNL     1      24.953   3.960  49.686  1.00  0.00    -0.291 OA
BRANCH   7   8
HETATM    8  C8  UNL     1      25.434   5.255  49.755  1.00  0.00     0.084 A 
HETATM    9  C2  UNL     1      26.636   5.709  49.259  1.00  0.00    -0.027 A 
HETATM   10  C1  UNL     1      27.527   4.748  48.592  1.00  0.00     0.051 C 
HETATM   11  C3  UNL     1      27.041   7.023  49.370  1.00  0.00     0.027 A 
HETATM   12  C4  UNL     1      26.235   7.956  50.000  1.00  0.00     0.038 A 
HETATM   13  C6  UNL     1      25.034   7.522  50.500  1.00  0.00     0.021 A 
HETATM   14  C7  UNL     1      24.617   6.195  50.392  1.00  0.00     0.039 A 
BRANCH  12  15
HETATM   15  C5  UNL     1      26.651   9.348  50.125  1.00  0.00     0.176 C 
HETATM   16  O1  UNL     1      26.210  10.222  49.333  1.00  0.00    -0.646 OA
BRANCH  15  17
HETATM   17  O2  UNL     1      27.541   9.709  51.128  1.00  0.00    -0.773 OA
HETATM   18  H5  UNL     1      27.369   9.461  52.108  1.00  0.00     0.167 HD
ENDBRANCH  15  17
ENDBRANCH  12  15
ENDBRANCH   7   8
ENDBRANCH   1   7
BRANCH   3  19
HETATM   19  N1  UNL     1      27.220   0.977  52.792  1.00  0.00    -0.336 N 
HETATM   20  C12 UNL     1      27.267  -0.420  52.706  1.00  0.00     0.120 A 
HETATM   21  C13 UNL     1      28.305  -1.169  53.083  1.00  0.00     0.087 A 
HETATM   22 CL1  UNL     1      28.331  -2.901  52.963  1.00  0.00    -0.080 Cl
HETATM   23  C14 UNL     1      29.488  -0.514  53.628  1.00  0.00     0.137 A 
HETATM   24  F1  UNL     1      30.616  -1.130  54.055  1.00  0.00    -0.205 F 
HETATM   25  C15 UNL     1      29.404   0.802  53.694  1.00  0.00     0.037 A 
HETATM   26  C16 UNL     1      28.330   1.742  53.316  1.00  0.00     0.160 A 
ENDBRANCH   3  19
TORSDOF 5
ENDMDL
MODEL 2
REMARK VINA RESULT:      -8.6      6.076      8.597
REMARK  5 active torsions:
REMARK  status: ('A' for Active; 'I' for Inactive)
REMARK    1  A    between atoms: C4_4  and  C5_5 
REMARK    2  A    between atoms: C5_5  and  O2_7 
REMARK    3  A    between atoms: C8_10  and  O3_11 
REMARK    4  A    between atoms: O3_11  and  C9_12 
REMARK    5  A    between atoms: C11_14  and  N1_15 
ROOT
HETATM    1  C9  UNL     1      23.039  -0.347  53.282  1.00  0.00     0.174 A 
HETATM    2  C10 UNL     1      21.706  -0.520  52.935  1.00  0.00     0.109 A 
HETATM    3  C11 UNL     1      20.769  -1.129  53.728  1.00  0.00     0.135 A 
HETATM    4  N2  UNL     1      21.258  -1.561  54.906  1.00  0.00    -0.224 NA
HETATM    5  C17 UNL     1      22.541  -1.404  55.263  1.00  0.00     0.238 A 
HETATM    6  N3  UNL     1      23.450  -0.805  54.477  1.00  0.00    -0.217 NA
ENDROOT
BRANCH   1   7
HETATM    7  O3  UNL     1      23.882   0.287  52.391  1.00  0.00    -0.291 OA
BRANCH   7   8
HETATM    8  C8  UNL     1      25.160   0.626  52.796  1.00  0.00     0.084 A 
HETATM    9  C2  UNL     1      25.574   1.858  53.250  1.00  0.00    -0.027 A 
HETATM   10  C1  UNL     1      24.590   2.949  53.316  1.00  0.00     0.051 C 
HETATM   11  C3  UNL     1      26.874   2.114  53.637  1.00  0.00     0.027 A 
HETATM   12  C4  UNL     1      27.833   1.117  53.581  1.00  0.00     0.038 A 
HETATM   13  C6  UNL     1      27.439  -0.118  53.131  1.00  0.00     0.021 A 
HETATM   14  C7  UNL     1      26.126  -0.384  52.738  1.00  0.00     0.039 A 
BRANCH  12  15
HETATM   15  C5  UNL     1      29.210   1.372  53.986  1.00  0.00     0.176 C 
HETATM   16  O1  UNL     1      29.478   2.297  54.797  1.00  0.00    -0.646 OA
BRANCH  15  17
HETATM   17  O2  UNL     1      30.232   0.588  53.470  1.00  0.00    -0.773 OA
HETATM   18  H5  UNL     1      31.211   0.746  53.733  1.00  0.00     0.167 HD
ENDBRANCH  15  17
ENDBRANCH  12  15
ENDBRANCH   7   8
ENDBRANCH   1   7
BRANCH   3  19
HETATM   19  N1  UNL     1      19.394  -1.313  53.380  1.00  0.00    -0.336 N 
HETATM   20  C12 UNL     1      18.708  -2.487  53.714  1.00  0.00     0.120 A 
HETATM   21  C13 UNL     1      17.428  -2.728  53.422  1.00  0.00     0.087 A 
HETATM   22 CL1  UNL     1      16.606  -4.196  53.851  1.00  0.00    -0.080 Cl
HETATM   23  C14 UNL     1      16.665  -1.715  52.703  1.00  0.00     0.137 A 
HETATM   24  F1  UNL     1      15.366  -1.807  52.333  1.00  0.00    -0.205 F 
HETATM   25  C15 UNL     1      17.347  -0.624  52.405  1.00  0.00     0.037 A 
HETATM   26  C16 UNL     1      18.748  -0.234  52.666  1.00  0.00     0.160 A 
ENDBRANCH   3  19
TORSDOF 5
ENDMDL
MODEL 3
REMARK VINA RESULT:      -8.4      1.402      2.042
REMARK  5 active torsions:
REMARK  status: ('A' for Active; 'I' for Inactive)
REMARK    1  A    between atoms: C4_4  and  C5_5 
REMARK    2  A    between atoms: C5_5  and  O2_7 
REMARK    3  A    between atoms: C8_10  and  O3_11 
REMARK    4  A    between atoms: O3_11  and  C9_12 
REMARK    5  A    between atoms: C11_14  and  N1_15 
ROOT
HETATM    1  C9  UNL     1      25.058   3.288  50.929  1.00  0.00     0.174 A 
HETATM    2  C10 UNL     1      26.117   2.471  51.300  1.00  0.00     0.109 A 
HETATM    3  C11 UNL     1      26.281   1.929  52.548  1.00  0.00     0.135 A 
HETATM    4  N2  UNL     1      25.305   2.261  53.413  1.00  0.00    -0.224 NA
HETATM    5  C17 UNL     1      24.272   3.049  53.077  1.00  0.00     0.238 A 
HETATM    6  N3  UNL     1      24.121   3.574  51.851  1.00  0.00    -0.217 NA
ENDROOT
BRANCH   1   7
HETATM    7  O3  UNL     1      25.009   3.770  49.636  1.00  0.00    -0.291 OA
BRANCH   7   8
HETATM    8  C8  UNL     1      25.914   4.738  49.243  1.00  0.00     0.084 A 
HETATM    9  C2  UNL     1      25.671   6.090  49.132  1.00  0.00    -0.027 A 
HETATM   10  C1  UNL     1      24.324   6.588  49.447  1.00  0.00     0.051 C 
HETATM   11  C3  UNL     1      26.635   6.992  48.731  1.00  0.00     0.027 A 
HETATM   12  C4  UNL     1      27.913   6.561  48.416  1.00  0.00     0.038 A 
HETATM   13  C6  UNL     1      28.174   5.218  48.521  1.00  0.00     0.021 A 
HETATM   14  C7  UNL     1      27.204   4.299  48.926  1.00  0.00     0.039 A 
BRANCH  12  15
HETATM   15  C5  UNL     1      28.942   7.503  47.990  1.00  0.00     0.176 C 
HETATM   16  O1  UNL     1      29.069   7.807  46.775  1.00  0.00    -0.646 OA
BRANCH  15  17
HETATM   17  O2  UNL     1      29.787   8.066  48.936  1.00  0.00    -0.773 OA
HETATM   18  H5  UNL     1      30.798   8.130  48.778  1.00  0.00     0.167 HD
ENDBRANCH  15  17
ENDBRANCH  12  15
ENDBRANCH   7   8
ENDBRANCH   1   7
BRANCH   3  19
HETATM   19  N1  UNL     1      27.369   1.087  52.940  1.00  0.00    -0.336 N 
HETATM   20  C12 UNL     1      27.316  -0.301  52.766  1.00  0.00     0.120 A 
HETATM   21  C13 UNL     1      28.290  -1.147  53.108  1.00  0.00     0.087 A 
HETATM   22 CL1  UNL     1      28.193  -2.865  52.879  1.00  0.00    -0.080 Cl
HETATM   23  C14 UNL     1      29.508  -0.615  53.707  1.00  0.00     0.137 A 
HETATM   24  F1  UNL     1      30.582  -1.337  54.107  1.00  0.00    -0.205 F 
HETATM   25  C15 UNL     1      29.520   0.697  53.855  1.00  0.00     0.037 A 
HETATM   26  C16 UNL     1      28.523   1.735  53.523  1.00  0.00     0.160 A 
ENDBRANCH   3  19
TORSDOF 5
ENDMDL
MODEL 4
REMARK VINA RESULT:      -8.3      2.487      3.199
REMARK  5 active torsions:
REMARK  status: ('A' for Active; 'I' for Inactive)
REMARK    1  A    between atoms: C4_4  and  C5_5 
REMARK    2  A    between atoms: C5_5  and  O2_7 
REMARK    3  A    between atoms: C8_10  and  O3_11 
REMARK    4  A    between atoms: O3_11  and  C9_12 
REMARK    5  A    between atoms: C11_14  and  N1_15 
ROOT
HETATM    1  C9  UNL     1      22.801   1.063  52.307  1.00  0.00     0.174 A 
HETATM    2  C10 UNL     1      24.174   0.874  52.376  1.00  0.00     0.109 A 
HETATM    3  C11 UNL     1      24.802   0.063  53.286  1.00  0.00     0.135 A 
HETATM    4  N2  UNL     1      23.957  -0.552  54.133  1.00  0.00    -0.224 NA
HETATM    5  C17 UNL     1      22.626  -0.385  54.085  1.00  0.00     0.238 A 
HETATM    6  N3  UNL     1      22.022   0.412  53.188  1.00  0.00    -0.217 NA
ENDROOT
BRANCH   1   7
HETATM    7  O3  UNL     1      22.293   1.908  51.339  1.00  0.00    -0.291 OA
BRANCH   7   8
HETATM    8  C8  UNL     1      22.861   3.157  51.169  1.00  0.00     0.084 A 
HETATM    9  C2  UNL     1      23.321   3.693  49.987  1.00  0.00    -0.027 A 
HETATM   10  C1  UNL     1      23.221   2.882  48.764  1.00  0.00     0.051 C 
HETATM   11  C3  UNL     1      23.877   4.953  49.903  1.00  0.00     0.027 A 
HETATM   12  C4  UNL     1      23.998   5.744  51.033  1.00  0.00     0.038 A 
HETATM   13  C6  UNL     1      23.546   5.227  52.221  1.00  0.00     0.021 A 
HETATM   14  C7  UNL     1      22.982   3.953  52.313  1.00  0.00     0.039 A 
BRANCH  12  15
HETATM   15  C5  UNL     1      24.585   7.077  50.960  1.00  0.00     0.176 C 
HETATM   16  O1  UNL     1      23.850   8.099  50.927  1.00  0.00    -0.646 OA
BRANCH  15  17
HETATM   17  O2  UNL     1      25.965   7.216  50.926  1.00  0.00    -0.773 OA
HETATM   18  H5  UNL     1      26.569   6.704  51.580  1.00  0.00     0.167 HD
ENDBRANCH  15  17
ENDBRANCH  12  15
ENDBRANCH   7   8
ENDBRANCH   1   7
BRANCH   3  19
HETATM   19  N1  UNL     1      26.216  -0.139  53.366  1.00  0.00    -0.336 N 
HETATM   20  C12 UNL     1      27.066   0.852  53.871  1.00  0.00     0.120 A 
HETATM   21  C13 UNL     1      28.392   0.735  53.975  1.00  0.00     0.087 A 
HETATM   22 CL1  UNL     1      29.418   1.984  54.607  1.00  0.00    -0.080 Cl
HETATM   23  C14 UNL     1      29.027  -0.502  53.538  1.00  0.00     0.137 A 
HETATM   24  F1  UNL     1      30.353  -0.776  53.577  1.00  0.00    -0.205 F 
HETATM   25  C15 UNL     1      28.192  -1.411  53.068  1.00  0.00     0.037 A 
HETATM   26  C16 UNL     1      26.725  -1.409  52.900  1.00  0.00     0.160 A 
ENDBRANCH   3  19
TORSDOF 5
ENDMDL
MODEL 5
REMARK VINA RESULT:      -8.3      4.308      7.890
REMARK  5 active torsions:
REMARK  status: ('A' for Active; 'I' for Inactive)
REMARK    1  A    between atoms: C4_4  and  C5_5 
REMARK    2  A    between atoms: C5_5  and  O2_7 
REMARK    3  A    between atoms: C8_10  and  O3_11 
REMARK    4  A    between atoms: O3_11  and  C9_12 
REMARK    5  A    between atoms: C11_14  and  N1_15 
ROOT
HETATM    1  C9  UNL     1      24.556   2.245  51.785  1.00  0.00     0.174 A 
HETATM    2  C10 UNL     1      25.278   3.254  51.162  1.00  0.00     0.109 A 
HETATM    3  C11 UNL     1      24.963   3.797  49.944  1.00  0.00     0.135 A 
HETATM    4  N2  UNL     1      23.865   3.259  49.382  1.00  0.00    -0.224 NA
HETATM    5  C17 UNL     1      23.151   2.284  49.965  1.00  0.00     0.238 A 
HETATM    6  N3  UNL     1      23.470   1.760  51.159  1.00  0.00    -0.217 NA
ENDROOT
BRANCH   1   7
HETATM    7  O3  UNL     1      24.980   1.785  53.016  1.00  0.00    -0.291 OA
BRANCH   7   8
HETATM    8  C8  UNL     1      26.003   0.857  53.073  1.00  0.00     0.084 A 
HETATM    9  C2  UNL     1      27.309   1.099  53.438  1.00  0.00    -0.027 A 
HETATM   10  C1  UNL     1      27.692   2.472  53.801  1.00  0.00     0.051 C 
HETATM   11  C3  UNL     1      28.272   0.112  53.468  1.00  0.00     0.027 A 
HETATM   12  C4  UNL     1      27.954  -1.191  53.123  1.00  0.00     0.038 A 
HETATM   13  C6  UNL     1      26.658  -1.452  52.757  1.00  0.00     0.021 A 
HETATM   14  C7  UNL     1      25.678  -0.458  52.724  1.00  0.00     0.039 A 
BRANCH  12  15
HETATM   15  C5  UNL     1      28.962  -2.245  53.150  1.00  0.00     0.176 C 
HETATM   16  O1  UNL     1      30.183  -1.961  53.272  1.00  0.00    -0.646 OA
BRANCH  15  17
HETATM   17  O2  UNL     1      28.568  -3.571  53.038  1.00  0.00    -0.773 OA
HETATM   18  H5  UNL     1      27.992  -4.019  53.760  1.00  0.00     0.167 HD
ENDBRANCH  15  17
ENDBRANCH  12  15
ENDBRANCH   7   8
ENDBRANCH   1   7
BRANCH   3  19
HETATM   19  N1  UNL     1      25.701   4.835  49.294  1.00  0.00    -0.336 N 
HETATM   20  C12 UNL     1      27.060   4.685  48.992  1.00  0.00     0.120 A 
HETATM   21  C13 UNL     1      27.810   5.610  48.388  1.00  0.00     0.087 A 
HETATM   22 CL1  UNL     1      29.494   5.391  48.028  1.00  0.00    -0.080 Cl
HETATM   23  C14 UNL     1      27.198   6.876  48.005  1.00  0.00     0.137 A 
HETATM   24  F1  UNL     1      27.820   7.909  47.390  1.00  0.00    -0.205 F 
HETATM   25  C15 UNL     1      25.917   6.979  48.308  1.00  0.00     0.037 A 
HETATM   26  C16 UNL     1      24.980   6.045  48.965  1.00  0.00     0.160 A 
ENDBRANCH   3  19
TORSDOF 5
ENDMDL
MODEL 6
REMARK VINA RESULT:      -8.2      2.082      3.010
REMARK  5 active torsions:
REMARK  status: ('A' for Active; 'I' for Inactive)
REMARK    1  A    between atoms: C4_4  and  C5_5 
REMARK    2  A    between atoms: C5_5  and  O2_7 
REMARK    3  A    between atoms: C8_10  and  O3_11 
REMARK    4  A    between atoms: O3_11  and  C9_12 
REMARK    5  A    between atoms: C11_14  and  N1_15 
ROOT
HETATM    1  C9  UNL     1      23.101   1.428  51.725  1.00  0.00     0.174 A 
HETATM    2  C10 UNL     1      24.449   1.181  51.944  1.00  0.00     0.109 A 
HETATM    3  C11 UNL     1      24.938   0.316  52.889  1.00  0.00     0.135 A 
HETATM    4  N2  UNL     1      23.978  -0.294  53.610  1.00  0.00    -0.224 NA
HETATM    5  C17 UNL     1      22.670  -0.072  53.415  1.00  0.00     0.238 A 
HETATM    6  N3  UNL     1      22.203   0.778  52.486  1.00  0.00    -0.217 NA
ENDROOT
BRANCH   1   7
HETATM    7  O3  UNL     1      22.739   2.324  50.739  1.00  0.00    -0.291 OA
BRANCH   7   8
HETATM    8  C8  UNL     1      23.486   3.476  50.568  1.00  0.00     0.084 A 
HETATM    9  C2  UNL     1      23.353   4.650  51.276  1.00  0.00    -0.027 A 
HETATM   10  C1  UNL     1      22.319   4.726  52.320  1.00  0.00     0.051 C 
HETATM   11  C3  UNL     1      24.142   5.757  51.042  1.00  0.00     0.027 A 
HETATM   12  C4  UNL     1      25.119   5.729  50.061  1.00  0.00     0.038 A 
HETATM   13  C6  UNL     1      25.266   4.568  49.346  1.00  0.00     0.021 A 
HETATM   14  C7  UNL     1      24.472   3.443  49.577  1.00  0.00     0.039 A 
BRANCH  12  15
HETATM   15  C5  UNL     1      25.960   6.891  49.802  1.00  0.00     0.176 C 
HETATM   16  O1  UNL     1      26.342   7.159  48.632  1.00  0.00    -0.646 OA
BRANCH  15  17
HETATM   17  O2  UNL     1      26.341   7.708  50.858  1.00  0.00    -0.773 OA
HETATM   18  H5  UNL     1      26.638   7.314  51.757  1.00  0.00     0.167 HD
ENDBRANCH  15  17
ENDBRANCH  12  15
ENDBRANCH   7   8
ENDBRANCH   1   7
BRANCH   3  19
HETATM   19  N1  UNL     1      26.325   0.055  53.123  1.00  0.00    -0.336 N 
HETATM   20  C12 UNL     1      27.177   1.045  53.628  1.00  0.00     0.120 A 
HETATM   21  C13 UNL     1      28.479   0.874  53.870  1.00  0.00     0.087 A 
HETATM   22 CL1  UNL     1      29.509   2.123  54.497  1.00  0.00    -0.080 Cl
HETATM   23  C14 UNL     1      29.083  -0.424  53.598  1.00  0.00     0.137 A 
HETATM   24  F1  UNL     1      30.382  -0.756  53.789  1.00  0.00    -0.205 F 
HETATM   25  C15 UNL     1      28.248  -1.329  53.123  1.00  0.00     0.037 A 
HETATM   26  C16 UNL     1      26.804  -1.273  52.813  1.00  0.00     0.160 A 
ENDBRANCH   3  19
TORSDOF 5
ENDMDL
MODEL 7
REMARK VINA RESULT:      -8.2      3.236      4.343
REMARK  5 active torsions:
REMARK  status: ('A' for Active; 'I' for Inactive)
REMARK    1  A    between atoms: C4_4  and  C5_5 
REMARK    2  A    between atoms: C5_5  and  O2_7 
REMARK    3  A    between atoms: C8_10  and  O3_11 
REMARK    4  A    between atoms: O3_11  and  C9_12 
REMARK    5  A    between atoms: C11_14  and  N1_15 
ROOT
HETATM    1  C9  UNL     1      25.486   2.952  50.557  1.00  0.00     0.174 A 
HETATM    2  C10 UNL     1      24.492   2.190  51.158  1.00  0.00     0.109 A 
HETATM    3  C11 UNL     1      24.710   1.273  52.152  1.00  0.00     0.135 A 
HETATM    4  N2  UNL     1      26.003   1.163  52.511  1.00  0.00    -0.224 NA
HETATM    5  C17 UNL     1      26.980   1.888  51.945  1.00  0.00     0.238 A 
HETATM    6  N3  UNL     1      26.754   2.785  50.972  1.00  0.00    -0.217 NA
ENDROOT
BRANCH   1   7
HETATM    7  O3  UNL     1      25.133   3.844  49.564  1.00  0.00    -0.291 OA
BRANCH   7   8
HETATM    8  C8  UNL     1      25.515   5.168  49.681  1.00  0.00     0.084 A 
HETATM    9  C2  UNL     1      24.946   6.115  50.503  1.00  0.00    -0.027 A 
HETATM   10  C1  UNL     1      23.811   5.717  51.351  1.00  0.00     0.051 C 
HETATM   11  C3  UNL     1      25.389   7.420  50.559  1.00  0.00     0.027 A 
HETATM   12  C4  UNL     1      26.448   7.836  49.770  1.00  0.00     0.038 A 
HETATM   13  C6  UNL     1      27.028   6.907  48.944  1.00  0.00     0.021 A 
HETATM   14  C7  UNL     1      26.585   5.585  48.882  1.00  0.00     0.039 A 
BRANCH  12  15
HETATM   15  C5  UNL     1      26.928   9.213  49.818  1.00  0.00     0.176 C 
HETATM   16  O1  UNL     1      26.943   9.923  48.779  1.00  0.00    -0.646 OA
BRANCH  15  17
HETATM   17  O2  UNL     1      27.371   9.741  51.023  1.00  0.00    -0.773 OA
HETATM   18  H5  UNL     1      26.780   9.725  51.862  1.00  0.00     0.167 HD
ENDBRANCH  15  17
ENDBRANCH  12  15
ENDBRANCH   7   8
ENDBRANCH   1   7
BRANCH   3  19
HETATM   19  N1  UNL     1      23.694   0.483  52.777  1.00  0.00    -0.336 N 
HETATM   20  C12 UNL     1      22.358   0.554  52.363  1.00  0.00     0.120 A 
HETATM   21  C13 UNL     1      21.360  -0.151  52.898  1.00  0.00     0.087 A 
HETATM   22 CL1  UNL     1      19.712  -0.039  52.361  1.00  0.00    -0.080 Cl
HETATM   23  C14 UNL     1      21.650  -1.067  53.994  1.00  0.00     0.137 A 
HETATM   24  F1  UNL     1      20.752  -1.848  54.641  1.00  0.00    -0.205 F 
HETATM   25  C15 UNL     1      22.919  -1.105  54.355  1.00  0.00     0.037 A 
HETATM   26  C16 UNL     1      24.109  -0.388  53.854  1.00  0.00     0.160 A 
ENDBRANCH   3  19
TORSDOF 5
ENDMDL
MODEL 8
REMARK VINA RESULT:      -8.2      5.127      8.203
REMARK  5 active torsions:
REMARK  status: ('A' for Active; 'I' for Inactive)
REMARK    1  A    between atoms: C4_4  and  C5_5 
REMARK    2  A    between atoms: C5_5  and  O2_7 
REMARK    3  A    between atoms: C8_10  and  O3_11 
REMARK    4  A    between atoms: O3_11  and  C9_12 
REMARK    5  A    between atoms: C11_14  and  N1_15 
ROOT
HETATM    1  C9  UNL     1      23.610   3.274  50.394  1.00  0.00     0.174 A 
HETATM    2  C10 UNL     1      24.740   3.758  49.749  1.00  0.00     0.109 A 
HETATM    3  C11 UNL     1      25.215   5.038  49.870  1.00  0.00     0.135 A 
HETATM    4  N2  UNL     1      24.477   5.813  50.686  1.00  0.00    -0.224 NA
HETATM    5  C17 UNL     1      23.381   5.367  51.319  1.00  0.00     0.238 A 
HETATM    6  N3  UNL     1      22.925   4.110  51.194  1.00  0.00    -0.217 NA
ENDROOT
BRANCH   1   7
HETATM    7  O3  UNL     1      23.237   1.960  50.188  1.00  0.00    -0.291 OA
BRANCH   7   8
HETATM    8  C8  UNL     1      22.874   1.184  51.273  1.00  0.00     0.084 A 
HETATM    9  C2  UNL     1      21.639   0.616  51.497  1.00  0.00    -0.027 A 
HETATM   10  C1  UNL     1      20.574   0.841  50.508  1.00  0.00     0.051 C 
HETATM   11  C3  UNL     1      21.359  -0.148  52.611  1.00  0.00     0.027 A 
HETATM   12  C4  UNL     1      22.332  -0.376  53.570  1.00  0.00     0.038 A 
HETATM   13  C6  UNL     1      23.568   0.183  53.364  1.00  0.00     0.021 A 
HETATM   14  C7  UNL     1      23.859   0.956  52.239  1.00  0.00     0.039 A 
BRANCH  12  15
HETATM   15  C5  UNL     1      22.050  -1.181  54.752  1.00  0.00     0.176 C 
HETATM   16  O1  UNL     1      22.935  -1.363  55.630  1.00  0.00    -0.646 OA
BRANCH  15  17
HETATM   17  O2  UNL     1      20.794  -1.750  54.908  1.00  0.00    -0.773 OA
HETATM   18  H5  UNL     1      20.094  -1.334  55.532  1.00  0.00     0.167 HD
ENDBRANCH  15  17
ENDBRANCH  12  15
ENDBRANCH   7   8
ENDBRANCH   1   7
BRANCH   3  19
HETATM   19  N1  UNL     1      26.378   5.546  49.210  1.00  0.00    -0.336 N 
HETATM   20  C12 UNL     1      26.484   6.897  48.856  1.00  0.00     0.120 A 
HETATM   21  C13 UNL     1      27.535   7.440  48.240  1.00  0.00     0.087 A 
HETATM   22 CL1  UNL     1      27.635   9.121  47.814  1.00  0.00    -0.080 Cl
HETATM   23  C14 UNL     1      28.670   6.591  47.898  1.00  0.00     0.137 A 
HETATM   24  F1  UNL     1      29.805   6.988  47.275  1.00  0.00    -0.205 F 
HETATM   25  C15 UNL     1      28.532   5.325  48.247  1.00  0.00     0.037 A 
HETATM   26  C16 UNL     1      27.436   4.603  48.925  1.00  0.00     0.160 A 
ENDBRANCH   3  19
TORSDOF 5
ENDMDL
MODEL 9
REMARK VINA RESULT:      -8.1      4.839      8.214
REMARK  5 active torsions:
REMARK  status: ('A' for Active; 'I' for Inactive)
REMARK    1  A    between atoms: C4_4  and  C5_5 
REMARK    2  A    between atoms: C5_5  and  O2_7 
REMARK    3  A    between atoms: C8_10  and  O3_11 
REMARK    4  A    between atoms: O3_11  and  C9_12 
REMARK    5  A    between atoms: C11_14  and  N1_15 
ROOT
HETATM    1  C9  UNL     1      23.667   3.404  50.652  1.00  0.00     0.174 A 
HETATM    2  C10 UNL     1      24.743   4.028  50.037  1.00  0.00     0.109 A 
HETATM    3  C11 UNL     1      25.046   5.359  50.162  1.00  0.00     0.135 A 
HETATM    4  N2  UNL     1      24.191   6.034  50.952  1.00  0.00    -0.224 NA
HETATM    5  C17 UNL     1      23.144   5.452  51.557  1.00  0.00     0.238 A 
HETATM    6  N3  UNL     1      22.858   4.147  51.428  1.00  0.00    -0.217 NA
ENDROOT
BRANCH   1   7
HETATM    7  O3  UNL     1      23.472   2.053  50.445  1.00  0.00    -0.291 OA
BRANCH   7   8
HETATM    8  C8  UNL     1      23.204   1.236  51.528  1.00  0.00     0.084 A 
HETATM    9  C2  UNL     1      24.120   0.755  52.436  1.00  0.00    -0.027 A 
HETATM   10  C1  UNL     1      25.535   1.118  52.265  1.00  0.00     0.051 C 
HETATM   11  C3  UNL     1      23.768  -0.059  53.494  1.00  0.00     0.027 A 
HETATM   12  C4  UNL     1      22.448  -0.432  53.684  1.00  0.00     0.038 A 
HETATM   13  C6  UNL     1      21.521   0.038  52.788  1.00  0.00     0.021 A 
HETATM   14  C7  UNL     1      21.870   0.862  51.717  1.00  0.00     0.039 A 
BRANCH  12  15
HETATM   15  C5  UNL     1      22.061  -1.291  54.796  1.00  0.00     0.176 C 
HETATM   16  O1  UNL     1      22.898  -1.609  55.682  1.00  0.00    -0.646 OA
BRANCH  15  17
HETATM   17  O2  UNL     1      20.758  -1.762  54.876  1.00  0.00    -0.773 OA
HETATM   18  H5  UNL     1      19.972  -1.225  54.491  1.00  0.00     0.167 HD
ENDBRANCH  15  17
ENDBRANCH  12  15
ENDBRANCH   7   8
ENDBRANCH   1   7
BRANCH   3  19
HETATM   19  N1  UNL     1      26.152   6.011  49.532  1.00  0.00    -0.336 N 
HETATM   20  C12 UNL     1      26.333   7.396  49.629  1.00  0.00     0.120 A 
HETATM   21  C13 UNL     1      27.339   8.071  49.068  1.00  0.00     0.087 A 
HETATM   22 CL1  UNL     1      27.535   9.791  49.208  1.00  0.00    -0.080 Cl
HETATM   23  C14 UNL     1      28.334   7.341  48.292  1.00  0.00     0.137 A 
HETATM   24  F1  UNL     1      29.407   7.877  47.663  1.00  0.00    -0.205 F 
HETATM   25  C15 UNL     1      28.127   6.039  48.223  1.00  0.00     0.037 A 
HETATM   26  C16 UNL     1      27.070   5.176  48.789  1.00  0.00     0.160 A 
ENDBRANCH   3  19
TORSDOF 5
ENDMDL
