MODEL 1
REMARK VINA RESULT:      -7.6      0.000      0.000
REMARK  3 active torsions:
REMARK  status: ('A' for Active; 'I' for Inactive)
REMARK    1  A    between atoms: C2_2  and  C3_3 
REMARK       I    between atoms: C3_3  and  N1_5 
REMARK    2  A    between atoms: N1_5  and  C4_6 
REMARK    3  A    between atoms: C8_11  and  C9_12 
ROOT
HETATM    1  C4  UNL     1      25.393  -0.518  53.713  1.00  0.00     0.061 A 
HETATM    2  C5  UNL     1      24.413  -1.111  54.336  1.00  0.00     0.036 A 
HETATM    3  C6  UNL     1      23.535  -0.263  53.877  1.00  0.00     0.082 A 
HETATM    4  N2  UNL     1      22.206   0.240  53.758  1.00  0.00    -0.262 NA
HETATM    5  C7  UNL     1      21.948   1.292  53.031  1.00  0.00     0.103 A 
HETATM    6  C8  UNL     1      22.894   2.141  52.224  1.00  0.00     0.083 A 
HETATM    7  C15 UNL     1      24.238   1.565  52.394  1.00  0.00     0.004 A 
HETATM    8  C16 UNL     1      24.524   0.499  53.127  1.00  0.00     0.019 A 
ENDROOT
BRANCH   6   9
HETATM    9  C9  UNL     1      22.417   2.048  50.812  1.00  0.00    -0.044 A 
HETATM   10  C10 UNL     1      21.805   0.895  50.334  1.00  0.00     0.008 A 
HETATM   11  C11 UNL     1      21.379   0.853  49.020  1.00  0.00     0.002 A 
HETATM   12  C12 UNL     1      21.567   1.962  48.192  1.00  0.00     0.019 A 
HETATM   13  C13 UNL     1      22.177   3.107  48.679  1.00  0.00     0.011 A 
HETATM   14 BR1  UNL     1      22.427   4.617  47.538  1.00  0.00    -0.051 Br
HETATM   15  C14 UNL     1      22.609   3.163  49.993  1.00  0.00     0.027 A 
ENDBRANCH   6   9
BRANCH   1  16
HETATM   16  N1  UNL     1      26.789  -0.784  53.644  1.00  0.00    -0.322 N 
HETATM   17  C3  UNL     1      27.703   0.047  54.350  1.00  0.00     0.244 C 
HETATM   18  O1  UNL     1      27.345   1.030  55.053  1.00  0.00    -0.268 OA
HETATM   19  H4  UNL     1      27.155  -1.586  53.077  1.00  0.00     0.169 HD
BRANCH  17  20
HETATM   20  C2  UNL     1      29.122  -0.273  54.242  1.00  0.00     0.064 C 
HETATM   21  C1  UNL     1      29.595  -1.227  53.456  1.00  0.00     0.017 C 
ENDBRANCH  17  20
ENDBRANCH   1  16
TORSDOF 3
ENDMDL
MODEL 2
REMARK VINA RESULT:      -7.5      3.650      4.755
REMARK  3 active torsions:
REMARK  status: ('A' for Active; 'I' for Inactive)
REMARK    1  A    between atoms: C2_2  and  C3_3 
REMARK       I    between atoms: C3_3  and  N1_5 
REMARK    2  A    between atoms: N1_5  and  C4_6 
REMARK    3  A    between atoms: C8_11  and  C9_12 
ROOT
HETATM    1  C4  UNL     1      26.237   2.190  51.484  1.00  0.00     0.061 A 
HETATM    2  C5  UNL     1      26.706   1.000  51.737  1.00  0.00     0.036 A 
HETATM    3  C6  UNL     1      25.605   0.632  52.331  1.00  0.00     0.082 A 
HETATM    4  N2  UNL     1      24.799  -0.320  53.022  1.00  0.00    -0.262 NA
HETATM    5  C7  UNL     1      23.590  -0.022  53.411  1.00  0.00     0.103 A 
HETATM    6  C8  UNL     1      22.831   1.268  53.240  1.00  0.00     0.083 A 
HETATM    7  C15 UNL     1      23.721   2.196  52.523  1.00  0.00     0.004 A 
HETATM    8  C16 UNL     1      24.951   1.916  52.119  1.00  0.00     0.019 A 
ENDROOT
BRANCH   6   9
HETATM    9  C9  UNL     1      21.619   0.921  52.441  1.00  0.00    -0.044 A 
HETATM   10  C10 UNL     1      21.492   1.319  51.116  1.00  0.00     0.008 A 
HETATM   11  C11 UNL     1      20.353   0.976  50.414  1.00  0.00     0.002 A 
HETATM   12  C12 UNL     1      19.346   0.238  51.040  1.00  0.00     0.019 A 
HETATM   13  C13 UNL     1      19.483  -0.155  52.362  1.00  0.00     0.011 A 
HETATM   14 BR1  UNL     1      18.100  -1.166  53.207  1.00  0.00    -0.051 Br
HETATM   15  C14 UNL     1      20.619   0.182  53.077  1.00  0.00     0.027 A 
ENDBRANCH   6   9
BRANCH   1  16
HETATM   16  N1  UNL     1      26.793   3.323  50.827  1.00  0.00    -0.322 N 
HETATM   17  C3  UNL     1      26.152   3.859  49.677  1.00  0.00     0.244 C 
HETATM   18  O1  UNL     1      25.091   3.382  49.188  1.00  0.00    -0.268 OA
HETATM   19  H4  UNL     1      27.674   3.769  51.180  1.00  0.00     0.169 HD
BRANCH  17  20
HETATM   20  C2  UNL     1      26.766   5.021  49.044  1.00  0.00     0.064 C 
HETATM   21  C1  UNL     1      27.992   5.011  48.543  1.00  0.00     0.017 C 
ENDBRANCH  17  20
ENDBRANCH   1  16
TORSDOF 3
ENDMDL
MODEL 3
REMARK VINA RESULT:      -7.5      2.812      3.764
REMARK  3 active torsions:
REMARK  status: ('A' for Active; 'I' for Inactive)
REMARK    1  A    between atoms: C2_2  and  C3_3 
REMARK       I    between atoms: C3_3  and  N1_5 
REMARK    2  A    between atoms: N1_5  and  C4_6 
REMARK    3  A    between atoms: C8_11  and  C9_12 
ROOT
HETATM    1  C4  UNL     1      26.783   1.317  52.999  1.00  0.00     0.061 A 
HETATM    2  C5  UNL     1      26.588   2.475  53.564  1.00  0.00     0.036 A 
HETATM    3  C6  UNL     1      25.325   2.482  53.240  1.00  0.00     0.082 A 
HETATM    4  N2  UNL     1      24.029   3.077  53.220  1.00  0.00    -0.262 NA
HETATM    5  C7  UNL     1      23.024   2.479  52.641  1.00  0.00     0.103 A 
HETATM    6  C8  UNL     1      22.994   1.153  51.928  1.00  0.00     0.083 A 
HETATM    7  C15 UNL     1      24.358   0.602  51.990  1.00  0.00     0.004 A 
HETATM    8  C16 UNL     1      25.392   1.191  52.571  1.00  0.00     0.019 A 
ENDROOT
BRANCH   6   9
HETATM    9  C9  UNL     1      22.014   0.313  52.679  1.00  0.00    -0.044 A 
HETATM   10  C10 UNL     1      22.399  -0.414  53.800  1.00  0.00     0.008 A 
HETATM   11  C11 UNL     1      21.459  -1.178  54.464  1.00  0.00     0.002 A 
HETATM   12  C12 UNL     1      20.141  -1.212  54.005  1.00  0.00     0.019 A 
HETATM   13  C13 UNL     1      19.767  -0.484  52.888  1.00  0.00     0.011 A 
HETATM   14 BR1  UNL     1      17.960  -0.538  52.271  1.00  0.00    -0.051 Br
HETATM   15  C14 UNL     1      20.698   0.286  52.212  1.00  0.00     0.027 A 
ENDBRANCH   6   9
BRANCH   1  16
HETATM   16  N1  UNL     1      27.937   0.496  52.863  1.00  0.00    -0.322 N 
HETATM   17  C3  UNL     1      28.608   0.020  54.024  1.00  0.00     0.244 C 
HETATM   18  O1  UNL     1      28.234   0.286  55.198  1.00  0.00    -0.268 OA
HETATM   19  H4  UNL     1      28.302   0.236  51.915  1.00  0.00     0.169 HD
BRANCH  17  20
HETATM   20  C2  UNL     1      29.785  -0.818  53.824  1.00  0.00     0.064 C 
HETATM   21  C1  UNL     1      29.721  -2.075  53.414  1.00  0.00     0.017 C 
ENDBRANCH  17  20
ENDBRANCH   1  16
TORSDOF 3
ENDMDL
MODEL 4
REMARK VINA RESULT:      -7.5      7.925      9.005
REMARK  3 active torsions:
REMARK  status: ('A' for Active; 'I' for Inactive)
REMARK    1  A    between atoms: C2_2  and  C3_3 
REMARK       I    between atoms: C3_3  and  N1_5 
REMARK    2  A    between atoms: N1_5  and  C4_6 
REMARK    3  A    between atoms: C8_11  and  C9_12 
ROOT
HETATM    1  C4  UNL     1      32.113   6.086  48.842  1.00  0.00     0.061 A 
HETATM    2  C5  UNL     1      32.143   7.297  49.324  1.00  0.00     0.036 A 
HETATM    3  C6  UNL     1      30.893   7.508  49.021  1.00  0.00     0.082 A 
HETATM    4  N2  UNL     1      29.723   8.322  48.978  1.00  0.00    -0.262 NA
HETATM    5  C7  UNL     1      28.611   7.875  48.461  1.00  0.00     0.103 A 
HETATM    6  C8  UNL     1      28.325   6.530  47.848  1.00  0.00     0.083 A 
HETATM    7  C15 UNL     1      29.572   5.749  47.927  1.00  0.00     0.004 A 
HETATM    8  C16 UNL     1      30.710   6.182  48.447  1.00  0.00     0.019 A 
ENDROOT
BRANCH   6   9
HETATM    9  C9  UNL     1      27.234   5.933  48.674  1.00  0.00    -0.044 A 
HETATM   10  C10 UNL     1      27.161   4.561  48.885  1.00  0.00     0.008 A 
HETATM   11  C11 UNL     1      26.134   4.052  49.656  1.00  0.00     0.002 A 
HETATM   12  C12 UNL     1      25.187   4.914  50.211  1.00  0.00     0.019 A 
HETATM   13  C13 UNL     1      25.269   6.280  49.995  1.00  0.00     0.011 A 
HETATM   14 BR1  UNL     1      23.968   7.450  50.760  1.00  0.00    -0.051 Br
HETATM   15  C14 UNL     1      26.292   6.805  49.224  1.00  0.00     0.027 A 
ENDBRANCH   6   9
BRANCH   1  16
HETATM   16  N1  UNL     1      33.099   5.064  48.747  1.00  0.00    -0.322 N 
HETATM   17  C3  UNL     1      33.575   4.657  47.470  1.00  0.00     0.244 C 
HETATM   18  O1  UNL     1      33.169   5.158  46.386  1.00  0.00    -0.268 OA
HETATM   19  H4  UNL     1      33.480   4.604  49.608  1.00  0.00     0.169 HD
BRANCH  17  20
HETATM   20  C2  UNL     1      34.585   3.605  47.433  1.00  0.00     0.064 C 
HETATM   21  C1  UNL     1      35.185   3.214  46.320  1.00  0.00     0.017 C 
ENDBRANCH  17  20
ENDBRANCH   1  16
TORSDOF 3
ENDMDL
MODEL 5
REMARK VINA RESULT:      -7.3      1.923      2.098
REMARK  3 active torsions:
REMARK  status: ('A' for Active; 'I' for Inactive)
REMARK    1  A    between atoms: C2_2  and  C3_3 
REMARK       I    between atoms: C3_3  and  N1_5 
REMARK    2  A    between atoms: N1_5  and  C4_6 
REMARK    3  A    between atoms: C8_11  and  C9_12 
ROOT
HETATM    1  C4  UNL     1      26.645   1.242  53.093  1.00  0.00     0.061 A 
HETATM    2  C5  UNL     1      25.963   1.691  54.109  1.00  0.00     0.036 A 
HETATM    3  C6  UNL     1      25.219   2.444  53.348  1.00  0.00     0.082 A 
HETATM    4  N2  UNL     1      24.168   3.385  53.143  1.00  0.00    -0.262 NA
HETATM    5  C7  UNL     1      23.871   3.811  51.945  1.00  0.00     0.103 A 
HETATM    6  C8  UNL     1      24.502   3.447  50.628  1.00  0.00     0.083 A 
HETATM    7  C15 UNL     1      25.573   2.477  50.918  1.00  0.00     0.004 A 
HETATM    8  C16 UNL     1      25.891   2.032  52.124  1.00  0.00     0.019 A 
ENDROOT
BRANCH   6   9
HETATM    9  C9  UNL     1      23.409   2.848  49.807  1.00  0.00    -0.044 A 
HETATM   10  C10 UNL     1      22.699   1.739  50.253  1.00  0.00     0.008 A 
HETATM   11  C11 UNL     1      21.695   1.218  49.461  1.00  0.00     0.002 A 
HETATM   12  C12 UNL     1      21.405   1.805  48.228  1.00  0.00     0.019 A 
HETATM   13  C13 UNL     1      22.118   2.911  47.793  1.00  0.00     0.011 A 
HETATM   14 BR1  UNL     1      21.712   3.707  46.105  1.00  0.00    -0.051 Br
HETATM   15  C14 UNL     1      23.127   3.444  48.576  1.00  0.00     0.027 A 
ENDBRANCH   6   9
BRANCH   1  16
HETATM   16  N1  UNL     1      27.724   0.319  52.991  1.00  0.00    -0.322 N 
HETATM   17  C3  UNL     1      28.876   0.484  53.809  1.00  0.00     0.244 C 
HETATM   18  O1  UNL     1      29.005   1.421  54.644  1.00  0.00    -0.268 OA
HETATM   19  H4  UNL     1      27.682  -0.483  52.318  1.00  0.00     0.169 HD
BRANCH  17  20
HETATM   20  C2  UNL     1      29.950  -0.491  53.662  1.00  0.00     0.064 C 
HETATM   21  C1  UNL     1      29.739  -1.770  53.396  1.00  0.00     0.017 C 
ENDBRANCH  17  20
ENDBRANCH   1  16
TORSDOF 3
ENDMDL
MODEL 6
REMARK VINA RESULT:      -7.3      2.021      2.435
REMARK  3 active torsions:
REMARK  status: ('A' for Active; 'I' for Inactive)
REMARK    1  A    between atoms: C2_2  and  C3_3 
REMARK       I    between atoms: C3_3  and  N1_5 
REMARK    2  A    between atoms: N1_5  and  C4_6 
REMARK    3  A    between atoms: C8_11  and  C9_12 
ROOT
HETATM    1  C4  UNL     1      25.271   0.028  53.770  1.00  0.00     0.061 A 
HETATM    2  C5  UNL     1      24.232  -0.697  53.465  1.00  0.00     0.036 A 
HETATM    3  C6  UNL     1      23.557   0.341  53.059  1.00  0.00     0.082 A 
HETATM    4  N2  UNL     1      22.389   0.958  52.520  1.00  0.00    -0.262 NA
HETATM    5  C7  UNL     1      22.339   2.247  52.322  1.00  0.00     0.103 A 
HETATM    6  C8  UNL     1      23.395   3.287  52.588  1.00  0.00     0.083 A 
HETATM    7  C15 UNL     1      24.563   2.580  53.141  1.00  0.00     0.004 A 
HETATM    8  C16 UNL     1      24.636   1.275  53.350  1.00  0.00     0.019 A 
ENDROOT
BRANCH   6   9
HETATM    9  C9  UNL     1      23.690   3.912  51.265  1.00  0.00    -0.044 A 
HETATM   10  C10 UNL     1      22.677   4.461  50.487  1.00  0.00     0.008 A 
HETATM   11  C11 UNL     1      22.995   5.029  49.269  1.00  0.00     0.002 A 
HETATM   12  C12 UNL     1      24.322   5.046  48.834  1.00  0.00     0.019 A 
HETATM   13  C13 UNL     1      25.324   4.497  49.618  1.00  0.00     0.011 A 
HETATM   14 BR1  UNL     1      27.136   4.527  49.013  1.00  0.00    -0.051 Br
HETATM   15  C14 UNL     1      25.020   3.924  50.841  1.00  0.00     0.027 A 
ENDBRANCH   6   9
BRANCH   1  16
HETATM   16  N1  UNL     1      26.546  -0.298  54.310  1.00  0.00    -0.322 N 
HETATM   17  C3  UNL     1      27.727   0.097  53.623  1.00  0.00     0.244 C 
HETATM   18  O1  UNL     1      27.717   0.736  52.536  1.00  0.00    -0.268 OA
HETATM   19  H4  UNL     1      26.628  -0.828  55.211  1.00  0.00     0.169 HD
BRANCH  17  20
HETATM   20  C2  UNL     1      29.007  -0.264  54.223  1.00  0.00     0.064 C 
HETATM   21  C1  UNL     1      29.902  -1.030  53.619  1.00  0.00     0.017 C 
ENDBRANCH  17  20
ENDBRANCH   1  16
TORSDOF 3
ENDMDL
MODEL 7
REMARK VINA RESULT:      -7.2      6.099      7.362
REMARK  3 active torsions:
REMARK  status: ('A' for Active; 'I' for Inactive)
REMARK    1  A    between atoms: C2_2  and  C3_3 
REMARK       I    between atoms: C3_3  and  N1_5 
REMARK    2  A    between atoms: N1_5  and  C4_6 
REMARK    3  A    between atoms: C8_11  and  C9_12 
ROOT
HETATM    1  C4  UNL     1      28.793   5.581  48.157  1.00  0.00     0.061 A 
HETATM    2  C5  UNL     1      28.205   6.733  48.322  1.00  0.00     0.036 A 
HETATM    3  C6  UNL     1      27.132   6.177  48.811  1.00  0.00     0.082 A 
HETATM    4  N2  UNL     1      25.817   6.235  49.359  1.00  0.00    -0.262 NA
HETATM    5  C7  UNL     1      25.183   5.147  49.702  1.00  0.00     0.103 A 
HETATM    6  C8  UNL     1      25.642   3.716  49.613  1.00  0.00     0.083 A 
HETATM    7  C15 UNL     1      26.999   3.735  49.042  1.00  0.00     0.004 A 
HETATM    8  C16 UNL     1      27.661   4.826  48.686  1.00  0.00     0.019 A 
ENDROOT
BRANCH   6   9
HETATM    9  C9  UNL     1      25.628   3.198  51.014  1.00  0.00    -0.044 A 
HETATM   10  C10 UNL     1      24.513   3.356  51.828  1.00  0.00     0.008 A 
HETATM   11  C11 UNL     1      24.544   2.862  53.117  1.00  0.00     0.002 A 
HETATM   12  C12 UNL     1      25.688   2.213  53.586  1.00  0.00     0.019 A 
HETATM   13  C13 UNL     1      26.794   2.060  52.766  1.00  0.00     0.011 A 
HETATM   14 BR1  UNL     1      28.353   1.170  53.418  1.00  0.00    -0.051 Br
HETATM   15  C14 UNL     1      26.777   2.551  51.472  1.00  0.00     0.027 A 
ENDBRANCH   6   9
BRANCH   1  16
HETATM   16  N1  UNL     1      30.071   5.218  47.648  1.00  0.00    -0.322 N 
HETATM   17  C3  UNL     1      31.211   5.264  48.498  1.00  0.00     0.244 C 
HETATM   18  O1  UNL     1      31.159   5.614  49.709  1.00  0.00    -0.268 OA
HETATM   19  H4  UNL     1      30.186   4.918  46.650  1.00  0.00     0.169 HD
BRANCH  17  20
HETATM   20  C2  UNL     1      32.495   4.882  47.922  1.00  0.00     0.064 C 
HETATM   21  C1  UNL     1      32.650   3.843  47.117  1.00  0.00     0.017 C 
ENDBRANCH  17  20
ENDBRANCH   1  16
TORSDOF 3
ENDMDL
MODEL 8
REMARK VINA RESULT:      -7.1      4.751      6.621
REMARK  3 active torsions:
REMARK  status: ('A' for Active; 'I' for Inactive)
REMARK    1  A    between atoms: C2_2  and  C3_3 
REMARK       I    between atoms: C3_3  and  N1_5 
REMARK    2  A    between atoms: N1_5  and  C4_6 
REMARK    3  A    between atoms: C8_11  and  C9_12 
ROOT
HETATM    1  C4  UNL     1      25.331   5.779  50.262  1.00  0.00     0.061 A 
HETATM    2  C5  UNL     1      24.403   6.434  50.901  1.00  0.00     0.036 A 
HETATM    3  C6  UNL     1      23.700   5.354  51.100  1.00  0.00     0.082 A 
HETATM    4  N2  UNL     1      22.563   4.662  51.613  1.00  0.00    -0.262 NA
HETATM    5  C7  UNL     1      22.431   3.374  51.453  1.00  0.00     0.103 A 
HETATM    6  C8  UNL     1      23.354   2.406  50.761  1.00  0.00     0.083 A 
HETATM    7  C15 UNL     1      24.498   3.188  50.261  1.00  0.00     0.004 A 
HETATM    8  C16 UNL     1      24.652   4.494  50.410  1.00  0.00     0.019 A 
ENDROOT
BRANCH   6   9
HETATM    9  C9  UNL     1      23.761   1.418  51.804  1.00  0.00    -0.044 A 
HETATM   10  C10 UNL     1      25.097   1.094  52.005  1.00  0.00     0.008 A 
HETATM   11  C11 UNL     1      25.428   0.175  52.981  1.00  0.00     0.002 A 
HETATM   12  C12 UNL     1      24.424  -0.415  53.751  1.00  0.00     0.019 A 
HETATM   13  C13 UNL     1      23.094  -0.084  53.544  1.00  0.00     0.011 A 
HETATM   14 BR1  UNL     1      21.729  -0.896  54.604  1.00  0.00    -0.051 Br
HETATM   15  C14 UNL     1      22.748   0.836  52.568  1.00  0.00     0.027 A 
ENDBRANCH   6   9
BRANCH   1  16
HETATM   16  N1  UNL     1      26.550   6.188  49.653  1.00  0.00    -0.322 N 
HETATM   17  C3  UNL     1      26.527   6.819  48.378  1.00  0.00     0.244 C 
HETATM   18  O1  UNL     1      25.466   7.046  47.736  1.00  0.00    -0.268 OA
HETATM   19  H4  UNL     1      27.469   6.029  50.131  1.00  0.00     0.169 HD
BRANCH  17  20
HETATM   20  C2  UNL     1      27.807   7.216  47.802  1.00  0.00     0.064 C 
HETATM   21  C1  UNL     1      28.888   6.453  47.837  1.00  0.00     0.017 C 
ENDBRANCH  17  20
ENDBRANCH   1  16
TORSDOF 3
ENDMDL
MODEL 9
REMARK VINA RESULT:      -7.1      4.239      6.287
REMARK  3 active torsions:
REMARK  status: ('A' for Active; 'I' for Inactive)
REMARK    1  A    between atoms: C2_2  and  C3_3 
REMARK       I    between atoms: C3_3  and  N1_5 
REMARK    2  A    between atoms: N1_5  and  C4_6 
REMARK    3  A    between atoms: C8_11  and  C9_12 
ROOT
HETATM    1  C4  UNL     1      24.421   5.094  50.943  1.00  0.00     0.061 A 
HETATM    2  C5  UNL     1      23.344   5.625  51.449  1.00  0.00     0.036 A 
HETATM    3  C6  UNL     1      22.804   4.459  51.667  1.00  0.00     0.082 A 
HETATM    4  N2  UNL     1      21.745   3.623  52.131  1.00  0.00    -0.262 NA
HETATM    5  C7  UNL     1      21.834   2.323  52.058  1.00  0.00     0.103 A 
HETATM    6  C8  UNL     1      22.961   1.479  51.524  1.00  0.00     0.083 A 
HETATM    7  C15 UNL     1      24.011   2.406  51.066  1.00  0.00     0.004 A 
HETATM    8  C16 UNL     1      23.942   3.727  51.129  1.00  0.00     0.019 A 
ENDROOT
BRANCH   6   9
HETATM    9  C9  UNL     1      23.415   0.637  52.670  1.00  0.00    -0.044 A 
HETATM   10  C10 UNL     1      22.532  -0.202  53.340  1.00  0.00     0.008 A 
HETATM   11  C11 UNL     1      22.995  -0.964  54.395  1.00  0.00     0.002 A 
HETATM   12  C12 UNL     1      24.337  -0.884  54.775  1.00  0.00     0.019 A 
HETATM   13  C13 UNL     1      25.208  -0.045  54.100  1.00  0.00     0.011 A 
HETATM   14 BR1  UNL     1      27.041   0.055  54.628  1.00  0.00    -0.051 Br
HETATM   15  C14 UNL     1      24.758   0.725  53.041  1.00  0.00     0.027 A 
ENDBRANCH   6   9
BRANCH   1  16
HETATM   16  N1  UNL     1      25.614   5.659  50.412  1.00  0.00    -0.322 N 
HETATM   17  C3  UNL     1      25.679   6.008  49.034  1.00  0.00     0.244 C 
HETATM   18  O1  UNL     1      24.719   5.846  48.232  1.00  0.00    -0.268 OA
HETATM   19  H4  UNL     1      26.450   5.821  51.023  1.00  0.00     0.169 HD
BRANCH  17  20
HETATM   20  C2  UNL     1      26.926   6.584  48.545  1.00  0.00     0.064 C 
HETATM   21  C1  UNL     1      28.008   5.863  48.290  1.00  0.00     0.017 C 
ENDBRANCH  17  20
ENDBRANCH   1  16
TORSDOF 3
ENDMDL
