MODEL 1
REMARK VINA RESULT:      -8.0      0.000      0.000
REMARK  5 active torsions:
REMARK  status: ('A' for Active; 'I' for Inactive)
REMARK    1  A    between atoms: C2_2  and  C3_3 
REMARK    2  A    between atoms: C3_3  and  N1_4 
REMARK    3  A    between atoms: N1_4  and  C4_5 
REMARK    4  A    between atoms: C11_14  and  C12_15 
REMARK    5  A    between atoms: C15_19  and  N5_20 
ROOT
HETATM    1  C4  UNL     1      24.126   1.022  52.578  1.00  0.00     0.043 C 
HETATM    2  C5  UNL     1      24.107   0.306  53.864  1.00  0.00     0.061 C 
HETATM    3  C6  UNL     1      23.587  -1.111  53.891  1.00  0.00     0.036 C 
HETATM    4  C7  UNL     1      22.884  -1.449  55.191  1.00  0.00     0.270 C 
HETATM    5  N2  UNL     1      21.390  -1.351  54.987  1.00  0.00     0.088 NA
HETATM    6  C8  UNL     1      21.290  -0.003  54.639  1.00  0.00     0.316 C 
HETATM    7  C9  UNL     1      20.138   0.729  54.177  1.00  0.00     0.119 C 
HETATM    8  N3  UNL     1      20.351   1.484  53.094  1.00  0.00    -0.274 NA
HETATM    9  C10 UNL     1      21.599   1.563  52.439  1.00  0.00     0.131 C 
HETATM   10  C11 UNL     1      22.921   1.486  52.085  1.00  0.00     0.036 C 
HETATM   11  H12 UNL     1      21.176  -2.034  54.206  1.00  0.00     0.316 HD
ENDROOT
BRANCH  10  12
HETATM   12  C12 UNL     1      23.014   2.184  50.750  1.00  0.00     0.090 A 
HETATM   13  C13 UNL     1      22.299   1.745  49.620  1.00  0.00     0.149 A 
HETATM   14  N4  UNL     1      22.410   2.377  48.450  1.00  0.00    -0.267 NA
HETATM   15  C14 UNL     1      23.204   3.446  48.335  1.00  0.00     0.167 A 
HETATM   16  C15 UNL     1      23.947   3.924  49.459  1.00  0.00     0.153 A 
HETATM   17  N6  UNL     1      23.722   3.196  50.510  1.00  0.00    -0.227 NA
BRANCH  16  18
HETATM   18  N5  UNL     1      24.639   5.035  48.956  1.00  0.00    -0.296 N 
HETATM   19  C16 UNL     1      24.050   6.265  48.490  1.00  0.00     0.096 A 
HETATM   20  C17 UNL     1      24.987   7.111  48.166  1.00  0.00    -0.001 A 
HETATM   21  C18 UNL     1      26.448   7.117  48.175  1.00  0.00     0.031 A 
HETATM   22  C19 UNL     1      26.983   8.202  49.131  1.00  0.00     0.018 C 
HETATM   23  C20 UNL     1      26.959   5.809  48.667  1.00  0.00     0.024 A 
HETATM   24  C21 UNL     1      26.055   4.928  48.997  1.00  0.00     0.108 A 
HETATM   25 CL1  UNL     1      26.820   3.429  49.586  1.00  0.00    -0.064 Cl
ENDBRANCH  16  18
ENDBRANCH  10  12
BRANCH   1  26
HETATM   26  N1  UNL     1      25.212   1.187  51.885  1.00  0.00    -0.285 NA
BRANCH  26  27
HETATM   27  C3  UNL     1      26.482   0.960  52.527  1.00  0.00     0.137 C 
BRANCH  27  28
HETATM   28  C2  UNL     1      27.489   1.726  52.870  1.00  0.00     0.014 C 
HETATM   29  C1  UNL     1      28.607   2.443  53.599  1.00  0.00     0.012 C 
ENDBRANCH  27  28
ENDBRANCH  26  27
ENDBRANCH   1  26
TORSDOF 5
ENDMDL
MODEL 2
REMARK VINA RESULT:      -7.9      1.748      3.535
REMARK  5 active torsions:
REMARK  status: ('A' for Active; 'I' for Inactive)
REMARK    1  A    between atoms: C2_2  and  C3_3 
REMARK    2  A    between atoms: C3_3  and  N1_4 
REMARK    3  A    between atoms: N1_4  and  C4_5 
REMARK    4  A    between atoms: C11_14  and  C12_15 
REMARK    5  A    between atoms: C15_19  and  N5_20 
ROOT
HETATM    1  C4  UNL     1      21.717   1.466  52.087  1.00  0.00     0.043 C 
HETATM    2  C5  UNL     1      21.333   0.117  52.531  1.00  0.00     0.061 C 
HETATM    3  C6  UNL     1      20.985  -0.090  53.986  1.00  0.00     0.036 C 
HETATM    4  C7  UNL     1      21.381  -1.464  54.490  1.00  0.00     0.270 C 
HETATM    5  N2  UNL     1      22.683  -1.358  55.250  1.00  0.00     0.088 NA
HETATM    6  C8  UNL     1      23.510  -0.884  54.231  1.00  0.00     0.316 C 
HETATM    7  C9  UNL     1      24.876  -0.433  54.312  1.00  0.00     0.119 C 
HETATM    8  N3  UNL     1      25.120   0.733  53.704  1.00  0.00    -0.274 NA
HETATM    9  C10 UNL     1      24.124   1.479  53.037  1.00  0.00     0.131 C 
HETATM   10  C11 UNL     1      22.980   1.917  52.421  1.00  0.00     0.036 C 
HETATM   11  H12 UNL     1      22.487  -0.667  56.030  1.00  0.00     0.316 HD
ENDROOT
BRANCH  10  12
HETATM   12  C12 UNL     1      23.292   3.319  51.957  1.00  0.00     0.090 A 
HETATM   13  C13 UNL     1      22.588   4.442  52.429  1.00  0.00     0.149 A 
HETATM   14  N4  UNL     1      22.880   5.668  51.993  1.00  0.00    -0.267 NA
HETATM   15  C14 UNL     1      23.856   5.849  51.097  1.00  0.00     0.167 A 
HETATM   16  C15 UNL     1      24.596   4.733  50.592  1.00  0.00     0.153 A 
HETATM   17  N6  UNL     1      24.182   3.623  51.121  1.00  0.00    -0.227 NA
BRANCH  16  18
HETATM   18  N5  UNL     1      25.510   5.313  49.701  1.00  0.00    -0.296 N 
HETATM   19  C16 UNL     1      25.474   6.664  49.202  1.00  0.00     0.096 A 
HETATM   20  C17 UNL     1      26.519   6.892  48.459  1.00  0.00    -0.001 A 
HETATM   21  C18 UNL     1      27.693   6.132  48.033  1.00  0.00     0.031 A 
HETATM   22  C19 UNL     1      28.985   6.786  48.559  1.00  0.00     0.018 C 
HETATM   23  C20 UNL     1      27.638   4.755  48.593  1.00  0.00     0.024 A 
HETATM   24  C21 UNL     1      26.604   4.481  49.341  1.00  0.00     0.108 A 
HETATM   25 CL1  UNL     1      26.695   2.809  49.954  1.00  0.00    -0.064 Cl
ENDBRANCH  16  18
ENDBRANCH  10  12
BRANCH   1  26
HETATM   26  N1  UNL     1      20.904   2.248  51.442  1.00  0.00    -0.285 NA
BRANCH  26  27
HETATM   27  C3  UNL     1      20.660   1.989  50.045  1.00  0.00     0.137 C 
BRANCH  27  28
HETATM   28  C2  UNL     1      21.425   1.794  48.998  1.00  0.00     0.014 C 
HETATM   29  C1  UNL     1      22.397   1.930  47.844  1.00  0.00     0.012 C 
ENDBRANCH  27  28
ENDBRANCH  26  27
ENDBRANCH   1  26
TORSDOF 5
ENDMDL
MODEL 3
REMARK VINA RESULT:      -7.5      2.168      8.108
REMARK  5 active torsions:
REMARK  status: ('A' for Active; 'I' for Inactive)
REMARK    1  A    between atoms: C2_2  and  C3_3 
REMARK    2  A    between atoms: C3_3  and  N1_4 
REMARK    3  A    between atoms: N1_4  and  C4_5 
REMARK    4  A    between atoms: C11_14  and  C12_15 
REMARK    5  A    between atoms: C15_19  and  N5_20 
ROOT
HETATM    1  C4  UNL     1      24.025   6.024  49.959  1.00  0.00     0.043 C 
HETATM    2  C5  UNL     1      24.814   7.252  49.769  1.00  0.00     0.061 C 
HETATM    3  C6  UNL     1      25.068   7.733  48.360  1.00  0.00     0.036 C 
HETATM    4  C7  UNL     1      26.415   8.413  48.211  1.00  0.00     0.270 C 
HETATM    5  N2  UNL     1      27.399   7.438  47.607  1.00  0.00     0.088 NA
HETATM    6  C8  UNL     1      27.385   6.451  48.594  1.00  0.00     0.316 C 
HETATM    7  C9  UNL     1      28.011   5.154  48.584  1.00  0.00     0.119 C 
HETATM    8  N3  UNL     1      27.217   4.144  48.955  1.00  0.00    -0.274 NA
HETATM    9  C10 UNL     1      25.865   4.319  49.324  1.00  0.00     0.131 C 
HETATM   10  C11 UNL     1      24.642   4.816  49.690  1.00  0.00     0.036 C 
HETATM   11  H12 UNL     1      26.969   7.155  46.681  1.00  0.00     0.316 HD
ENDROOT
BRANCH  10  12
HETATM   12  C12 UNL     1      23.762   3.604  49.879  1.00  0.00     0.090 A 
HETATM   13  C13 UNL     1      23.187   2.916  48.796  1.00  0.00     0.149 A 
HETATM   14  N4  UNL     1      22.405   1.853  48.995  1.00  0.00    -0.267 NA
HETATM   15  C14 UNL     1      22.160   1.421  50.237  1.00  0.00     0.167 A 
HETATM   16  C15 UNL     1      22.727   2.093  51.366  1.00  0.00     0.153 A 
HETATM   17  N6  UNL     1      23.455   3.099  50.990  1.00  0.00    -0.227 NA
BRANCH  16  18
HETATM   18  N5  UNL     1      22.255   1.360  52.463  1.00  0.00    -0.296 N 
HETATM   19  C16 UNL     1      20.908   1.361  52.973  1.00  0.00     0.096 A 
HETATM   20  C17 UNL     1      20.802   0.506  53.950  1.00  0.00    -0.001 A 
HETATM   21  C18 UNL     1      21.692  -0.436  54.626  1.00  0.00     0.031 A 
HETATM   22  C19 UNL     1      21.196  -1.883  54.442  1.00  0.00     0.018 C 
HETATM   23  C20 UNL     1      23.055  -0.360  54.034  1.00  0.00     0.024 A 
HETATM   24  C21 UNL     1      23.208   0.487  53.054  1.00  0.00     0.108 A 
HETATM   25 CL1  UNL     1      24.881   0.444  52.439  1.00  0.00    -0.064 Cl
ENDBRANCH  16  18
ENDBRANCH  10  12
BRANCH   1  26
HETATM   26  N1  UNL     1      22.777   6.043  50.320  1.00  0.00    -0.285 NA
BRANCH  26  27
HETATM   27  C3  UNL     1      21.845   6.818  49.542  1.00  0.00     0.137 C 
BRANCH  27  28
HETATM   28  C2  UNL     1      21.107   7.876  49.776  1.00  0.00     0.014 C 
HETATM   29  C1  UNL     1      20.243   9.117  49.672  1.00  0.00     0.012 C 
ENDBRANCH  27  28
ENDBRANCH  26  27
ENDBRANCH   1  26
TORSDOF 5
ENDMDL
MODEL 4
REMARK VINA RESULT:      -7.4      2.410      4.223
REMARK  5 active torsions:
REMARK  status: ('A' for Active; 'I' for Inactive)
REMARK    1  A    between atoms: C2_2  and  C3_3 
REMARK    2  A    between atoms: C3_3  and  N1_4 
REMARK    3  A    between atoms: N1_4  and  C4_5 
REMARK    4  A    between atoms: C11_14  and  C12_15 
REMARK    5  A    between atoms: C15_19  and  N5_20 
ROOT
HETATM    1  C4  UNL     1      25.223   2.571  51.873  1.00  0.00     0.043 C 
HETATM    2  C5  UNL     1      26.349   1.855  52.495  1.00  0.00     0.061 C 
HETATM    3  C6  UNL     1      26.762   0.523  51.917  1.00  0.00     0.036 C 
HETATM    4  C7  UNL     1      27.281  -0.434  52.973  1.00  0.00     0.270 C 
HETATM    5  N2  UNL     1      26.186  -1.408  53.342  1.00  0.00     0.088 NA
HETATM    6  C8  UNL     1      25.233  -0.513  53.829  1.00  0.00     0.316 C 
HETATM    7  C9  UNL     1      23.873  -0.770  54.230  1.00  0.00     0.119 C 
HETATM    8  N3  UNL     1      22.969   0.077  53.725  1.00  0.00    -0.274 NA
HETATM    9  C10 UNL     1      23.306   1.140  52.860  1.00  0.00     0.131 C 
HETATM   10  C11 UNL     1      23.947   2.101  52.122  1.00  0.00     0.036 C 
HETATM   11  H12 UNL     1      25.930  -1.887  52.432  1.00  0.00     0.316 HD
ENDROOT
BRANCH  10  12
HETATM   12  C12 UNL     1      22.847   2.867  51.428  1.00  0.00     0.090 A 
HETATM   13  C13 UNL     1      21.872   3.592  52.137  1.00  0.00     0.149 A 
HETATM   14  N4  UNL     1      20.906   4.251  51.496  1.00  0.00    -0.267 NA
HETATM   15  C14 UNL     1      20.852   4.235  50.160  1.00  0.00     0.167 A 
HETATM   16  C15 UNL     1      21.825   3.510  49.402  1.00  0.00     0.153 A 
HETATM   17  N6  UNL     1      22.686   2.932  50.182  1.00  0.00    -0.227 NA
BRANCH  16  18
HETATM   18  N5  UNL     1      21.446   3.733  48.071  1.00  0.00    -0.296 N 
HETATM   19  C16 UNL     1      20.330   3.127  47.390  1.00  0.00     0.096 A 
HETATM   20  C17 UNL     1      20.223   3.619  46.189  1.00  0.00    -0.001 A 
HETATM   21  C18 UNL     1      20.933   4.618  45.393  1.00  0.00     0.031 A 
HETATM   22  C19 UNL     1      20.001   5.791  45.033  1.00  0.00     0.018 C 
HETATM   23  C20 UNL     1      22.065   5.181  46.177  1.00  0.00     0.024 A 
HETATM   24  C21 UNL     1      22.214   4.713  47.386  1.00  0.00     0.108 A 
HETATM   25 CL1  UNL     1      23.591   5.499  48.201  1.00  0.00    -0.064 Cl
ENDBRANCH  16  18
ENDBRANCH  10  12
BRANCH   1  26
HETATM   26  N1  UNL     1      25.392   3.583  51.076  1.00  0.00    -0.285 NA
BRANCH  26  27
HETATM   27  C3  UNL     1      26.338   3.460  49.996  1.00  0.00     0.137 C 
BRANCH  27  28
HETATM   28  C2  UNL     1      26.950   4.310  49.207  1.00  0.00     0.014 C 
HETATM   29  C1  UNL     1      27.963   5.159  48.466  1.00  0.00     0.012 C 
ENDBRANCH  27  28
ENDBRANCH  26  27
ENDBRANCH   1  26
TORSDOF 5
ENDMDL
MODEL 5
REMARK VINA RESULT:      -7.3      3.002      6.714
REMARK  5 active torsions:
REMARK  status: ('A' for Active; 'I' for Inactive)
REMARK    1  A    between atoms: C2_2  and  C3_3 
REMARK    2  A    between atoms: C3_3  and  N1_4 
REMARK    3  A    between atoms: N1_4  and  C4_5 
REMARK    4  A    between atoms: C11_14  and  C12_15 
REMARK    5  A    between atoms: C15_19  and  N5_20 
ROOT
HETATM    1  C4  UNL     1      19.898   3.342  51.151  1.00  0.00     0.043 C 
HETATM    2  C5  UNL     1      18.711   3.421  50.285  1.00  0.00     0.061 C 
HETATM    3  C6  UNL     1      18.459   2.301  49.304  1.00  0.00     0.036 C 
HETATM    4  C7  UNL     1      17.802   2.783  48.026  1.00  0.00     0.270 C 
HETATM    5  N2  UNL     1      18.854   2.925  46.950  1.00  0.00     0.088 NA
HETATM    6  C8  UNL     1      19.670   3.886  47.547  1.00  0.00     0.316 C 
HETATM    7  C9  UNL     1      20.948   4.386  47.108  1.00  0.00     0.119 C 
HETATM    8  N3  UNL     1      21.891   4.425  48.055  1.00  0.00    -0.274 NA
HETATM    9  C10 UNL     1      21.669   4.006  49.385  1.00  0.00     0.131 C 
HETATM   10  C11 UNL     1      21.129   3.606  50.580  1.00  0.00     0.036 C 
HETATM   11  H12 UNL     1      19.284   1.961  46.861  1.00  0.00     0.316 HD
ENDROOT
BRANCH  10  12
HETATM   12  C12 UNL     1      22.302   3.477  51.521  1.00  0.00     0.090 A 
HETATM   13  C13 UNL     1      22.756   4.551  52.308  1.00  0.00     0.149 A 
HETATM   14  N4  UNL     1      23.803   4.410  53.123  1.00  0.00    -0.267 NA
HETATM   15  C14 UNL     1      24.436   3.235  53.208  1.00  0.00     0.167 A 
HETATM   16  C15 UNL     1      24.004   2.118  52.425  1.00  0.00     0.153 A 
HETATM   17  N6  UNL     1      22.980   2.432  51.693  1.00  0.00    -0.227 NA
BRANCH  16  18
HETATM   18  N5  UNL     1      24.891   1.094  52.786  1.00  0.00    -0.296 N 
HETATM   19  C16 UNL     1      24.657   0.075  53.778  1.00  0.00     0.096 A 
HETATM   20  C17 UNL     1      25.656  -0.760  53.800  1.00  0.00    -0.001 A 
HETATM   21  C18 UNL     1      26.914  -0.916  53.073  1.00  0.00     0.031 A 
HETATM   22  C19 UNL     1      26.931  -2.244  52.291  1.00  0.00     0.018 C 
HETATM   23  C20 UNL     1      27.066   0.180  52.078  1.00  0.00     0.024 A 
HETATM   24  C21 UNL     1      26.090   1.044  52.025  1.00  0.00     0.108 A 
HETATM   25 CL1  UNL     1      26.406   2.276  50.775  1.00  0.00    -0.064 Cl
ENDBRANCH  16  18
ENDBRANCH  10  12
BRANCH   1  26
HETATM   26  N1  UNL     1      19.831   2.992  52.401  1.00  0.00    -0.285 NA
BRANCH  26  27
HETATM   27  C3  UNL     1      19.790   1.589  52.724  1.00  0.00     0.137 C 
BRANCH  27  28
HETATM   28  C2  UNL     1      20.520   0.794  53.468  1.00  0.00     0.014 C 
HETATM   29  C1  UNL     1      21.028  -0.237  54.455  1.00  0.00     0.012 C 
ENDBRANCH  27  28
ENDBRANCH  26  27
ENDBRANCH   1  26
TORSDOF 5
ENDMDL
MODEL 6
REMARK VINA RESULT:      -7.3      2.489      3.962
REMARK  5 active torsions:
REMARK  status: ('A' for Active; 'I' for Inactive)
REMARK    1  A    between atoms: C2_2  and  C3_3 
REMARK    2  A    between atoms: C3_3  and  N1_4 
REMARK    3  A    between atoms: N1_4  and  C4_5 
REMARK    4  A    between atoms: C11_14  and  C12_15 
REMARK    5  A    between atoms: C15_19  and  N5_20 
ROOT
HETATM    1  C4  UNL     1      24.943   2.187  51.296  1.00  0.00     0.043 C 
HETATM    2  C5  UNL     1      26.074   1.783  52.148  1.00  0.00     0.061 C 
HETATM    3  C6  UNL     1      26.703   0.430  51.914  1.00  0.00     0.036 C 
HETATM    4  C7  UNL     1      27.218  -0.201  53.193  1.00  0.00     0.270 C 
HETATM    5  N2  UNL     1      26.214  -1.220  53.683  1.00  0.00     0.088 NA
HETATM    6  C8  UNL     1      25.114  -0.385  53.883  1.00  0.00     0.316 C 
HETATM    7  C9  UNL     1      23.760  -0.741  54.224  1.00  0.00     0.119 C 
HETATM    8  N3  UNL     1      22.820  -0.154  53.475  1.00  0.00    -0.274 NA
HETATM    9  C10 UNL     1      23.117   0.741  52.424  1.00  0.00     0.131 C 
HETATM   10  C11 UNL     1      23.714   1.606  51.544  1.00  0.00     0.036 C 
HETATM   11  H12 UNL     1      26.116  -1.911  52.885  1.00  0.00     0.316 HD
ENDROOT
BRANCH  10  12
HETATM   12  C12 UNL     1      22.610   2.047  50.613  1.00  0.00     0.090 A 
HETATM   13  C13 UNL     1      21.851   1.133  49.860  1.00  0.00     0.149 A 
HETATM   14  N4  UNL     1      20.888   1.554  49.038  1.00  0.00    -0.267 NA
HETATM   15  C14 UNL     1      20.627   2.859  48.920  1.00  0.00     0.167 A 
HETATM   16  C15 UNL     1      21.376   3.822  49.668  1.00  0.00     0.153 A 
HETATM   17  N6  UNL     1      22.267   3.241  50.412  1.00  0.00    -0.227 NA
BRANCH  16  18
HETATM   18  N5  UNL     1      20.818   5.050  49.287  1.00  0.00    -0.296 N 
HETATM   19  C16 UNL     1      19.509   5.538  49.640  1.00  0.00     0.096 A 
HETATM   20  C17 UNL     1      19.348   6.747  49.185  1.00  0.00    -0.001 A 
HETATM   21  C18 UNL     1      20.156   7.706  48.435  1.00  0.00     0.031 A 
HETATM   22  C19 UNL     1      20.416   8.973  49.272  1.00  0.00     0.018 C 
HETATM   23  C20 UNL     1      21.483   7.112  48.115  1.00  0.00     0.024 A 
HETATM   24  C21 UNL     1      21.686   5.898  48.548  1.00  0.00     0.108 A 
HETATM   25 CL1  UNL     1      23.321   5.338  48.108  1.00  0.00    -0.064 Cl
ENDBRANCH  16  18
ENDBRANCH  10  12
BRANCH   1  26
HETATM   26  N1  UNL     1      25.074   3.022  50.310  1.00  0.00    -0.285 NA
BRANCH  26  27
HETATM   27  C3  UNL     1      26.394   3.277  49.791  1.00  0.00     0.137 C 
BRANCH  27  28
HETATM   28  C2  UNL     1      26.968   4.292  49.194  1.00  0.00     0.014 C 
HETATM   29  C1  UNL     1      27.918   5.226  48.470  1.00  0.00     0.012 C 
ENDBRANCH  27  28
ENDBRANCH  26  27
ENDBRANCH   1  26
TORSDOF 5
ENDMDL
MODEL 7
REMARK VINA RESULT:      -7.3      2.363      4.712
REMARK  5 active torsions:
REMARK  status: ('A' for Active; 'I' for Inactive)
REMARK    1  A    between atoms: C2_2  and  C3_3 
REMARK    2  A    between atoms: C3_3  and  N1_4 
REMARK    3  A    between atoms: N1_4  and  C4_5 
REMARK    4  A    between atoms: C11_14  and  C12_15 
REMARK    5  A    between atoms: C15_19  and  N5_20 
ROOT
HETATM    1  C4  UNL     1      24.743   1.425  51.567  1.00  0.00     0.043 C 
HETATM    2  C5  UNL     1      24.744   0.227  52.421  1.00  0.00     0.061 C 
HETATM    3  C6  UNL     1      24.571   0.405  53.911  1.00  0.00     0.036 C 
HETATM    4  C7  UNL     1      25.335  -0.629  54.714  1.00  0.00     0.270 C 
HETATM    5  N2  UNL     1      26.623  -0.016  55.214  1.00  0.00     0.088 NA
HETATM    6  C8  UNL     1      27.225   0.291  53.993  1.00  0.00     0.316 C 
HETATM    7  C9  UNL     1      28.437   1.028  53.743  1.00  0.00     0.119 C 
HETATM    8  N3  UNL     1      28.334   1.976  52.805  1.00  0.00    -0.274 NA
HETATM    9  C10 UNL     1      27.135   2.249  52.110  1.00  0.00     0.131 C 
HETATM   10  C11 UNL     1      25.875   2.219  51.573  1.00  0.00     0.036 C 
HETATM   11  H12 UNL     1      26.320   0.821  55.790  1.00  0.00     0.316 HD
ENDROOT
BRANCH  10  12
HETATM   12  C12 UNL     1      25.790   3.444  50.695  1.00  0.00     0.090 A 
HETATM   13  C13 UNL     1      26.725   3.707  49.678  1.00  0.00     0.149 A 
HETATM   14  N4  UNL     1      26.629   4.804  48.924  1.00  0.00    -0.267 NA
HETATM   15  C14 UNL     1      25.634   5.673  49.125  1.00  0.00     0.167 A 
HETATM   16  C15 UNL     1      24.662   5.443  50.150  1.00  0.00     0.153 A 
HETATM   17  N6  UNL     1      24.906   4.336  50.781  1.00  0.00    -0.227 NA
BRANCH  16  18
HETATM   18  N5  UNL     1      23.801   6.544  50.048  1.00  0.00    -0.296 N 
HETATM   19  C16 UNL     1      24.003   7.711  49.228  1.00  0.00     0.096 A 
HETATM   20  C17 UNL     1      22.969   8.499  49.314  1.00  0.00    -0.001 A 
HETATM   21  C18 UNL     1      21.685   8.479  50.012  1.00  0.00     0.031 A 
HETATM   22  C19 UNL     1      20.518   8.465  49.006  1.00  0.00     0.018 C 
HETATM   23  C20 UNL     1      21.572   7.242  50.832  1.00  0.00     0.024 A 
HETATM   24  C21 UNL     1      22.588   6.425  50.779  1.00  0.00     0.108 A 
HETATM   25 CL1  UNL     1      22.293   4.987  51.791  1.00  0.00    -0.064 Cl
ENDBRANCH  16  18
ENDBRANCH  10  12
BRANCH   1  26
HETATM   26  N1  UNL     1      23.714   1.777  50.856  1.00  0.00    -0.285 NA
BRANCH  26  27
HETATM   27  C3  UNL     1      22.448   1.138  51.111  1.00  0.00     0.137 C 
BRANCH  27  28
HETATM   28  C2  UNL     1      21.377   1.457  51.797  1.00  0.00     0.014 C 
HETATM   29  C1  UNL     1      20.365   1.762  52.882  1.00  0.00     0.012 C 
ENDBRANCH  27  28
ENDBRANCH  26  27
ENDBRANCH   1  26
TORSDOF 5
ENDMDL
MODEL 8
REMARK VINA RESULT:      -7.3      3.299      6.169
REMARK  5 active torsions:
REMARK  status: ('A' for Active; 'I' for Inactive)
REMARK    1  A    between atoms: C2_2  and  C3_3 
REMARK    2  A    between atoms: C3_3  and  N1_4 
REMARK    3  A    between atoms: N1_4  and  C4_5 
REMARK    4  A    between atoms: C11_14  and  C12_15 
REMARK    5  A    between atoms: C15_19  and  N5_20 
ROOT
HETATM    1  C4  UNL     1      24.574   2.191  51.535  1.00  0.00     0.043 C 
HETATM    2  C5  UNL     1      25.830   2.011  52.282  1.00  0.00     0.061 C 
HETATM    3  C6  UNL     1      26.690   0.812  51.964  1.00  0.00     0.036 C 
HETATM    4  C7  UNL     1      27.425   0.284  53.181  1.00  0.00     0.270 C 
HETATM    5  N2  UNL     1      26.686  -0.917  53.724  1.00  0.00     0.088 NA
HETATM    6  C8  UNL     1      25.465  -0.318  54.034  1.00  0.00     0.316 C 
HETATM    7  C9  UNL     1      24.240  -0.937  54.474  1.00  0.00     0.119 C 
HETATM    8  N3  UNL     1      23.144  -0.542  53.818  1.00  0.00    -0.274 NA
HETATM    9  C10 UNL     1      23.169   0.403  52.770  1.00  0.00     0.131 C 
HETATM   10  C11 UNL     1      23.508   1.376  51.866  1.00  0.00     0.036 C 
HETATM   11  H12 UNL     1      26.659  -1.607  52.920  1.00  0.00     0.316 HD
ENDROOT
BRANCH  10  12
HETATM   12  C12 UNL     1      22.265   1.599  51.039  1.00  0.00     0.090 A 
HETATM   13  C13 UNL     1      22.243   1.401  49.646  1.00  0.00     0.149 A 
HETATM   14  N4  UNL     1      21.131   1.615  48.940  1.00  0.00    -0.267 NA
HETATM   15  C14 UNL     1      20.013   2.020  49.552  1.00  0.00     0.167 A 
HETATM   16  C15 UNL     1      19.994   2.233  50.967  1.00  0.00     0.153 A 
HETATM   17  N6  UNL     1      21.153   1.978  51.491  1.00  0.00    -0.227 NA
BRANCH  16  18
HETATM   18  N5  UNL     1      18.677   2.637  51.227  1.00  0.00    -0.296 N 
HETATM   19  C16 UNL     1      18.184   3.991  51.220  1.00  0.00     0.096 A 
HETATM   20  C17 UNL     1      16.898   3.997  51.425  1.00  0.00    -0.001 A 
HETATM   21  C18 UNL     1      15.862   2.988  51.640  1.00  0.00     0.031 A 
HETATM   22  C19 UNL     1      14.820   3.027  50.506  1.00  0.00     0.018 C 
HETATM   23  C20 UNL     1      16.467   1.629  51.634  1.00  0.00     0.024 A 
HETATM   24  C21 UNL     1      17.756   1.576  51.438  1.00  0.00     0.108 A 
HETATM   25 CL1  UNL     1      18.324  -0.114  51.434  1.00  0.00    -0.064 Cl
ENDBRANCH  16  18
ENDBRANCH  10  12
BRANCH   1  26
HETATM   26  N1  UNL     1      24.455   3.045  50.562  1.00  0.00    -0.285 NA
BRANCH  26  27
HETATM   27  C3  UNL     1      25.483   4.039  50.387  1.00  0.00     0.137 C 
BRANCH  27  28
HETATM   28  C2  UNL     1      26.410   4.254  49.486  1.00  0.00     0.014 C 
HETATM   29  C1  UNL     1      27.555   4.803  48.659  1.00  0.00     0.012 C 
ENDBRANCH  27  28
ENDBRANCH  26  27
ENDBRANCH   1  26
TORSDOF 5
ENDMDL
MODEL 9
REMARK VINA RESULT:      -7.3      3.659      7.169
REMARK  5 active torsions:
REMARK  status: ('A' for Active; 'I' for Inactive)
REMARK    1  A    between atoms: C2_2  and  C3_3 
REMARK    2  A    between atoms: C3_3  and  N1_4 
REMARK    3  A    between atoms: N1_4  and  C4_5 
REMARK    4  A    between atoms: C11_14  and  C12_15 
REMARK    5  A    between atoms: C15_19  and  N5_20 
ROOT
HETATM    1  C4  UNL     1      23.306   1.171  52.182  1.00  0.00     0.043 C 
HETATM    2  C5  UNL     1      24.739   0.835  52.173  1.00  0.00     0.061 C 
HETATM    3  C6  UNL     1      25.701   1.765  52.873  1.00  0.00     0.036 C 
HETATM    4  C7  UNL     1      27.055   1.823  52.192  1.00  0.00     0.270 C 
HETATM    5  N2  UNL     1      27.128   3.068  51.339  1.00  0.00     0.088 NA
HETATM    6  C8  UNL     1      26.078   2.809  50.458  1.00  0.00     0.316 C 
HETATM    7  C9  UNL     1      25.508   3.670  49.453  1.00  0.00     0.119 C 
HETATM    8  N3  UNL     1      24.172   3.740  49.465  1.00  0.00    -0.274 NA
HETATM    9  C10 UNL     1      23.370   3.037  50.390  1.00  0.00     0.131 C 
HETATM   10  C11 UNL     1      22.881   2.188  51.349  1.00  0.00     0.036 C 
HETATM   11  H12 UNL     1      26.964   3.870  52.013  1.00  0.00     0.316 HD
ENDROOT
BRANCH  10  12
HETATM   12  C12 UNL     1      21.405   2.496  51.433  1.00  0.00     0.090 A 
HETATM   13  C13 UNL     1      20.905   3.587  52.167  1.00  0.00     0.149 A 
HETATM   14  N4  UNL     1      19.594   3.828  52.231  1.00  0.00    -0.267 NA
HETATM   15  C14 UNL     1      18.732   3.032  51.591  1.00  0.00     0.167 A 
HETATM   16  C15 UNL     1      19.200   1.912  50.834  1.00  0.00     0.153 A 
HETATM   17  N6  UNL     1      20.494   1.827  50.880  1.00  0.00    -0.227 NA
BRANCH  16  18
HETATM   18  N5  UNL     1      18.027   1.340  50.322  1.00  0.00    -0.296 N 
HETATM   19  C16 UNL     1      17.263   1.824  49.200  1.00  0.00     0.096 A 
HETATM   20  C17 UNL     1      16.279   1.009  48.948  1.00  0.00    -0.001 A 
HETATM   21  C18 UNL     1      15.785  -0.249  49.504  1.00  0.00     0.031 A 
HETATM   22  C19 UNL     1      15.860  -1.376  48.455  1.00  0.00     0.018 C 
HETATM   23  C20 UNL     1      16.633  -0.663  50.655  1.00  0.00     0.024 A 
HETATM   24  C21 UNL     1      17.628   0.128  50.947  1.00  0.00     0.108 A 
HETATM   25 CL1  UNL     1      18.559  -0.514  52.326  1.00  0.00    -0.064 Cl
ENDBRANCH  16  18
ENDBRANCH  10  12
BRANCH   1  26
HETATM   26  N1  UNL     1      22.454   0.582  52.966  1.00  0.00    -0.285 NA
BRANCH  26  27
HETATM   27  C3  UNL     1      22.831  -0.665  53.583  1.00  0.00     0.137 C 
BRANCH  27  28
HETATM   28  C2  UNL     1      23.443  -0.994  54.695  1.00  0.00     0.014 C 
HETATM   29  C1  UNL     1      24.454  -1.264  55.790  1.00  0.00     0.012 C 
ENDBRANCH  27  28
ENDBRANCH  26  27
ENDBRANCH   1  26
TORSDOF 5
ENDMDL
