MODEL 1
REMARK VINA RESULT:      -9.7      0.000      0.000
REMARK  2 active torsions:
REMARK  status: ('A' for Active; 'I' for Inactive)
REMARK    1  A    between atoms: C4_5  and  N1_6 
REMARK    2  A    between atoms: N1_6  and  C5_7 
ROOT
HETATM    1  C5  UNL     1      26.021   2.705  51.924  1.00  0.00     0.137 A 
HETATM    2  N2  UNL     1      26.854   3.081  50.962  1.00  0.00    -0.224 NA
HETATM    3  C6  UNL     1      26.439   3.310  49.713  1.00  0.00     0.235 A 
HETATM    4  N3  UNL     1      25.125   3.161  49.397  1.00  0.00    -0.245 NA
HETATM    5  C7  UNL     1      24.258   2.781  50.360  1.00  0.00     0.051 A 
HETATM    6  C8  UNL     1      24.684   2.526  51.715  1.00  0.00     0.013 A 
HETATM    7  C9  UNL     1      23.562   2.115  52.604  1.00  0.00     0.044 C 
HETATM    8  C10 UNL     1      23.377   0.634  52.747  1.00  0.00     0.005 C 
HETATM    9  C11 UNL     1      22.048   0.454  53.484  1.00  0.00     0.002 C 
HETATM   10  C12 UNL     1      21.588  -0.955  53.574  1.00  0.00     0.019 C 
HETATM   11  C13 UNL     1      20.157  -1.040  53.993  1.00  0.00     0.113 C 
HETATM   12  N4  UNL     1      19.123  -0.891  53.060  1.00  0.00    -0.419 N 
HETATM   13  C14 UNL     1      18.886   0.268  52.324  1.00  0.00     0.140 C 
HETATM   14  C15 UNL     1      19.768   0.423  51.070  1.00  0.00     0.186 C 
HETATM   15  O1  UNL     1      19.635   1.621  50.505  1.00  0.00    -0.390 OA
HETATM   16  C16 UNL     1      20.459   1.927  49.453  1.00  0.00     0.168 C 
HETATM   17  C17 UNL     1      21.880   1.641  49.908  1.00  0.00     0.007 C 
HETATM   18  C18 UNL     1      22.809   2.648  49.974  1.00  0.00     0.080 C 
HETATM   19  H15 UNL     1      18.710  -1.779  52.750  1.00  0.00     0.153 HD
ENDROOT
BRANCH   1  20
HETATM   20  N1  UNL     1      26.392   2.435  53.267  1.00  0.00    -0.344 N 
HETATM   21  H3  UNL     1      26.060   2.889  54.137  1.00  0.00     0.167 HD
BRANCH  20  22
HETATM   22  C4  UNL     1      27.349   1.401  53.460  1.00  0.00     0.012 A 
HETATM   23  C3  UNL     1      28.574   1.835  53.480  1.00  0.00     0.028 A 
HETATM   24  C2  UNL     1      29.572   0.800  53.676  1.00  0.00     0.041 A 
HETATM   25  C1  UNL     1      29.055  -0.408  53.802  1.00  0.00     0.112 A 
HETATM   26  F1  UNL     1      29.943  -1.429  53.990  1.00  0.00    -0.209 F 
HETATM   27  C20 UNL     1      27.711  -0.992  53.794  1.00  0.00     0.150 A 
HETATM   28  C19 UNL     1      26.681   0.093  53.587  1.00  0.00     0.084 A 
HETATM   29 CL1  UNL     1      27.579  -2.270  52.566  1.00  0.00    -0.117 Cl
ENDBRANCH  20  22
ENDBRANCH   1  20
TORSDOF 2
ENDMDL
MODEL 2
REMARK VINA RESULT:      -9.5      2.417      4.268
REMARK  2 active torsions:
REMARK  status: ('A' for Active; 'I' for Inactive)
REMARK    1  A    between atoms: C4_5  and  N1_6 
REMARK    2  A    between atoms: N1_6  and  C5_7 
ROOT
HETATM    1  C5  UNL     1      24.534  -0.670  53.808  1.00  0.00     0.137 A 
HETATM    2  N2  UNL     1      24.873  -0.980  55.054  1.00  0.00    -0.224 NA
HETATM    3  C6  UNL     1      23.973  -1.390  55.952  1.00  0.00     0.235 A 
HETATM    4  N3  UNL     1      22.664  -1.501  55.600  1.00  0.00    -0.245 NA
HETATM    5  C7  UNL     1      22.297  -1.193  54.337  1.00  0.00     0.051 A 
HETATM    6  C8  UNL     1      23.251  -0.747  53.351  1.00  0.00     0.013 A 
HETATM    7  C9  UNL     1      22.624  -0.459  52.030  1.00  0.00     0.044 C 
HETATM    8  C10 UNL     1      22.241   0.974  51.810  1.00  0.00     0.005 C 
HETATM    9  C11 UNL     1      21.409   0.985  50.525  1.00  0.00     0.002 C 
HETATM   10  C12 UNL     1      20.779   2.294  50.219  1.00  0.00     0.019 C 
HETATM   11  C13 UNL     1      19.729   2.165  49.166  1.00  0.00     0.113 C 
HETATM   12  N4  UNL     1      18.430   1.755  49.490  1.00  0.00    -0.419 N 
HETATM   13  C14 UNL     1      18.107   0.511  50.028  1.00  0.00     0.140 C 
HETATM   14  C15 UNL     1      18.306   0.400  51.552  1.00  0.00     0.186 C 
HETATM   15  O1  UNL     1      18.160  -0.849  51.989  1.00  0.00    -0.390 OA
HETATM   16  C16 UNL     1      18.435  -1.100  53.309  1.00  0.00     0.168 C 
HETATM   17  C17 UNL     1      19.815  -0.530  53.589  1.00  0.00     0.007 C 
HETATM   18  C18 UNL     1      20.842  -1.350  53.980  1.00  0.00     0.080 C 
HETATM   19  H15 UNL     1      17.754   2.526  49.560  1.00  0.00     0.153 HD
ENDROOT
BRANCH   1  20
HETATM   20  N1  UNL     1      25.432  -0.220  52.806  1.00  0.00    -0.344 N 
HETATM   21  H3  UNL     1      25.345  -0.290  51.776  1.00  0.00     0.167 HD
BRANCH  20  22
HETATM   22  C4  UNL     1      26.619   0.416  53.263  1.00  0.00     0.012 A 
HETATM   23  C3  UNL     1      26.582   1.711  53.151  1.00  0.00     0.028 A 
HETATM   24  C2  UNL     1      27.780   2.386  53.610  1.00  0.00     0.041 A 
HETATM   25  C1  UNL     1      28.704   1.561  54.065  1.00  0.00     0.112 A 
HETATM   26  F1  UNL     1      29.860   2.134  54.515  1.00  0.00    -0.209 F 
HETATM   27  C20 UNL     1      28.841   0.110  54.231  1.00  0.00     0.150 A 
HETATM   28  C19 UNL     1      27.590  -0.582  53.748  1.00  0.00     0.084 A 
HETATM   29 CL1  UNL     1      30.292  -0.491  53.399  1.00  0.00    -0.117 Cl
ENDBRANCH  20  22
ENDBRANCH   1  20
TORSDOF 2
ENDMDL
MODEL 3
REMARK VINA RESULT:      -9.2      2.532      4.616
REMARK  2 active torsions:
REMARK  status: ('A' for Active; 'I' for Inactive)
REMARK    1  A    between atoms: C4_5  and  N1_6 
REMARK    2  A    between atoms: N1_6  and  C5_7 
ROOT
HETATM    1  C5  UNL     1      24.607   0.287  52.629  1.00  0.00     0.137 A 
HETATM    2  N2  UNL     1      24.342  -0.506  53.660  1.00  0.00    -0.224 NA
HETATM    3  C6  UNL     1      23.145  -0.521  54.254  1.00  0.00     0.235 A 
HETATM    4  N3  UNL     1      22.153   0.293  53.803  1.00  0.00    -0.245 NA
HETATM    5  C7  UNL     1      22.400   1.108  52.754  1.00  0.00     0.051 A 
HETATM    6  C8  UNL     1      23.685   1.141  52.098  1.00  0.00     0.013 A 
HETATM    7  C9  UNL     1      23.732   2.115  50.972  1.00  0.00     0.044 C 
HETATM    8  C10 UNL     1      24.261   3.472  51.329  1.00  0.00     0.005 C 
HETATM    9  C11 UNL     1      23.987   4.355  50.109  1.00  0.00     0.002 C 
HETATM   10  C12 UNL     1      24.279   5.795  50.322  1.00  0.00     0.019 C 
HETATM   11  C13 UNL     1      23.690   6.641  49.242  1.00  0.00     0.113 C 
HETATM   12  N4  UNL     1      22.346   7.033  49.287  1.00  0.00    -0.419 N 
HETATM   13  C14 UNL     1      21.266   6.154  49.250  1.00  0.00     0.140 C 
HETATM   14  C15 UNL     1      20.915   5.512  50.606  1.00  0.00     0.186 C 
HETATM   15  O1  UNL     1      20.002   4.551  50.488  1.00  0.00    -0.390 OA
HETATM   16  C16 UNL     1      19.696   3.819  51.606  1.00  0.00     0.168 C 
HETATM   17  C17 UNL     1      21.011   3.321  52.182  1.00  0.00     0.007 C 
HETATM   18  C18 UNL     1      21.270   1.977  52.271  1.00  0.00     0.080 C 
HETATM   19  H15 UNL     1      22.203   7.995  49.620  1.00  0.00     0.153 HD
ENDROOT
BRANCH   1  20
HETATM   20  N1  UNL     1      25.854   0.362  51.957  1.00  0.00    -0.344 N 
HETATM   21  H3  UNL     1      26.068   0.176  50.961  1.00  0.00     0.167 HD
BRANCH  20  22
HETATM   22  C4  UNL     1      26.973   0.747  52.746  1.00  0.00     0.012 A 
HETATM   23  C3  UNL     1      27.211   2.025  52.710  1.00  0.00     0.028 A 
HETATM   24  C2  UNL     1      28.348   2.444  53.507  1.00  0.00     0.041 A 
HETATM   25  C1  UNL     1      28.944   1.448  54.134  1.00  0.00     0.112 A 
HETATM   26  F1  UNL     1      30.024   1.776  54.904  1.00  0.00    -0.209 F 
HETATM   27  C20 UNL     1      28.757  -0.003  54.239  1.00  0.00     0.150 A 
HETATM   28  C19 UNL     1      27.573  -0.429  53.404  1.00  0.00     0.084 A 
HETATM   29 CL1  UNL     1      30.237  -0.871  53.777  1.00  0.00    -0.117 Cl
ENDBRANCH  20  22
ENDBRANCH   1  20
TORSDOF 2
ENDMDL
MODEL 4
REMARK VINA RESULT:      -9.1      4.529      6.578
REMARK  2 active torsions:
REMARK  status: ('A' for Active; 'I' for Inactive)
REMARK    1  A    between atoms: C4_5  and  N1_6 
REMARK    2  A    between atoms: N1_6  and  C5_7 
ROOT
HETATM    1  C5  UNL     1      22.880   5.630  51.475  1.00  0.00     0.137 A 
HETATM    2  N2  UNL     1      21.867   6.066  50.737  1.00  0.00    -0.224 NA
HETATM    3  C6  UNL     1      20.750   5.352  50.572  1.00  0.00     0.235 A 
HETATM    4  N3  UNL     1      20.626   4.138  51.172  1.00  0.00    -0.245 NA
HETATM    5  C7  UNL     1      21.643   3.674  51.928  1.00  0.00     0.051 A 
HETATM    6  C8  UNL     1      22.860   4.427  52.119  1.00  0.00     0.013 A 
HETATM    7  C9  UNL     1      23.845   3.721  52.985  1.00  0.00     0.044 C 
HETATM    8  C10 UNL     1      24.867   2.909  52.249  1.00  0.00     0.005 C 
HETATM    9  C11 UNL     1      25.597   2.095  53.321  1.00  0.00     0.002 C 
HETATM   10  C12 UNL     1      26.541   1.084  52.781  1.00  0.00     0.019 C 
HETATM   11  C13 UNL     1      26.963   0.110  53.831  1.00  0.00     0.113 C 
HETATM   12  N4  UNL     1      26.161  -0.992  54.155  1.00  0.00    -0.419 N 
HETATM   13  C14 UNL     1      24.877  -0.904  54.688  1.00  0.00     0.140 C 
HETATM   14  C15 UNL     1      23.767  -0.657  53.649  1.00  0.00     0.186 C 
HETATM   15  O1  UNL     1      22.592  -0.400  54.219  1.00  0.00    -0.390 OA
HETATM   16  C16 UNL     1      21.550  -0.041  53.402  1.00  0.00     0.168 C 
HETATM   17  C17 UNL     1      22.047   1.098  52.528  1.00  0.00     0.007 C 
HETATM   18  C18 UNL     1      21.459   2.335  52.593  1.00  0.00     0.080 C 
HETATM   19  H15 UNL     1      26.470  -1.873  53.725  1.00  0.00     0.153 HD
ENDROOT
BRANCH   1  20
HETATM   20  N1  UNL     1      24.097   6.328  51.686  1.00  0.00    -0.344 N 
HETATM   21  H3  UNL     1      24.535   6.616  52.579  1.00  0.00     0.167 HD
BRANCH  20  22
HETATM   22  C4  UNL     1      24.828   6.687  50.520  1.00  0.00     0.012 A 
HETATM   23  C3  UNL     1      25.461   5.686  49.984  1.00  0.00     0.028 A 
HETATM   24  C2  UNL     1      26.215   6.024  48.792  1.00  0.00     0.041 A 
HETATM   25  C1  UNL     1      26.124   7.298  48.459  1.00  0.00     0.112 A 
HETATM   26  F1  UNL     1      26.812   7.683  47.343  1.00  0.00    -0.209 F 
HETATM   27  C20 UNL     1      25.447   8.486  48.988  1.00  0.00     0.150 A 
HETATM   28  C19 UNL     1      24.668   8.124  50.229  1.00  0.00     0.084 A 
HETATM   29 CL1  UNL     1      26.609   9.795  49.296  1.00  0.00    -0.117 Cl
ENDBRANCH  20  22
ENDBRANCH   1  20
TORSDOF 2
ENDMDL
MODEL 5
REMARK VINA RESULT:      -8.5      3.594      5.464
REMARK  2 active torsions:
REMARK  status: ('A' for Active; 'I' for Inactive)
REMARK    1  A    between atoms: C4_5  and  N1_6 
REMARK    2  A    between atoms: N1_6  and  C5_7 
ROOT
HETATM    1  C5  UNL     1      25.215   2.339  51.444  1.00  0.00     0.137 A 
HETATM    2  N2  UNL     1      26.331   2.470  52.152  1.00  0.00    -0.224 NA
HETATM    3  C6  UNL     1      26.535   1.793  53.285  1.00  0.00     0.235 A 
HETATM    4  N3  UNL     1      25.585   0.937  53.746  1.00  0.00    -0.245 NA
HETATM    5  C7  UNL     1      24.442   0.786  53.042  1.00  0.00     0.051 A 
HETATM    6  C8  UNL     1      24.199   1.508  51.815  1.00  0.00     0.013 A 
HETATM    7  C9  UNL     1      22.874   1.190  51.213  1.00  0.00     0.044 C 
HETATM    8  C10 UNL     1      21.767   2.130  51.585  1.00  0.00     0.005 C 
HETATM    9  C11 UNL     1      20.482   1.479  51.067  1.00  0.00     0.002 C 
HETATM   10  C12 UNL     1      19.237   2.169  51.488  1.00  0.00     0.019 C 
HETATM   11  C13 UNL     1      18.031   1.323  51.246  1.00  0.00     0.113 C 
HETATM   12  N4  UNL     1      17.648   0.336  52.163  1.00  0.00    -0.419 N 
HETATM   13  C14 UNL     1      18.419  -0.777  52.492  1.00  0.00     0.140 C 
HETATM   14  C15 UNL     1      19.514  -0.511  53.543  1.00  0.00     0.186 C 
HETATM   15  O1  UNL     1      20.335  -1.548  53.689  1.00  0.00    -0.390 OA
HETATM   16  C16 UNL     1      21.425  -1.391  54.504  1.00  0.00     0.168 C 
HETATM   17  C17 UNL     1      22.139  -0.129  54.049  1.00  0.00     0.007 C 
HETATM   18  C18 UNL     1      23.424  -0.188  53.573  1.00  0.00     0.080 C 
HETATM   19  H15 UNL     1      16.879   0.620  52.784  1.00  0.00     0.153 HD
ENDROOT
BRANCH   1  20
HETATM   20  N1  UNL     1      24.926   3.030  50.239  1.00  0.00    -0.344 N 
HETATM   21  H3  UNL     1      24.667   2.644  49.314  1.00  0.00     0.167 HD
BRANCH  20  22
HETATM   22  C4  UNL     1      24.997   4.450  50.296  1.00  0.00     0.012 A 
HETATM   23  C3  UNL     1      24.108   4.976  51.086  1.00  0.00     0.028 A 
HETATM   24  C2  UNL     1      24.158   6.423  51.161  1.00  0.00     0.041 A 
HETATM   25  C1  UNL     1      25.104   6.955  50.410  1.00  0.00     0.112 A 
HETATM   26  F1  UNL     1      25.205   8.317  50.437  1.00  0.00    -0.209 F 
HETATM   27  C20 UNL     1      26.140   6.457  49.499  1.00  0.00     0.150 A 
HETATM   28  C19 UNL     1      26.078   4.950  49.426  1.00  0.00     0.084 A 
HETATM   29 CL1  UNL     1      25.987   7.204  47.894  1.00  0.00    -0.117 Cl
ENDBRANCH  20  22
ENDBRANCH   1  20
TORSDOF 2
ENDMDL
MODEL 6
REMARK VINA RESULT:      -8.4      1.457      1.835
REMARK  2 active torsions:
REMARK  status: ('A' for Active; 'I' for Inactive)
REMARK    1  A    between atoms: C4_5  and  N1_6 
REMARK    2  A    between atoms: N1_6  and  C5_7 
ROOT
HETATM    1  C5  UNL     1      24.907   3.042  51.481  1.00  0.00     0.137 A 
HETATM    2  N2  UNL     1      25.749   3.486  50.555  1.00  0.00    -0.224 NA
HETATM    3  C6  UNL     1      25.340   3.831  49.331  1.00  0.00     0.235 A 
HETATM    4  N3  UNL     1      24.024   3.735  49.003  1.00  0.00    -0.245 NA
HETATM    5  C7  UNL     1      23.148   3.288  49.929  1.00  0.00     0.051 A 
HETATM    6  C8  UNL     1      23.568   2.908  51.257  1.00  0.00     0.013 A 
HETATM    7  C9  UNL     1      22.437   2.441  52.107  1.00  0.00     0.044 C 
HETATM    8  C10 UNL     1      22.224   0.957  52.119  1.00  0.00     0.005 C 
HETATM    9  C11 UNL     1      20.890   0.738  52.838  1.00  0.00     0.002 C 
HETATM   10  C12 UNL     1      20.404  -0.664  52.805  1.00  0.00     0.019 C 
HETATM   11  C13 UNL     1      18.972  -0.758  53.215  1.00  0.00     0.113 C 
HETATM   12  N4  UNL     1      17.942  -0.509  52.298  1.00  0.00    -0.419 N 
HETATM   13  C14 UNL     1      17.728   0.714  51.666  1.00  0.00     0.140 C 
HETATM   14  C15 UNL     1      18.614   0.962  50.431  1.00  0.00     0.186 C 
HETATM   15  O1  UNL     1      18.504   2.206  49.973  1.00  0.00    -0.390 OA
HETATM   16  C16 UNL     1      19.336   2.588  48.952  1.00  0.00     0.168 C 
HETATM   17  C17 UNL     1      20.750   2.236  49.380  1.00  0.00     0.007 C 
HETATM   18  C18 UNL     1      21.697   3.217  49.533  1.00  0.00     0.080 C 
HETATM   19  H15 UNL     1      17.513  -1.359  51.912  1.00  0.00     0.153 HD
ENDROOT
BRANCH   1  20
HETATM   20  N1  UNL     1      25.271   2.650  52.795  1.00  0.00    -0.344 N 
HETATM   21  H3  UNL     1      24.949   3.035  53.701  1.00  0.00     0.167 HD
BRANCH  20  22
HETATM   22  C4  UNL     1      26.203   1.581  52.897  1.00  0.00     0.012 A 
HETATM   23  C3  UNL     1      25.686   0.421  52.616  1.00  0.00     0.028 A 
HETATM   24  C2  UNL     1      26.616  -0.688  52.713  1.00  0.00     0.041 A 
HETATM   25  C1  UNL     1      27.832  -0.321  53.071  1.00  0.00     0.112 A 
HETATM   26  F1  UNL     1      28.758  -1.320  53.180  1.00  0.00    -0.209 F 
HETATM   27  C20 UNL     1      28.505   0.938  53.404  1.00  0.00     0.150 A 
HETATM   28  C19 UNL     1      27.528   2.085  53.303  1.00  0.00     0.084 A 
HETATM   29 CL1  UNL     1      29.257   0.852  55.012  1.00  0.00    -0.117 Cl
ENDBRANCH  20  22
ENDBRANCH   1  20
TORSDOF 2
ENDMDL
MODEL 7
REMARK VINA RESULT:      -8.3      2.574      5.202
REMARK  2 active torsions:
REMARK  status: ('A' for Active; 'I' for Inactive)
REMARK    1  A    between atoms: C4_5  and  N1_6 
REMARK    2  A    between atoms: N1_6  and  C5_7 
ROOT
HETATM    1  C5  UNL     1      23.032   0.144  52.788  1.00  0.00     0.137 A 
HETATM    2  N2  UNL     1      22.293  -0.272  53.809  1.00  0.00    -0.224 NA
HETATM    3  C6  UNL     1      21.154   0.335  54.155  1.00  0.00     0.235 A 
HETATM    4  N3  UNL     1      20.720   1.415  53.452  1.00  0.00    -0.245 NA
HETATM    5  C7  UNL     1      21.455   1.856  52.408  1.00  0.00     0.051 A 
HETATM    6  C8  UNL     1      22.688   1.216  52.017  1.00  0.00     0.013 A 
HETATM    7  C9  UNL     1      23.332   1.873  50.844  1.00  0.00     0.044 C 
HETATM    8  C10 UNL     1      24.370   2.899  51.184  1.00  0.00     0.005 C 
HETATM    9  C11 UNL     1      24.703   3.601  49.865  1.00  0.00     0.002 C 
HETATM   10  C12 UNL     1      25.593   4.781  50.010  1.00  0.00     0.019 C 
HETATM   11  C13 UNL     1      25.613   5.610  48.769  1.00  0.00     0.113 C 
HETATM   12  N4  UNL     1      24.607   6.552  48.516  1.00  0.00    -0.419 N 
HETATM   13  C14 UNL     1      23.261   6.241  48.341  1.00  0.00     0.140 C 
HETATM   14  C15 UNL     1      22.471   6.049  49.650  1.00  0.00     0.186 C 
HETATM   15  O1  UNL     1      21.245   5.579  49.435  1.00  0.00    -0.390 OA
HETATM   16  C16 UNL     1      20.487   5.249  50.528  1.00  0.00     0.168 C 
HETATM   17  C17 UNL     1      21.333   4.328  51.391  1.00  0.00     0.007 C 
HETATM   18  C18 UNL     1      20.930   3.041  51.641  1.00  0.00     0.080 C 
HETATM   19  H15 UNL     1      24.878   7.519  48.734  1.00  0.00     0.153 HD
ENDROOT
BRANCH   1  20
HETATM   20  N1  UNL     1      24.253  -0.445  52.370  1.00  0.00    -0.344 N 
HETATM   21  H3  UNL     1      24.435  -1.053  51.551  1.00  0.00     0.167 HD
BRANCH  20  22
HETATM   22  C4  UNL     1      25.393  -0.171  53.175  1.00  0.00     0.012 A 
HETATM   23  C3  UNL     1      25.213  -0.456  54.431  1.00  0.00     0.028 A 
HETATM   24  C2  UNL     1      26.360  -0.185  55.276  1.00  0.00     0.041 A 
HETATM   25  C1  UNL     1      27.392   0.305  54.617  1.00  0.00     0.112 A 
HETATM   26  F1  UNL     1      28.507   0.581  55.355  1.00  0.00    -0.209 F 
HETATM   27  C20 UNL     1      27.691   0.657  53.225  1.00  0.00     0.150 A 
HETATM   28  C19 UNL     1      26.490   0.374  52.354  1.00  0.00     0.084 A 
HETATM   29 CL1  UNL     1      28.217   2.349  53.095  1.00  0.00    -0.117 Cl
ENDBRANCH  20  22
ENDBRANCH   1  20
TORSDOF 2
ENDMDL
MODEL 8
REMARK VINA RESULT:      -8.1      6.054      9.915
REMARK  2 active torsions:
REMARK  status: ('A' for Active; 'I' for Inactive)
REMARK    1  A    between atoms: C4_5  and  N1_6 
REMARK    2  A    between atoms: N1_6  and  C5_7 
ROOT
HETATM    1  C5  UNL     1      26.315   6.595  49.098  1.00  0.00     0.137 A 
HETATM    2  N2  UNL     1      25.500   7.243  49.921  1.00  0.00    -0.224 NA
HETATM    3  C6  UNL     1      25.798   8.451  50.409  1.00  0.00     0.235 A 
HETATM    4  N3  UNL     1      26.966   9.054  50.062  1.00  0.00    -0.245 NA
HETATM    5  C7  UNL     1      27.811   8.415  49.225  1.00  0.00     0.051 A 
HETATM    6  C8  UNL     1      27.511   7.109  48.687  1.00  0.00     0.013 A 
HETATM    7  C9  UNL     1      28.584   6.594  47.791  1.00  0.00     0.044 C 
HETATM    8  C10 UNL     1      29.596   5.711  48.458  1.00  0.00     0.005 C 
HETATM    9  C11 UNL     1      30.712   5.513  47.429  1.00  0.00     0.002 C 
HETATM   10  C12 UNL     1      31.906   4.804  47.954  1.00  0.00     0.019 C 
HETATM   11  C13 UNL     1      33.071   4.933  47.030  1.00  0.00     0.113 C 
HETATM   12  N4  UNL     1      33.888   6.071  47.055  1.00  0.00    -0.419 N 
HETATM   13  C14 UNL     1      33.453   7.361  46.758  1.00  0.00     0.140 C 
HETATM   14  C15 UNL     1      32.752   8.085  47.924  1.00  0.00     0.186 C 
HETATM   15  O1  UNL     1      32.197   9.233  47.543  1.00  0.00    -0.390 OA
HETATM   16  C16 UNL     1      31.438   9.911  48.461  1.00  0.00     0.168 C 
HETATM   17  C17 UNL     1      30.430   8.921  49.018  1.00  0.00     0.007 C 
HETATM   18  C18 UNL     1      29.084   9.125  48.848  1.00  0.00     0.080 C 
HETATM   19  H15 UNL     1      34.769   5.941  47.568  1.00  0.00     0.153 HD
ENDROOT
BRANCH   1  20
HETATM   20  N1  UNL     1      26.070   5.310  48.550  1.00  0.00    -0.344 N 
HETATM   21  H3  UNL     1      26.119   5.005  47.561  1.00  0.00     0.167 HD
BRANCH  20  22
HETATM   22  C4  UNL     1      25.707   4.291  49.473  1.00  0.00     0.012 A 
HETATM   23  C3  UNL     1      26.731   3.665  49.974  1.00  0.00     0.028 A 
HETATM   24  C2  UNL     1      26.389   2.619  50.918  1.00  0.00     0.041 A 
HETATM   25  C1  UNL     1      25.090   2.487  51.106  1.00  0.00     0.112 A 
HETATM   26  F1  UNL     1      24.700   1.518  51.986  1.00  0.00    -0.209 F 
HETATM   27  C20 UNL     1      23.874   3.132  50.599  1.00  0.00     0.150 A 
HETATM   28  C19 UNL     1      24.241   4.217  49.614  1.00  0.00     0.084 A 
HETATM   29 CL1  UNL     1      22.771   1.937  49.883  1.00  0.00    -0.117 Cl
ENDBRANCH  20  22
ENDBRANCH   1  20
TORSDOF 2
ENDMDL
MODEL 9
REMARK VINA RESULT:      -8.1      2.324      4.664
REMARK  2 active torsions:
REMARK  status: ('A' for Active; 'I' for Inactive)
REMARK    1  A    between atoms: C4_5  and  N1_6 
REMARK    2  A    between atoms: N1_6  and  C5_7 
ROOT
HETATM    1  C5  UNL     1      23.001  -0.354  53.219  1.00  0.00     0.137 A 
HETATM    2  N2  UNL     1      22.770  -0.544  54.512  1.00  0.00    -0.224 NA
HETATM    3  C6  UNL     1      21.588  -0.269  55.069  1.00  0.00     0.235 A 
HETATM    4  N3  UNL     1      20.575   0.221  54.305  1.00  0.00    -0.245 NA
HETATM    5  C7  UNL     1      20.786   0.421  52.987  1.00  0.00     0.051 A 
HETATM    6  C8  UNL     1      22.056   0.132  52.364  1.00  0.00     0.013 A 
HETATM    7  C9  UNL     1      22.064   0.433  50.904  1.00  0.00     0.044 C 
HETATM    8  C10 UNL     1      22.581   1.792  50.541  1.00  0.00     0.005 C 
HETATM    9  C11 UNL     1      22.268   1.969  49.053  1.00  0.00     0.002 C 
HETATM   10  C12 UNL     1      22.545   3.330  48.529  1.00  0.00     0.019 C 
HETATM   11  C13 UNL     1      21.920   3.541  47.191  1.00  0.00     0.113 C 
HETATM   12  N4  UNL     1      20.572   3.905  47.075  1.00  0.00    -0.419 N 
HETATM   13  C14 UNL     1      19.503   3.118  47.500  1.00  0.00     0.140 C 
HETATM   14  C15 UNL     1      19.192   3.219  49.005  1.00  0.00     0.186 C 
HETATM   15  O1  UNL     1      18.291   2.321  49.395  1.00  0.00    -0.390 OA
HETATM   16  C16 UNL     1      18.020   2.226  50.735  1.00  0.00     0.168 C 
HETATM   17  C17 UNL     1      19.354   2.074  51.445  1.00  0.00     0.007 C 
HETATM   18  C18 UNL     1      19.634   0.944  52.172  1.00  0.00     0.080 C 
HETATM   19  H15 UNL     1      20.424   4.907  46.901  1.00  0.00     0.153 HD
ENDROOT
BRANCH   1  20
HETATM   20  N1  UNL     1      24.232  -0.615  52.562  1.00  0.00    -0.344 N 
HETATM   21  H3  UNL     1      24.430  -1.280  51.793  1.00  0.00     0.167 HD
BRANCH  20  22
HETATM   22  C4  UNL     1      25.356   0.132  53.010  1.00  0.00     0.012 A 
HETATM   23  C3  UNL     1      25.260   1.404  52.756  1.00  0.00     0.028 A 
HETATM   24  C2  UNL     1      26.393   2.190  53.203  1.00  0.00     0.041 A 
HETATM   25  C1  UNL     1      27.329   1.471  53.793  1.00  0.00     0.112 A 
HETATM   26  F1  UNL     1      28.426   2.153  54.239  1.00  0.00    -0.209 F 
HETATM   27  C20 UNL     1      27.529   0.056  54.123  1.00  0.00     0.150 A 
HETATM   28  C19 UNL     1      26.345  -0.753  53.652  1.00  0.00     0.084 A 
HETATM   29 CL1  UNL     1      29.055  -0.546  53.440  1.00  0.00    -0.117 Cl
ENDBRANCH  20  22
ENDBRANCH   1  20
TORSDOF 2
ENDMDL
