MODEL 1
REMARK VINA RESULT:      -8.7      0.000      0.000
REMARK  4 active torsions:
REMARK  status: ('A' for Active; 'I' for Inactive)
REMARK       I    between atoms: N1_2  and  C2_3 
REMARK    1  A    between atoms: N1_2  and  C10_14 
REMARK    2  A    between atoms: C2_3  and  C3_5 
REMARK    3  A    between atoms: C13_18  and  N3_19 
REMARK    4  A    between atoms: N3_19  and  C14_20 
ROOT
HETATM    1  C10 UNL     1      23.168  -0.058  53.459  1.00  0.00     0.152 A 
HETATM    2  C11 UNL     1      22.728  -0.631  54.611  1.00  0.00     0.071 A 
HETATM    3  C12 UNL     1      23.485  -1.279  55.558  1.00  0.00     0.140 A 
HETATM    4  N2  UNL     1      24.804  -1.343  55.304  1.00  0.00    -0.075 NA
HETATM    5  C13 UNL     1      25.312  -0.805  54.196  1.00  0.00     0.728 A 
HETATM    6  N4  UNL     1      24.517  -0.191  53.321  1.00  0.00    -0.045 NA
ENDROOT
BRANCH   1   7
HETATM    7  N1  UNL     1      22.447   0.620  52.447  1.00  0.00    -0.305 N 
HETATM    8  C1  UNL     1      21.232  -0.035  51.962  1.00  0.00     0.161 C 
HETATM    9  C2  UNL     1      22.779   1.846  51.860  1.00  0.00     0.240 C 
HETATM   10  O1  UNL     1      23.826   2.401  52.270  1.00  0.00    -0.272 OA
BRANCH   9  11
HETATM   11  C3  UNL     1      22.094   2.625  50.812  1.00  0.00     0.095 A 
HETATM   12  C4  UNL     1      20.570   2.652  50.985  1.00  0.00     0.033 C 
HETATM   13  C5  UNL     1      22.523   4.069  50.885  1.00  0.00     0.031 A 
HETATM   14 CL1  UNL     1      22.045   4.689  52.467  1.00  0.00    -0.088 Cl
HETATM   15  C6  UNL     1      23.139   4.887  50.053  1.00  0.00     0.020 A 
HETATM   16  C7  UNL     1      23.497   4.299  48.776  1.00  0.00    -0.001 A 
HETATM   17  C8  UNL     1      23.175   3.044  48.599  1.00  0.00    -0.005 A 
HETATM   18  C9  UNL     1      22.487   2.040  49.466  1.00  0.00     0.128 A 
HETATM   19 CL2  UNL     1      21.118   1.343  48.587  1.00  0.00    -0.119 Cl
ENDBRANCH   9  11
ENDBRANCH   1   7
BRANCH   5  20
HETATM   20  N3  UNL     1      26.712  -0.893  53.962  1.00  0.00    -0.189 N 
HETATM   21  H13 UNL     1      27.155  -1.824  53.776  1.00  0.00     0.184 HD
BRANCH  20  22
HETATM   22  C14 UNL     1      27.554   0.228  53.969  1.00  0.00     0.064 A 
HETATM   23  C15 UNL     1      27.342   1.363  53.325  1.00  0.00     0.029 A 
HETATM   24  C16 UNL     1      28.420   2.319  53.551  1.00  0.00     0.001 A 
HETATM   25  C17 UNL     1      29.276   1.713  54.351  1.00  0.00     0.016 A 
HETATM   26  C18 UNL     1      28.858   0.343  54.716  1.00  0.00     0.243 A 
HETATM   27  F1  UNL     1      29.778  -0.571  54.202  1.00  0.00    -0.239 F 
ENDBRANCH  20  22
ENDBRANCH   5  20
TORSDOF 4
ENDMDL
MODEL 2
REMARK VINA RESULT:      -8.5      2.049      3.037
REMARK  4 active torsions:
REMARK  status: ('A' for Active; 'I' for Inactive)
REMARK       I    between atoms: N1_2  and  C2_3 
REMARK    1  A    between atoms: N1_2  and  C10_14 
REMARK    2  A    between atoms: C2_3  and  C3_5 
REMARK    3  A    between atoms: C13_18  and  N3_19 
REMARK    4  A    between atoms: N3_19  and  C14_20 
ROOT
HETATM    1  C10 UNL     1      22.671   1.568  52.102  1.00  0.00     0.152 A 
HETATM    2  C11 UNL     1      21.577   1.321  52.868  1.00  0.00     0.071 A 
HETATM    3  C12 UNL     1      21.455   0.384  53.867  1.00  0.00     0.140 A 
HETATM    4  N2  UNL     1      22.550  -0.362  54.100  1.00  0.00    -0.075 NA
HETATM    5  C13 UNL     1      23.663  -0.179  53.391  1.00  0.00     0.728 A 
HETATM    6  N4  UNL     1      23.707   0.749  52.437  1.00  0.00    -0.045 NA
ENDROOT
BRANCH   1   7
HETATM    7  N1  UNL     1      22.862   2.511  51.064  1.00  0.00    -0.305 N 
HETATM    8  C1  UNL     1      22.577   2.051  49.704  1.00  0.00     0.161 C 
HETATM    9  C2  UNL     1      23.299   3.834  51.202  1.00  0.00     0.240 C 
HETATM   10  O1  UNL     1      23.551   4.223  52.367  1.00  0.00    -0.272 OA
BRANCH   9  11
HETATM   11  C3  UNL     1      23.521   4.882  50.190  1.00  0.00     0.095 A 
HETATM   12  C4  UNL     1      23.315   4.382  48.755  1.00  0.00     0.033 C 
HETATM   13  C5  UNL     1      22.511   5.988  50.368  1.00  0.00     0.031 A 
HETATM   14 CL1  UNL     1      20.907   5.291  50.132  1.00  0.00    -0.088 Cl
HETATM   15  C6  UNL     1      22.599   7.275  50.647  1.00  0.00     0.020 A 
HETATM   16  C7  UNL     1      23.952   7.767  50.826  1.00  0.00    -0.001 A 
HETATM   17  C8  UNL     1      24.914   6.892  50.696  1.00  0.00    -0.005 A 
HETATM   18  C9  UNL     1      24.923   5.430  50.388  1.00  0.00     0.128 A 
HETATM   19 CL2  UNL     1      25.989   5.127  49.008  1.00  0.00    -0.119 Cl
ENDBRANCH   9  11
ENDBRANCH   1   7
BRANCH   5  20
HETATM   20  N3  UNL     1      24.801  -0.988  53.667  1.00  0.00    -0.189 N 
HETATM   21  H13 UNL     1      24.687  -2.017  53.821  1.00  0.00     0.184 HD
BRANCH  20  22
HETATM   22  C14 UNL     1      26.099  -0.467  53.747  1.00  0.00     0.064 A 
HETATM   23  C15 UNL     1      26.593   0.238  54.752  1.00  0.00     0.029 A 
HETATM   24  C16 UNL     1      27.979   0.622  54.509  1.00  0.00     0.001 A 
HETATM   25  C17 UNL     1      28.289   0.122  53.328  1.00  0.00     0.016 A 
HETATM   26  C18 UNL     1      27.173  -0.616  52.700  1.00  0.00     0.243 A 
HETATM   27  F1  UNL     1      26.786   0.041  51.532  1.00  0.00    -0.239 F 
ENDBRANCH  20  22
ENDBRANCH   5  20
TORSDOF 4
ENDMDL
MODEL 3
REMARK VINA RESULT:      -8.5      2.642      4.075
REMARK  4 active torsions:
REMARK  status: ('A' for Active; 'I' for Inactive)
REMARK       I    between atoms: N1_2  and  C2_3 
REMARK    1  A    between atoms: N1_2  and  C10_14 
REMARK    2  A    between atoms: C2_3  and  C3_5 
REMARK    3  A    between atoms: C13_18  and  N3_19 
REMARK    4  A    between atoms: N3_19  and  C14_20 
ROOT
HETATM    1  C10 UNL     1      24.815   2.572  51.689  1.00  0.00     0.152 A 
HETATM    2  C11 UNL     1      23.735   1.771  51.888  1.00  0.00     0.071 A 
HETATM    3  C12 UNL     1      23.596   0.782  52.832  1.00  0.00     0.140 A 
HETATM    4  N2  UNL     1      24.654   0.599  53.642  1.00  0.00    -0.075 NA
HETATM    5  C13 UNL     1      25.751   1.345  53.511  1.00  0.00     0.728 A 
HETATM    6  N4  UNL     1      25.813   2.287  52.571  1.00  0.00    -0.045 NA
ENDROOT
BRANCH   1   7
HETATM    7  N1  UNL     1      25.022   3.603  50.742  1.00  0.00    -0.305 N 
HETATM    8  C1  UNL     1      26.008   3.337  49.694  1.00  0.00     0.161 C 
HETATM    9  C2  UNL     1      24.386   4.849  50.706  1.00  0.00     0.240 C 
HETATM   10  O1  UNL     1      23.548   5.079  51.610  1.00  0.00    -0.272 OA
BRANCH   9  11
HETATM   11  C3  UNL     1      24.532   5.974  49.765  1.00  0.00     0.095 A 
HETATM   12  C4  UNL     1      25.640   5.750  48.729  1.00  0.00     0.033 C 
HETATM   13  C5  UNL     1      23.268   6.133  48.957  1.00  0.00     0.031 A 
HETATM   14 CL1  UNL     1      23.028   4.644  48.041  1.00  0.00    -0.088 Cl
HETATM   15  C6  UNL     1      22.381   7.100  48.822  1.00  0.00     0.020 A 
HETATM   16  C7  UNL     1      22.652   8.289  49.609  1.00  0.00    -0.001 A 
HETATM   17  C8  UNL     1      23.726   8.264  50.353  1.00  0.00    -0.005 A 
HETATM   18  C9  UNL     1      24.783   7.232  50.578  1.00  0.00     0.128 A 
HETATM   19 CL2  UNL     1      26.374   7.945  50.279  1.00  0.00    -0.119 Cl
ENDBRANCH   9  11
ENDBRANCH   1   7
BRANCH   5  20
HETATM   20  N3  UNL     1      26.849   1.122  54.386  1.00  0.00    -0.189 N 
HETATM   21  H13 UNL     1      26.850   1.546  55.344  1.00  0.00     0.184 HD
BRANCH  20  22
HETATM   22  C14 UNL     1      27.959   0.345  54.027  1.00  0.00     0.064 A 
HETATM   23  C15 UNL     1      29.228   0.706  54.135  1.00  0.00     0.029 A 
HETATM   24  C16 UNL     1      30.126  -0.344  53.670  1.00  0.00     0.001 A 
HETATM   25  C17 UNL     1      29.349  -1.337  53.282  1.00  0.00     0.016 A 
HETATM   26  C18 UNL     1      27.910  -1.046  53.450  1.00  0.00     0.243 A 
HETATM   27  F1  UNL     1      27.297  -1.015  52.197  1.00  0.00    -0.239 F 
ENDBRANCH  20  22
ENDBRANCH   5  20
TORSDOF 4
ENDMDL
MODEL 4
REMARK VINA RESULT:      -8.2      1.759      2.450
REMARK  4 active torsions:
REMARK  status: ('A' for Active; 'I' for Inactive)
REMARK       I    between atoms: N1_2  and  C2_3 
REMARK    1  A    between atoms: N1_2  and  C10_14 
REMARK    2  A    between atoms: C2_3  and  C3_5 
REMARK    3  A    between atoms: C13_18  and  N3_19 
REMARK    4  A    between atoms: N3_19  and  C14_20 
ROOT
HETATM    1  C10 UNL     1      22.643   0.654  53.083  1.00  0.00     0.152 A 
HETATM    2  C11 UNL     1      21.623   0.145  53.822  1.00  0.00     0.071 A 
HETATM    3  C12 UNL     1      21.711  -0.785  54.831  1.00  0.00     0.140 A 
HETATM    4  N2  UNL     1      22.951  -1.229  55.106  1.00  0.00    -0.075 NA
HETATM    5  C13 UNL     1      24.004  -0.777  54.425  1.00  0.00     0.728 A 
HETATM    6  N4  UNL     1      23.841   0.126  53.459  1.00  0.00    -0.045 NA
ENDROOT
BRANCH   1   7
HETATM    7  N1  UNL     1      22.622   1.607  52.036  1.00  0.00    -0.305 N 
HETATM    8  C1  UNL     1      21.903   1.224  50.821  1.00  0.00     0.161 C 
HETATM    9  C2  UNL     1      23.220   2.872  52.042  1.00  0.00     0.240 C 
HETATM   10  O1  UNL     1      23.843   3.195  53.082  1.00  0.00    -0.272 OA
BRANCH   9  11
HETATM   11  C3  UNL     1      23.247   3.925  51.011  1.00  0.00     0.095 A 
HETATM   12  C4  UNL     1      24.147   5.109  51.386  1.00  0.00     0.033 C 
HETATM   13  C5  UNL     1      23.834   3.376  49.734  1.00  0.00     0.031 A 
HETATM   14 CL1  UNL     1      25.488   2.868  50.082  1.00  0.00    -0.088 Cl
HETATM   15  C6  UNL     1      23.376   3.217  48.507  1.00  0.00     0.020 A 
HETATM   16  C7  UNL     1      22.009   3.660  48.306  1.00  0.00    -0.001 A 
HETATM   17  C8  UNL     1      21.396   4.155  49.350  1.00  0.00    -0.005 A 
HETATM   18  C9  UNL     1      21.817   4.374  50.766  1.00  0.00     0.128 A 
HETATM   19 CL2  UNL     1      21.536   6.065  51.208  1.00  0.00    -0.119 Cl
ENDBRANCH   9  11
ENDBRANCH   1   7
BRANCH   5  20
HETATM   20  N3  UNL     1      25.299  -1.270  54.745  1.00  0.00    -0.189 N 
HETATM   21  H13 UNL     1      25.401  -2.141  55.317  1.00  0.00     0.184 HD
BRANCH  20  22
HETATM   22  C14 UNL     1      26.476  -0.636  54.324  1.00  0.00     0.064 A 
HETATM   23  C15 UNL     1      27.094   0.351  54.952  1.00  0.00     0.029 A 
HETATM   24  C16 UNL     1      28.293   0.775  54.237  1.00  0.00     0.001 A 
HETATM   25  C17 UNL     1      28.365   0.006  53.167  1.00  0.00     0.016 A 
HETATM   26  C18 UNL     1      27.256  -0.966  53.077  1.00  0.00     0.243 A 
HETATM   27  F1  UNL     1      26.484  -0.681  51.950  1.00  0.00    -0.239 F 
ENDBRANCH  20  22
ENDBRANCH   5  20
TORSDOF 4
ENDMDL
MODEL 5
REMARK VINA RESULT:      -8.1      8.551     11.053
REMARK  4 active torsions:
REMARK  status: ('A' for Active; 'I' for Inactive)
REMARK       I    between atoms: N1_2  and  C2_3 
REMARK    1  A    between atoms: N1_2  and  C10_14 
REMARK    2  A    between atoms: C2_3  and  C3_5 
REMARK    3  A    between atoms: C13_18  and  N3_19 
REMARK    4  A    between atoms: N3_19  and  C14_20 
ROOT
HETATM    1  C10 UNL     1      30.015   7.798  47.925  1.00  0.00     0.152 A 
HETATM    2  C11 UNL     1      29.889   8.849  48.776  1.00  0.00     0.071 A 
HETATM    3  C12 UNL     1      28.761   9.233  49.462  1.00  0.00     0.140 A 
HETATM    4  N2  UNL     1      27.670   8.473  49.258  1.00  0.00    -0.075 NA
HETATM    5  C13 UNL     1      27.713   7.424  48.437  1.00  0.00     0.728 A 
HETATM    6  N4  UNL     1      28.844   7.112  47.806  1.00  0.00    -0.045 NA
ENDROOT
BRANCH   1   7
HETATM    7  N1  UNL     1      31.140   7.350  47.191  1.00  0.00    -0.305 N 
HETATM    8  C1  UNL     1      31.336   7.947  45.870  1.00  0.00     0.161 C 
HETATM    9  C2  UNL     1      32.078   6.394  47.596  1.00  0.00     0.240 C 
HETATM   10  O1  UNL     1      31.903   5.876  48.725  1.00  0.00    -0.272 OA
BRANCH   9  11
HETATM   11  C3  UNL     1      33.273   5.871  46.908  1.00  0.00     0.095 A 
HETATM   12  C4  UNL     1      33.832   6.839  45.858  1.00  0.00     0.033 C 
HETATM   13  C5  UNL     1      34.393   5.682  47.902  1.00  0.00     0.031 A 
HETATM   14 CL1  UNL     1      34.770   7.262  48.590  1.00  0.00    -0.088 Cl
HETATM   15  C6  UNL     1      35.084   4.637  48.317  1.00  0.00     0.020 A 
HETATM   16  C7  UNL     1      34.711   3.377  47.702  1.00  0.00    -0.001 A 
HETATM   17  C8  UNL     1      33.745   3.420  46.822  1.00  0.00    -0.005 A 
HETATM   18  C9  UNL     1      32.906   4.534  46.288  1.00  0.00     0.128 A 
HETATM   19 CL2  UNL     1      32.994   4.543  44.521  1.00  0.00    -0.119 Cl
ENDBRANCH   9  11
ENDBRANCH   1   7
BRANCH   5  20
HETATM   20  N3  UNL     1      26.539   6.644  48.247  1.00  0.00    -0.189 N 
HETATM   21  H13 UNL     1      25.810   6.954  47.561  1.00  0.00     0.184 HD
BRANCH  20  22
HETATM   22  C14 UNL     1      26.298   5.454  48.947  1.00  0.00     0.064 A 
HETATM   23  C15 UNL     1      27.102   4.405  48.996  1.00  0.00     0.029 A 
HETATM   24  C16 UNL     1      26.543   3.337  49.816  1.00  0.00     0.001 A 
HETATM   25  C17 UNL     1      25.382   3.788  50.251  1.00  0.00     0.016 A 
HETATM   26  C18 UNL     1      25.075   5.153  49.774  1.00  0.00     0.243 A 
HETATM   27  F1  UNL     1      23.949   5.111  48.953  1.00  0.00    -0.239 F 
ENDBRANCH  20  22
ENDBRANCH   5  20
TORSDOF 4
ENDMDL
MODEL 6
REMARK VINA RESULT:      -8.1      2.633      4.994
REMARK  4 active torsions:
REMARK  status: ('A' for Active; 'I' for Inactive)
REMARK       I    between atoms: N1_2  and  C2_3 
REMARK    1  A    between atoms: N1_2  and  C10_14 
REMARK    2  A    between atoms: C2_3  and  C3_5 
REMARK    3  A    between atoms: C13_18  and  N3_19 
REMARK    4  A    between atoms: N3_19  and  C14_20 
ROOT
HETATM    1  C10 UNL     1      26.196   2.296  51.778  1.00  0.00     0.152 A 
HETATM    2  C11 UNL     1      27.353   2.195  52.483  1.00  0.00     0.071 A 
HETATM    3  C12 UNL     1      27.696   1.209  53.378  1.00  0.00     0.140 A 
HETATM    4  N2  UNL     1      26.776   0.246  53.563  1.00  0.00    -0.075 NA
HETATM    5  C13 UNL     1      25.616   0.276  52.908  1.00  0.00     0.728 A 
HETATM    6  N4  UNL     1      25.352   1.264  52.055  1.00  0.00    -0.045 NA
ENDROOT
BRANCH   1   7
HETATM    7  N1  UNL     1      25.781   3.279  50.846  1.00  0.00    -0.305 N 
HETATM    8  C1  UNL     1      26.567   3.385  49.617  1.00  0.00     0.161 C 
HETATM    9  C2  UNL     1      24.702   4.159  50.981  1.00  0.00     0.240 C 
HETATM   10  O1  UNL     1      24.034   4.073  52.039  1.00  0.00    -0.272 OA
BRANCH   9  11
HETATM   11  C3  UNL     1      24.195   5.203  50.071  1.00  0.00     0.095 A 
HETATM   12  C4  UNL     1      25.095   5.421  48.849  1.00  0.00     0.033 C 
HETATM   13  C5  UNL     1      22.860   4.785  49.506  1.00  0.00     0.031 A 
HETATM   14 CL1  UNL     1      23.110   3.296  48.592  1.00  0.00    -0.088 Cl
HETATM   15  C6  UNL     1      21.641   5.286  49.565  1.00  0.00     0.020 A 
HETATM   16  C7  UNL     1      21.523   6.509  50.335  1.00  0.00    -0.001 A 
HETATM   17  C8  UNL     1      22.622   6.967  50.877  1.00  0.00    -0.005 A 
HETATM   18  C9  UNL     1      24.034   6.482  50.874  1.00  0.00     0.128 A 
HETATM   19 CL2  UNL     1      25.101   7.783  50.326  1.00  0.00    -0.119 Cl
ENDBRANCH   9  11
ENDBRANCH   1   7
BRANCH   5  20
HETATM   20  N3  UNL     1      24.668  -0.761  53.131  1.00  0.00    -0.189 N 
HETATM   21  H13 UNL     1      24.922  -1.756  52.929  1.00  0.00     0.184 HD
BRANCH  20  22
HETATM   22  C14 UNL     1      23.377  -0.515  53.619  1.00  0.00     0.064 A 
HETATM   23  C15 UNL     1      22.830  -1.074  54.687  1.00  0.00     0.029 A 
HETATM   24  C16 UNL     1      21.473  -0.591  54.909  1.00  0.00     0.001 A 
HETATM   25  C17 UNL     1      21.234   0.272  53.940  1.00  0.00     0.016 A 
HETATM   26  C18 UNL     1      22.375   0.434  53.015  1.00  0.00     0.243 A 
HETATM   27  F1  UNL     1      22.006  -0.014  51.747  1.00  0.00    -0.239 F 
ENDBRANCH  20  22
ENDBRANCH   5  20
TORSDOF 4
ENDMDL
MODEL 7
REMARK VINA RESULT:      -7.8      4.396      6.740
REMARK  4 active torsions:
REMARK  status: ('A' for Active; 'I' for Inactive)
REMARK       I    between atoms: N1_2  and  C2_3 
REMARK    1  A    between atoms: N1_2  and  C10_14 
REMARK    2  A    between atoms: C2_3  and  C3_5 
REMARK    3  A    between atoms: C13_18  and  N3_19 
REMARK    4  A    between atoms: N3_19  and  C14_20 
ROOT
HETATM    1  C10 UNL     1      22.123   4.927  50.655  1.00  0.00     0.152 A 
HETATM    2  C11 UNL     1      21.225   5.937  50.517  1.00  0.00     0.071 A 
HETATM    3  C12 UNL     1      21.482   7.288  50.555  1.00  0.00     0.140 A 
HETATM    4  N2  UNL     1      22.768   7.629  50.749  1.00  0.00    -0.075 NA
HETATM    5  C13 UNL     1      23.708   6.696  50.892  1.00  0.00     0.728 A 
HETATM    6  N4  UNL     1      23.385   5.405  50.844  1.00  0.00    -0.045 NA
ENDROOT
BRANCH   1   7
HETATM    7  N1  UNL     1      21.927   3.525  50.626  1.00  0.00    -0.305 N 
HETATM    8  C1  UNL     1      21.945   2.891  49.307  1.00  0.00     0.161 C 
HETATM    9  C2  UNL     1      21.715   2.685  51.725  1.00  0.00     0.240 C 
HETATM   10  O1  UNL     1      21.691   3.232  52.854  1.00  0.00    -0.272 OA
BRANCH   9  11
HETATM   11  C3  UNL     1      21.507   1.227  51.793  1.00  0.00     0.095 A 
HETATM   12  C4  UNL     1      21.627   0.540  50.427  1.00  0.00     0.033 C 
HETATM   13  C5  UNL     1      22.581   0.597  52.645  1.00  0.00     0.031 A 
HETATM   14 CL1  UNL     1      24.135   0.921  51.873  1.00  0.00    -0.088 Cl
HETATM   15  C6  UNL     1      22.574  -0.095  53.768  1.00  0.00     0.020 A 
HETATM   16  C7  UNL     1      21.257  -0.317  54.337  1.00  0.00    -0.001 A 
HETATM   17  C8  UNL     1      20.245   0.189  53.682  1.00  0.00    -0.005 A 
HETATM   18  C9  UNL     1      20.145   0.980  52.419  1.00  0.00     0.128 A 
HETATM   19 CL2  UNL     1      19.010   0.187  51.316  1.00  0.00    -0.119 Cl
ENDBRANCH   9  11
ENDBRANCH   1   7
BRANCH   5  20
HETATM   20  N3  UNL     1      25.058   7.097  51.095  1.00  0.00    -0.189 N 
HETATM   21  H13 UNL     1      25.411   7.274  52.064  1.00  0.00     0.184 HD
BRANCH  20  22
HETATM   22  C14 UNL     1      25.963   7.273  50.039  1.00  0.00     0.064 A 
HETATM   23  C15 UNL     1      26.400   6.327  49.224  1.00  0.00     0.029 A 
HETATM   24  C16 UNL     1      27.333   6.858  48.237  1.00  0.00     0.001 A 
HETATM   25  C17 UNL     1      27.434   8.148  48.494  1.00  0.00     0.016 A 
HETATM   26  C18 UNL     1      26.603   8.577  49.638  1.00  0.00     0.243 A 
HETATM   27  F1  UNL     1      27.432   9.030  50.665  1.00  0.00    -0.239 F 
ENDBRANCH  20  22
ENDBRANCH   5  20
TORSDOF 4
ENDMDL
MODEL 8
REMARK VINA RESULT:      -7.7      9.632     12.084
REMARK  4 active torsions:
REMARK  status: ('A' for Active; 'I' for Inactive)
REMARK       I    between atoms: N1_2  and  C2_3 
REMARK    1  A    between atoms: N1_2  and  C10_14 
REMARK    2  A    between atoms: C2_3  and  C3_5 
REMARK    3  A    between atoms: C13_18  and  N3_19 
REMARK    4  A    between atoms: N3_19  and  C14_20 
ROOT
HETATM    1  C10 UNL     1      29.665   7.253  47.749  1.00  0.00     0.152 A 
HETATM    2  C11 UNL     1      28.538   6.511  47.908  1.00  0.00     0.071 A 
HETATM    3  C12 UNL     1      27.406   6.859  48.606  1.00  0.00     0.140 A 
HETATM    4  N2  UNL     1      27.432   8.071  49.188  1.00  0.00    -0.075 NA
HETATM    5  C13 UNL     1      28.501   8.858  49.078  1.00  0.00     0.728 A 
HETATM    6  N4  UNL     1      29.564   8.454  48.384  1.00  0.00    -0.045 NA
ENDROOT
BRANCH   1   7
HETATM    7  N1  UNL     1      30.859   6.957  47.048  1.00  0.00    -0.305 N 
HETATM    8  C1  UNL     1      31.055   7.649  45.773  1.00  0.00     0.161 C 
HETATM    9  C2  UNL     1      31.866   6.070  47.444  1.00  0.00     0.240 C 
HETATM   10  O1  UNL     1      31.692   5.471  48.532  1.00  0.00    -0.272 OA
BRANCH   9  11
HETATM   11  C3  UNL     1      33.135   5.704  46.788  1.00  0.00     0.095 A 
HETATM   12  C4  UNL     1      33.657   6.792  45.842  1.00  0.00     0.033 C 
HETATM   13  C5  UNL     1      34.217   5.534  47.826  1.00  0.00     0.031 A 
HETATM   14 CL1  UNL     1      34.420   7.084  48.645  1.00  0.00    -0.088 Cl
HETATM   15  C6  UNL     1      34.976   4.523  48.203  1.00  0.00     0.020 A 
HETATM   16  C7  UNL     1      34.746   3.287  47.480  1.00  0.00    -0.001 A 
HETATM   17  C8  UNL     1      33.824   3.315  46.553  1.00  0.00    -0.005 A 
HETATM   18  C9  UNL     1      32.917   4.392  46.055  1.00  0.00     0.128 A 
HETATM   19 CL2  UNL     1      33.091   4.541  44.300  1.00  0.00    -0.119 Cl
ENDBRANCH   9  11
ENDBRANCH   1   7
BRANCH   5  20
HETATM   20  N3  UNL     1      28.491  10.133  49.708  1.00  0.00    -0.189 N 
HETATM   21  H13 UNL     1      28.369  10.204  50.746  1.00  0.00     0.184 HD
BRANCH  20  22
HETATM   22  C14 UNL     1      28.637  11.332  48.996  1.00  0.00     0.064 A 
HETATM   23  C15 UNL     1      27.700  11.929  48.278  1.00  0.00     0.029 A 
HETATM   24  C16 UNL     1      28.192  13.160  47.670  1.00  0.00     0.001 A 
HETATM   25  C17 UNL     1      29.450  13.272  48.052  1.00  0.00     0.016 A 
HETATM   26  C18 UNL     1      29.893  12.162  48.920  1.00  0.00     0.243 A 
HETATM   27  F1  UNL     1      30.895  11.441  48.270  1.00  0.00    -0.239 F 
ENDBRANCH  20  22
ENDBRANCH   5  20
TORSDOF 4
ENDMDL
MODEL 9
REMARK VINA RESULT:      -7.6      8.927     11.661
REMARK  4 active torsions:
REMARK  status: ('A' for Active; 'I' for Inactive)
REMARK       I    between atoms: N1_2  and  C2_3 
REMARK    1  A    between atoms: N1_2  and  C10_14 
REMARK    2  A    between atoms: C2_3  and  C3_5 
REMARK    3  A    between atoms: C13_18  and  N3_19 
REMARK    4  A    between atoms: N3_19  and  C14_20 
ROOT
HETATM    1  C10 UNL     1      29.527   9.157  48.165  1.00  0.00     0.152 A 
HETATM    2  C11 UNL     1      29.208  10.477  48.191  1.00  0.00     0.071 A 
HETATM    3  C12 UNL     1      28.189  11.072  48.897  1.00  0.00     0.140 A 
HETATM    4  N2  UNL     1      27.436  10.243  49.640  1.00  0.00    -0.075 NA
HETATM    5  C13 UNL     1      27.686   8.934  49.667  1.00  0.00     0.728 A 
HETATM    6  N4  UNL     1      28.692   8.428  48.956  1.00  0.00    -0.045 NA
ENDROOT
BRANCH   1   7
HETATM    7  N1  UNL     1      30.556   8.482  47.464  1.00  0.00    -0.305 N 
HETATM    8  C1  UNL     1      30.228   8.011  46.118  1.00  0.00     0.161 C 
HETATM    9  C2  UNL     1      31.850   8.216  47.926  1.00  0.00     0.240 C 
HETATM   10  O1  UNL     1      32.127   8.613  49.083  1.00  0.00    -0.272 OA
BRANCH   9  11
HETATM   11  C3  UNL     1      32.980   7.531  47.273  1.00  0.00     0.095 A 
HETATM   12  C4  UNL     1      32.888   7.548  45.742  1.00  0.00     0.033 C 
HETATM   13  C5  UNL     1      34.268   8.246  47.596  1.00  0.00     0.031 A 
HETATM   14 CL1  UNL     1      34.144   9.887  46.957  1.00  0.00    -0.088 Cl
HETATM   15  C6  UNL     1      35.379   7.900  48.218  1.00  0.00     0.020 A 
HETATM   16  C7  UNL     1      35.400   6.536  48.712  1.00  0.00    -0.001 A 
HETATM   17  C8  UNL     1      34.330   5.818  48.490  1.00  0.00    -0.005 A 
HETATM   18  C9  UNL     1      33.034   6.110  47.807  1.00  0.00     0.128 A 
HETATM   19 CL2  UNL     1      32.738   4.889  46.561  1.00  0.00    -0.119 Cl
ENDBRANCH   9  11
ENDBRANCH   1   7
BRANCH   5  20
HETATM   20  N3  UNL     1      26.867   8.089  50.466  1.00  0.00    -0.189 N 
HETATM   21  H13 UNL     1      27.044   8.007  51.495  1.00  0.00     0.184 HD
BRANCH  20  22
HETATM   22  C14 UNL     1      25.807   7.340  49.936  1.00  0.00     0.064 A 
HETATM   23  C15 UNL     1      24.710   6.981  50.582  1.00  0.00     0.029 A 
HETATM   24  C16 UNL     1      23.814   6.207  49.730  1.00  0.00     0.001 A 
HETATM   25  C17 UNL     1      24.416   6.120  48.559  1.00  0.00     0.016 A 
HETATM   26  C18 UNL     1      25.725   6.806  48.529  1.00  0.00     0.243 A 
HETATM   27  F1  UNL     1      26.733   5.865  48.322  1.00  0.00    -0.239 F 
ENDBRANCH  20  22
ENDBRANCH   5  20
TORSDOF 4
ENDMDL
