MODEL 1
REMARK VINA RESULT:      -7.9      0.000      0.000
REMARK  6 active torsions:
REMARK  status: ('A' for Active; 'I' for Inactive)
REMARK    1  A    between atoms: C4_4  and  C5_5 
REMARK    2  A    between atoms: C6_6  and  N1_7 
REMARK    3  A    between atoms: N1_7  and  C7_8 
REMARK    4  A    between atoms: C8_10  and  O1_11 
REMARK    5  A    between atoms: O1_11  and  P1_12 
REMARK    6  A    between atoms: C12_17  and  O2_18 
ROOT
HETATM    1  C1  UNL     1      26.678   6.613  48.584  1.00  0.00     0.017 C 
HETATM    2  C2  UNL     1      26.928   5.444  48.779  1.00  0.00    -0.089 C 
HETATM    3  C3  UNL     1      27.208   4.059  48.991  1.00  0.00     0.063 C 
HETATM    4  C4  UNL     1      26.430   3.384  49.831  1.00  0.00     0.010 C 
ENDROOT
BRANCH   4   5
HETATM    5  C5  UNL     1      25.324   4.048  50.512  1.00  0.00     0.018 C 
HETATM    6  C6  UNL     1      24.585   3.381  51.397  1.00  0.00     0.090 C 
BRANCH   6   7
HETATM    7  N1  UNL     1      24.887   2.039  51.660  1.00  0.00    -0.350 N 
HETATM    8  H6  UNL     1      25.212   1.443  50.870  1.00  0.00     0.166 HD
BRANCH   7   9
HETATM    9  C7  UNL     1      24.930   1.059  52.691  1.00  0.00     0.140 A 
HETATM   10  N2  UNL     1      26.152   0.769  53.177  1.00  0.00    -0.188 NA
HETATM   11  C8  UNL     1      26.356  -0.133  54.150  1.00  0.00     0.274 A 
HETATM   12  N3  UNL     1      25.279  -0.766  54.647  1.00  0.00    -0.206 NA
HETATM   13  C9  UNL     1      24.024  -0.536  54.219  1.00  0.00     0.071 A 
HETATM   14  C10 UNL     1      23.815   0.393  53.217  1.00  0.00     0.023 A 
HETATM   15  C16 UNL     1      23.024  -1.344  54.911  1.00  0.00     0.032 C 
HETATM   16  C11 UNL     1      22.622   0.868  52.542  1.00  0.00     0.109 C 
HETATM   17  C12 UNL     1      21.353   0.753  53.286  1.00  0.00     0.050 C 
HETATM   18  C14 UNL     1      20.974  -0.064  54.262  1.00  0.00     0.032 C 
HETATM   19  C15 UNL     1      21.714  -1.138  54.927  1.00  0.00     0.005 C 
BRANCH  11  20
HETATM   20  O1  UNL     1      27.594  -0.465  54.684  1.00  0.00    -0.297 OA
BRANCH  20  21
HETATM   21  P1  UNL     1      29.086  -0.292  53.779  1.00  0.00     0.012 P 
HETATM   22  H7  UNL     1      28.845   0.667  52.707  1.00  0.00     0.085 HD
HETATM   23  H8  UNL     1      29.392  -1.563  53.118  1.00  0.00     0.085 HD
ENDBRANCH  20  21
ENDBRANCH  11  20
BRANCH  17  24
HETATM   24  O2  UNL     1      20.379   1.664  52.895  1.00  0.00    -0.360 OA
HETATM   25  C13 UNL     1      20.714   2.955  52.427  1.00  0.00     0.209 C 
ENDBRANCH  17  24
ENDBRANCH   7   9
ENDBRANCH   6   7
ENDBRANCH   4   5
TORSDOF 6
ENDMDL
MODEL 2
REMARK VINA RESULT:      -7.6      2.884      4.569
REMARK  6 active torsions:
REMARK  status: ('A' for Active; 'I' for Inactive)
REMARK    1  A    between atoms: C4_4  and  C5_5 
REMARK    2  A    between atoms: C6_6  and  N1_7 
REMARK    3  A    between atoms: N1_7  and  C7_8 
REMARK    4  A    between atoms: C8_10  and  O1_11 
REMARK    5  A    between atoms: O1_11  and  P1_12 
REMARK    6  A    between atoms: C12_17  and  O2_18 
ROOT
HETATM    1  C1  UNL     1      27.873   6.522  48.176  1.00  0.00     0.017 C 
HETATM    2  C2  UNL     1      27.555   5.426  48.582  1.00  0.00    -0.089 C 
HETATM    3  C3  UNL     1      27.167   4.129  49.041  1.00  0.00     0.063 C 
HETATM    4  C4  UNL     1      26.001   4.008  49.667  1.00  0.00     0.010 C 
ENDROOT
BRANCH   4   5
HETATM    5  C5  UNL     1      25.149   5.173  49.876  1.00  0.00     0.018 C 
HETATM    6  C6  UNL     1      24.338   5.229  50.931  1.00  0.00     0.090 C 
BRANCH   6   7
HETATM    7  N1  UNL     1      24.319   4.157  51.831  1.00  0.00    -0.350 N 
HETATM    8  H6  UNL     1      24.839   4.257  52.729  1.00  0.00     0.166 HD
BRANCH   7   9
HETATM    9  C7  UNL     1      23.818   2.840  52.030  1.00  0.00     0.140 A 
HETATM   10  N2  UNL     1      22.738   2.504  51.298  1.00  0.00    -0.188 NA
HETATM   11  C8  UNL     1      22.150   1.300  51.373  1.00  0.00     0.274 A 
HETATM   12  N3  UNL     1      22.678   0.402  52.225  1.00  0.00    -0.206 NA
HETATM   13  C9  UNL     1      23.754   0.655  52.992  1.00  0.00     0.071 A 
HETATM   14  C10 UNL     1      24.359   1.897  52.913  1.00  0.00     0.023 A 
HETATM   15  C16 UNL     1      24.138  -0.474  53.832  1.00  0.00     0.032 C 
HETATM   16  C11 UNL     1      25.504   2.483  53.583  1.00  0.00     0.109 C 
HETATM   17  C12 UNL     1      26.525   1.543  54.087  1.00  0.00     0.050 C 
HETATM   18  C14 UNL     1      26.449   0.267  54.446  1.00  0.00     0.032 C 
HETATM   19  C15 UNL     1      25.298  -0.637  54.456  1.00  0.00     0.005 C 
BRANCH  11  20
HETATM   20  O1  UNL     1      21.039   0.907  50.640  1.00  0.00    -0.297 OA
BRANCH  20  21
HETATM   21  P1  UNL     1      19.479   0.607  51.384  1.00  0.00     0.012 P 
HETATM   22  H7  UNL     1      18.493   1.428  50.689  1.00  0.00     0.085 HD
HETATM   23  H8  UNL     1      19.507   1.100  52.763  1.00  0.00     0.085 HD
ENDBRANCH  20  21
ENDBRANCH  11  20
BRANCH  17  24
HETATM   24  O2  UNL     1      27.795   2.094  54.208  1.00  0.00    -0.360 OA
HETATM   25  C13 UNL     1      28.959   1.357  53.889  1.00  0.00     0.209 C 
ENDBRANCH  17  24
ENDBRANCH   7   9
ENDBRANCH   6   7
ENDBRANCH   4   5
TORSDOF 6
ENDMDL
MODEL 3
REMARK VINA RESULT:      -7.5      1.392      1.638
REMARK  6 active torsions:
REMARK  status: ('A' for Active; 'I' for Inactive)
REMARK    1  A    between atoms: C4_4  and  C5_5 
REMARK    2  A    between atoms: C6_6  and  N1_7 
REMARK    3  A    between atoms: N1_7  and  C7_8 
REMARK    4  A    between atoms: C8_10  and  O1_11 
REMARK    5  A    between atoms: O1_11  and  P1_12 
REMARK    6  A    between atoms: C12_17  and  O2_18 
ROOT
HETATM    1  C1  UNL     1      23.109   6.155  48.287  1.00  0.00     0.017 C 
HETATM    2  C2  UNL     1      23.024   4.951  48.395  1.00  0.00    -0.089 C 
HETATM    3  C3  UNL     1      22.910   3.534  48.543  1.00  0.00     0.063 C 
HETATM    4  C4  UNL     1      23.802   2.910  49.305  1.00  0.00     0.010 C 
ENDROOT
BRANCH   4   5
HETATM    5  C5  UNL     1      24.864   3.660  49.967  1.00  0.00     0.018 C 
HETATM    6  C6  UNL     1      25.552   3.107  50.964  1.00  0.00     0.090 C 
BRANCH   6   7
HETATM    7  N1  UNL     1      25.240   1.802  51.364  1.00  0.00    -0.350 N 
HETATM    8  H6  UNL     1      24.859   1.146  50.650  1.00  0.00     0.166 HD
BRANCH   7   9
HETATM    9  C7  UNL     1      25.235   0.919  52.480  1.00  0.00     0.140 A 
HETATM   10  N2  UNL     1      26.442   0.619  52.998  1.00  0.00    -0.188 NA
HETATM   11  C8  UNL     1      26.602  -0.199  54.050  1.00  0.00     0.274 A 
HETATM   12  N3  UNL     1      25.495  -0.734  54.597  1.00  0.00    -0.206 NA
HETATM   13  C9  UNL     1      24.253  -0.487  54.142  1.00  0.00     0.071 A 
HETATM   14  C10 UNL     1      24.089   0.356  53.057  1.00  0.00     0.023 A 
HETATM   15  C16 UNL     1      23.215  -1.181  54.898  1.00  0.00     0.032 C 
HETATM   16  C11 UNL     1      22.921   0.822  52.334  1.00  0.00     0.109 C 
HETATM   17  C12 UNL     1      21.647   0.834  53.078  1.00  0.00     0.050 C 
HETATM   18  C14 UNL     1      21.228   0.128  54.121  1.00  0.00     0.032 C 
HETATM   19  C15 UNL     1      21.916  -0.914  54.887  1.00  0.00     0.005 C 
BRANCH  11  20
HETATM   20  O1  UNL     1      27.821  -0.538  54.620  1.00  0.00    -0.297 OA
BRANCH  20  21
HETATM   21  P1  UNL     1      29.277  -0.757  53.668  1.00  0.00     0.012 P 
HETATM   22  H7  UNL     1      29.434  -2.186  53.422  1.00  0.00     0.085 HD
HETATM   23  H8  UNL     1      30.436  -0.360  54.471  1.00  0.00     0.085 HD
ENDBRANCH  20  21
ENDBRANCH  11  20
BRANCH  17  24
HETATM   24  O2  UNL     1      20.717   1.749  52.599  1.00  0.00    -0.360 OA
HETATM   25  C13 UNL     1      21.102   3.034  52.149  1.00  0.00     0.209 C 
ENDBRANCH  17  24
ENDBRANCH   7   9
ENDBRANCH   6   7
ENDBRANCH   4   5
TORSDOF 6
ENDMDL
MODEL 4
REMARK VINA RESULT:      -7.4      1.607      2.327
REMARK  6 active torsions:
REMARK  status: ('A' for Active; 'I' for Inactive)
REMARK    1  A    between atoms: C4_4  and  C5_5 
REMARK    2  A    between atoms: C6_6  and  N1_7 
REMARK    3  A    between atoms: N1_7  and  C7_8 
REMARK    4  A    between atoms: C8_10  and  O1_11 
REMARK    5  A    between atoms: O1_11  and  P1_12 
REMARK    6  A    between atoms: C12_17  and  O2_18 
ROOT
HETATM    1  C1  UNL     1      27.389   8.340  48.889  1.00  0.00     0.017 C 
HETATM    2  C2  UNL     1      26.470   7.816  49.479  1.00  0.00    -0.089 C 
HETATM    3  C3  UNL     1      25.402   7.191  50.194  1.00  0.00     0.063 C 
HETATM    4  C4  UNL     1      25.227   5.883  50.042  1.00  0.00     0.010 C 
ENDROOT
BRANCH   4   5
HETATM    5  C5  UNL     1      26.106   5.115  49.167  1.00  0.00     0.018 C 
HETATM    6  C6  UNL     1      26.662   3.985  49.601  1.00  0.00     0.090 C 
BRANCH   6   7
HETATM    7  N1  UNL     1      26.388   3.549  50.904  1.00  0.00    -0.350 N 
HETATM    8  H6  UNL     1      25.969   4.229  51.573  1.00  0.00     0.166 HD
BRANCH   7   9
HETATM    9  C7  UNL     1      26.464   2.424  51.772  1.00  0.00     0.140 A 
HETATM   10  N2  UNL     1      27.691   2.121  52.238  1.00  0.00    -0.188 NA
HETATM   11  C8  UNL     1      27.924   1.090  53.065  1.00  0.00     0.274 A 
HETATM   12  N3  UNL     1      26.872   0.337  53.433  1.00  0.00    -0.206 NA
HETATM   13  C9  UNL     1      25.614   0.571  53.015  1.00  0.00     0.071 A 
HETATM   14  C10 UNL     1      25.375   1.633  52.163  1.00  0.00     0.023 A 
HETATM   15  C16 UNL     1      24.645  -0.380  53.551  1.00  0.00     0.032 C 
HETATM   16  C11 UNL     1      24.171   2.150  51.540  1.00  0.00     0.109 C 
HETATM   17  C12 UNL     1      22.898   1.861  52.227  1.00  0.00     0.050 C 
HETATM   18  C14 UNL     1      22.544   0.886  53.056  1.00  0.00     0.032 C 
HETATM   19  C15 UNL     1      23.326  -0.241  53.567  1.00  0.00     0.005 C 
BRANCH  11  20
HETATM   20  O1  UNL     1      29.168   0.738  53.572  1.00  0.00    -0.297 OA
BRANCH  20  21
HETATM   21  P1  UNL     1      29.722  -0.924  53.635  1.00  0.00     0.012 P 
HETATM   22  H7  UNL     1      28.543  -1.782  53.695  1.00  0.00     0.085 HD
HETATM   23  H8  UNL     1      30.437  -1.139  54.895  1.00  0.00     0.085 HD
ENDBRANCH  20  21
ENDBRANCH  11  20
BRANCH  17  24
HETATM   24  O2  UNL     1      21.886   2.775  51.957  1.00  0.00    -0.360 OA
HETATM   25  C13 UNL     1      22.156   4.149  51.763  1.00  0.00     0.209 C 
ENDBRANCH  17  24
ENDBRANCH   7   9
ENDBRANCH   6   7
ENDBRANCH   4   5
TORSDOF 6
ENDMDL
MODEL 5
REMARK VINA RESULT:      -7.3      3.363      4.942
REMARK  6 active torsions:
REMARK  status: ('A' for Active; 'I' for Inactive)
REMARK    1  A    between atoms: C4_4  and  C5_5 
REMARK    2  A    between atoms: C6_6  and  N1_7 
REMARK    3  A    between atoms: N1_7  and  C7_8 
REMARK    4  A    between atoms: C8_10  and  O1_11 
REMARK    5  A    between atoms: O1_11  and  P1_12 
REMARK    6  A    between atoms: C12_17  and  O2_18 
ROOT
HETATM    1  C1  UNL     1      28.229   5.704  48.341  1.00  0.00     0.017 C 
HETATM    2  C2  UNL     1      27.556   4.803  48.793  1.00  0.00    -0.089 C 
HETATM    3  C3  UNL     1      26.751   3.739  49.304  1.00  0.00     0.063 C 
HETATM    4  C4  UNL     1      25.607   4.052  49.905  1.00  0.00     0.010 C 
ENDROOT
BRANCH   4   5
HETATM    5  C5  UNL     1      25.196   5.446  50.034  1.00  0.00     0.018 C 
HETATM    6  C6  UNL     1      24.363   5.810  51.007  1.00  0.00     0.090 C 
BRANCH   6   7
HETATM    7  N1  UNL     1      23.893   4.839  51.899  1.00  0.00    -0.350 N 
HETATM    8  H6  UNL     1      24.451   4.646  52.758  1.00  0.00     0.166 HD
BRANCH   7   9
HETATM    9  C7  UNL     1      22.841   3.907  52.124  1.00  0.00     0.140 A 
HETATM   10  N2  UNL     1      21.608   4.312  51.761  1.00  0.00    -0.188 NA
HETATM   11  C8  UNL     1      20.515   3.548  51.910  1.00  0.00     0.274 A 
HETATM   12  N3  UNL     1      20.678   2.326  52.448  1.00  0.00    -0.206 NA
HETATM   13  C9  UNL     1      21.873   1.844  52.836  1.00  0.00     0.071 A 
HETATM   14  C10 UNL     1      22.999   2.632  52.683  1.00  0.00     0.023 A 
HETATM   15  C16 UNL     1      21.796   0.495  53.389  1.00  0.00     0.032 C 
HETATM   16  C11 UNL     1      24.401   2.424  52.990  1.00  0.00     0.109 C 
HETATM   17  C12 UNL     1      24.866   1.025  53.034  1.00  0.00     0.050 C 
HETATM   18  C14 UNL     1      24.221  -0.112  53.273  1.00  0.00     0.032 C 
HETATM   19  C15 UNL     1      22.808  -0.343  53.575  1.00  0.00     0.005 C 
BRANCH  11  20
HETATM   20  O1  UNL     1      19.226   3.919  51.551  1.00  0.00    -0.297 OA
BRANCH  20  21
HETATM   21  P1  UNL     1      17.955   2.746  51.265  1.00  0.00     0.012 P 
HETATM   22  H7  UNL     1      17.491   2.922  49.892  1.00  0.00     0.085 HD
HETATM   23  H8  UNL     1      16.808   3.070  52.117  1.00  0.00     0.085 HD
ENDBRANCH  20  21
ENDBRANCH  11  20
BRANCH  17  24
HETATM   24  O2  UNL     1      26.223   0.867  52.781  1.00  0.00    -0.360 OA
HETATM   25  C13 UNL     1      26.715  -0.208  52.004  1.00  0.00     0.209 C 
ENDBRANCH  17  24
ENDBRANCH   7   9
ENDBRANCH   6   7
ENDBRANCH   4   5
TORSDOF 6
ENDMDL
MODEL 6
REMARK VINA RESULT:      -6.9      2.896      5.354
REMARK  6 active torsions:
REMARK  status: ('A' for Active; 'I' for Inactive)
REMARK    1  A    between atoms: C4_4  and  C5_5 
REMARK    2  A    between atoms: C6_6  and  N1_7 
REMARK    3  A    between atoms: N1_7  and  C7_8 
REMARK    4  A    between atoms: C8_10  and  O1_11 
REMARK    5  A    between atoms: O1_11  and  P1_12 
REMARK    6  A    between atoms: C12_17  and  O2_18 
ROOT
HETATM    1  C1  UNL     1      20.832   1.028  49.267  1.00  0.00     0.017 C 
HETATM    2  C2  UNL     1      20.731   0.740  50.440  1.00  0.00    -0.089 C 
HETATM    3  C3  UNL     1      20.587   0.398  51.820  1.00  0.00     0.063 C 
HETATM    4  C4  UNL     1      20.403   1.383  52.693  1.00  0.00     0.010 C 
ENDROOT
BRANCH   4   5
HETATM    5  C5  UNL     1      20.350   2.770  52.244  1.00  0.00     0.018 C 
HETATM    6  C6  UNL     1      21.468   3.490  52.162  1.00  0.00     0.090 C 
BRANCH   6   7
HETATM    7  N1  UNL     1      22.687   2.896  52.510  1.00  0.00    -0.350 N 
HETATM    8  H6  UNL     1      22.779   2.482  53.462  1.00  0.00     0.166 HD
BRANCH   7   9
HETATM    9  C7  UNL     1      23.993   2.600  52.029  1.00  0.00     0.140 A 
HETATM   10  N2  UNL     1      24.582   3.563  51.295  1.00  0.00    -0.188 NA
HETATM   11  C8  UNL     1      25.812   3.434  50.772  1.00  0.00     0.274 A 
HETATM   12  N3  UNL     1      26.468   2.282  51.002  1.00  0.00    -0.206 NA
HETATM   13  C9  UNL     1      25.952   1.270  51.724  1.00  0.00     0.071 A 
HETATM   14  C10 UNL     1      24.685   1.404  52.262  1.00  0.00     0.023 A 
HETATM   15  C16 UNL     1      26.853   0.127  51.833  1.00  0.00     0.032 C 
HETATM   16  C11 UNL     1      23.856   0.530  53.068  1.00  0.00     0.109 C 
HETATM   17  C12 UNL     1      24.559  -0.479  53.883  1.00  0.00     0.050 C 
HETATM   18  C14 UNL     1      25.746  -1.057  53.741  1.00  0.00     0.032 C 
HETATM   19  C15 UNL     1      26.761  -0.872  52.702  1.00  0.00     0.005 C 
BRANCH  11  20
HETATM   20  O1  UNL     1      26.461   4.396  50.012  1.00  0.00    -0.297 OA
BRANCH  20  21
HETATM   21  P1  UNL     1      25.599   5.672  49.172  1.00  0.00     0.012 P 
HETATM   22  H7  UNL     1      24.800   6.390  50.159  1.00  0.00     0.085 HD
HETATM   23  H8  UNL     1      24.639   5.067  48.245  1.00  0.00     0.085 HD
ENDBRANCH  20  21
ENDBRANCH  11  20
BRANCH  17  24
HETATM   24  O2  UNL     1      23.852  -0.901  55.003  1.00  0.00    -0.360 OA
HETATM   25  C13 UNL     1      22.461  -1.154  54.952  1.00  0.00     0.209 C 
ENDBRANCH  17  24
ENDBRANCH   7   9
ENDBRANCH   6   7
ENDBRANCH   4   5
TORSDOF 6
ENDMDL
MODEL 7
REMARK VINA RESULT:      -6.6      3.321      4.894
REMARK  6 active torsions:
REMARK  status: ('A' for Active; 'I' for Inactive)
REMARK    1  A    between atoms: C4_4  and  C5_5 
REMARK    2  A    between atoms: C6_6  and  N1_7 
REMARK    3  A    between atoms: N1_7  and  C7_8 
REMARK    4  A    between atoms: C8_10  and  O1_11 
REMARK    5  A    between atoms: O1_11  and  P1_12 
REMARK    6  A    between atoms: C12_17  and  O2_18 
ROOT
HETATM    1  C1  UNL     1      26.712   3.233  49.559  1.00  0.00     0.017 C 
HETATM    2  C2  UNL     1      25.784   3.884  49.984  1.00  0.00    -0.089 C 
HETATM    3  C3  UNL     1      24.684   4.636  50.503  1.00  0.00     0.063 C 
HETATM    4  C4  UNL     1      23.468   4.367  50.039  1.00  0.00     0.010 C 
ENDROOT
BRANCH   4   5
HETATM    5  C5  UNL     1      23.272   3.333  49.030  1.00  0.00     0.018 C 
HETATM    6  C6  UNL     1      22.891   2.109  49.391  1.00  0.00     0.090 C 
BRANCH   6   7
HETATM    7  N1  UNL     1      22.684   1.834  50.748  1.00  0.00    -0.350 N 
HETATM    8  H6  UNL     1      23.222   2.384  51.450  1.00  0.00     0.166 HD
BRANCH   7   9
HETATM    9  C7  UNL     1      21.950   1.011  51.648  1.00  0.00     0.140 A 
HETATM   10  N2  UNL     1      20.666   0.775  51.317  1.00  0.00    -0.188 NA
HETATM   11  C8  UNL     1      19.846   0.020  52.064  1.00  0.00     0.274 A 
HETATM   12  N3  UNL     1      20.348  -0.517  53.191  1.00  0.00    -0.206 NA
HETATM   13  C9  UNL     1      21.619  -0.332  53.594  1.00  0.00     0.071 A 
HETATM   14  C10 UNL     1      22.463   0.447  52.824  1.00  0.00     0.023 A 
HETATM   15  C16 UNL     1      21.928  -1.014  54.847  1.00  0.00     0.032 C 
HETATM   16  C11 UNL     1      23.852   0.838  52.966  1.00  0.00     0.109 C 
HETATM   17  C12 UNL     1      24.711  -0.058  53.763  1.00  0.00     0.050 C 
HETATM   18  C14 UNL     1      24.427  -0.921  54.732  1.00  0.00     0.032 C 
HETATM   19  C15 UNL     1      23.137  -1.266  55.333  1.00  0.00     0.005 C 
BRANCH  11  20
HETATM   20  O1  UNL     1      18.518  -0.253  51.766  1.00  0.00    -0.297 OA
BRANCH  20  21
HETATM   21  P1  UNL     1      17.406   0.983  51.209  1.00  0.00     0.012 P 
HETATM   22  H7  UNL     1      16.687   1.489  52.374  1.00  0.00     0.085 HD
HETATM   23  H8  UNL     1      16.392   0.361  50.354  1.00  0.00     0.085 HD
ENDBRANCH  20  21
ENDBRANCH  11  20
BRANCH  17  24
HETATM   24  O2  UNL     1      26.061   0.013  53.442  1.00  0.00    -0.360 OA
HETATM   25  C13 UNL     1      26.517  -0.116  52.110  1.00  0.00     0.209 C 
ENDBRANCH  17  24
ENDBRANCH   7   9
ENDBRANCH   6   7
ENDBRANCH   4   5
TORSDOF 6
ENDMDL
MODEL 8
REMARK VINA RESULT:      -6.5      3.168      5.523
REMARK  6 active torsions:
REMARK  status: ('A' for Active; 'I' for Inactive)
REMARK    1  A    between atoms: C4_4  and  C5_5 
REMARK    2  A    between atoms: C6_6  and  N1_7 
REMARK    3  A    between atoms: N1_7  and  C7_8 
REMARK    4  A    between atoms: C8_10  and  O1_11 
REMARK    5  A    between atoms: O1_11  and  P1_12 
REMARK    6  A    between atoms: C12_17  and  O2_18 
ROOT
HETATM    1  C1  UNL     1      26.953  -1.764  52.544  1.00  0.00     0.017 C 
HETATM    2  C2  UNL     1      26.533  -0.915  53.300  1.00  0.00    -0.089 C 
HETATM    3  C3  UNL     1      26.019   0.091  54.175  1.00  0.00     0.063 C 
HETATM    4  C4  UNL     1      26.413   1.347  53.986  1.00  0.00     0.010 C 
ENDROOT
BRANCH   4   5
HETATM    5  C5  UNL     1      27.344   1.677  52.913  1.00  0.00     0.018 C 
HETATM    6  C6  UNL     1      26.885   2.100  51.736  1.00  0.00     0.090 C 
BRANCH   6   7
HETATM    7  N1  UNL     1      25.503   2.221  51.548  1.00  0.00    -0.350 N 
HETATM    8  H6  UNL     1      24.940   1.350  51.452  1.00  0.00     0.166 HD
BRANCH   7   9
HETATM    9  C7  UNL     1      24.445   3.165  51.423  1.00  0.00     0.140 A 
HETATM   10  N2  UNL     1      24.770   4.342  50.856  1.00  0.00    -0.188 NA
HETATM   11  C8  UNL     1      23.884   5.332  50.669  1.00  0.00     0.274 A 
HETATM   12  N3  UNL     1      22.619   5.120  51.073  1.00  0.00    -0.206 NA
HETATM   13  C9  UNL     1      22.210   3.974  51.648  1.00  0.00     0.071 A 
HETATM   14  C10 UNL     1      23.124   2.954  51.841  1.00  0.00     0.023 A 
HETATM   15  C16 UNL     1      20.793   3.981  52.000  1.00  0.00     0.032 C 
HETATM   16  C11 UNL     1      23.019   1.626  52.415  1.00  0.00     0.109 C 
HETATM   17  C12 UNL     1      21.683   1.000  52.385  1.00  0.00     0.050 C 
HETATM   18  C14 UNL     1      20.464   1.523  52.336  1.00  0.00     0.032 C 
HETATM   19  C15 UNL     1      20.046   2.925  52.295  1.00  0.00     0.005 C 
BRANCH  11  20
HETATM   20  O1  UNL     1      24.169   6.561  50.089  1.00  0.00    -0.297 OA
BRANCH  20  21
HETATM   21  P1  UNL     1      25.732   6.927  49.382  1.00  0.00     0.012 P 
HETATM   22  H7  UNL     1      25.905   6.063  48.219  1.00  0.00     0.085 HD
HETATM   23  H8  UNL     1      26.783   6.541  50.325  1.00  0.00     0.085 HD
ENDBRANCH  20  21
ENDBRANCH  11  20
BRANCH  17  24
HETATM   24  O2  UNL     1      21.706  -0.390  52.413  1.00  0.00    -0.360 OA
HETATM   25  C13 UNL     1      22.371  -1.102  53.439  1.00  0.00     0.209 C 
ENDBRANCH  17  24
ENDBRANCH   7   9
ENDBRANCH   6   7
ENDBRANCH   4   5
TORSDOF 6
ENDMDL
MODEL 9
REMARK VINA RESULT:      -6.5      6.812     11.042
REMARK  6 active torsions:
REMARK  status: ('A' for Active; 'I' for Inactive)
REMARK    1  A    between atoms: C4_4  and  C5_5 
REMARK    2  A    between atoms: C6_6  and  N1_7 
REMARK    3  A    between atoms: N1_7  and  C7_8 
REMARK    4  A    between atoms: C8_10  and  O1_11 
REMARK    5  A    between atoms: O1_11  and  P1_12 
REMARK    6  A    between atoms: C12_17  and  O2_18 
ROOT
HETATM    1  C1  UNL     1      25.926   3.143  50.039  1.00  0.00     0.017 C 
HETATM    2  C2  UNL     1      25.968   4.309  49.712  1.00  0.00    -0.089 C 
HETATM    3  C3  UNL     1      26.008   5.678  49.304  1.00  0.00     0.063 C 
HETATM    4  C4  UNL     1      27.083   6.105  48.650  1.00  0.00     0.010 C 
ENDROOT
BRANCH   4   5
HETATM    5  C5  UNL     1      28.185   5.194  48.362  1.00  0.00     0.018 C 
HETATM    6  C6  UNL     1      29.445   5.617  48.455  1.00  0.00     0.090 C 
BRANCH   6   7
HETATM    7  N1  UNL     1      29.691   6.942  48.834  1.00  0.00    -0.350 N 
HETATM    8  H6  UNL     1      29.128   7.345  49.612  1.00  0.00     0.166 HD
BRANCH   7   9
HETATM    9  C7  UNL     1      30.492   8.083  48.546  1.00  0.00     0.140 A 
HETATM   10  N2  UNL     1      31.705   7.832  48.016  1.00  0.00    -0.188 NA
HETATM   11  C8  UNL     1      32.574   8.802  47.691  1.00  0.00     0.274 A 
HETATM   12  N3  UNL     1      32.200  10.074  47.914  1.00  0.00    -0.206 NA
HETATM   13  C9  UNL     1      31.007  10.412  48.439  1.00  0.00     0.071 A 
HETATM   14  C10 UNL     1      30.112   9.412  48.774  1.00  0.00     0.023 A 
HETATM   15  C16 UNL     1      30.832  11.853  48.584  1.00  0.00     0.032 C 
HETATM   16  C11 UNL     1      28.779   9.429  49.344  1.00  0.00     0.109 C 
HETATM   17  C12 UNL     1      27.987  10.655  49.132  1.00  0.00     0.050 C 
HETATM   18  C14 UNL     1      28.350  11.912  48.902  1.00  0.00     0.032 C 
HETATM   19  C15 UNL     1      29.687  12.495  48.784  1.00  0.00     0.005 C 
BRANCH  11  20
HETATM   20  O1  UNL     1      33.832   8.595  47.142  1.00  0.00    -0.297 OA
BRANCH  20  21
HETATM   21  P1  UNL     1      35.208   8.092  48.106  1.00  0.00     0.012 P 
HETATM   22  H7  UNL     1      35.657   6.800  47.597  1.00  0.00     0.085 HD
HETATM   23  H8  UNL     1      34.763   7.846  49.480  1.00  0.00     0.085 HD
ENDBRANCH  20  21
ENDBRANCH  11  20
BRANCH  17  24
HETATM   24  O2  UNL     1      26.612  10.460  49.181  1.00  0.00    -0.360 OA
HETATM   25  C13 UNL     1      25.742  11.054  48.237  1.00  0.00     0.209 C 
ENDBRANCH  17  24
ENDBRANCH   7   9
ENDBRANCH   6   7
ENDBRANCH   4   5
TORSDOF 6
ENDMDL
