MODEL 1
REMARK VINA RESULT:      -8.8      0.000      0.000
REMARK  5 active torsions:
REMARK  status: ('A' for Active; 'I' for Inactive)
REMARK    1  A    between atoms: O1_1  and  C1_2 
REMARK    2  A    between atoms: C6_7  and  C7_8 
REMARK    3  A    between atoms: C7_8  and  N1_9 
REMARK    4  A    between atoms: N1_9  and  C8_10 
REMARK    5  A    between atoms: N2_17  and  C15_18 
ROOT
HETATM    1  C8  UNL     1      24.085  -0.167  53.453  1.00  0.00     0.028 A 
HETATM    2  C9  UNL     1      22.832  -0.734  53.602  1.00  0.00     0.031 A 
HETATM    3  C10 UNL     1      21.661  -0.010  53.343  1.00  0.00     0.034 A 
HETATM    4  C11 UNL     1      21.798   1.317  52.926  1.00  0.00     0.066 A 
HETATM    5  C12 UNL     1      23.038   1.886  52.776  1.00  0.00    -0.009 A 
HETATM    6  C13 UNL     1      24.168   1.144  53.040  1.00  0.00     0.040 A 
HETATM    7  C14 UNL     1      23.175   3.291  52.335  1.00  0.00     0.165 A 
HETATM    8  N2  UNL     1      21.893   3.907  52.100  1.00  0.00    -0.360 N 
HETATM    9  C20 UNL     1      20.628   3.291  52.264  1.00  0.00     0.206 A 
HETATM   10  N3  UNL     1      20.608   2.060  52.658  1.00  0.00    -0.244 NA
ENDROOT
BRANCH   1  11
HETATM   11  N1  UNL     1      25.260  -0.919  53.718  1.00  0.00    -0.386 N 
HETATM   12  H8  UNL     1      25.469  -1.210  54.701  1.00  0.00     0.160 HD
BRANCH  11  13
HETATM   13  C7  UNL     1      26.195  -1.316  52.716  1.00  0.00     0.161 C 
BRANCH  13  14
HETATM   14  C6  UNL     1      27.609  -0.923  53.050  1.00  0.00    -0.007 A 
HETATM   15  C1  UNL     1      28.589  -1.893  53.119  1.00  0.00     0.073 A 
HETATM   16  C2  UNL     1      29.902  -1.538  53.428  1.00  0.00     0.037 A 
HETATM   17  C3  UNL     1      30.253  -0.210  53.670  1.00  0.00     0.003 A 
HETATM   18  C4  UNL     1      29.217   0.704  53.582  1.00  0.00     0.001 A 
HETATM   19  C5  UNL     1      27.913   0.400  53.281  1.00  0.00     0.011 A 
BRANCH  15  20
HETATM   20  O1  UNL     1      28.311  -3.248  52.888  1.00  0.00    -0.360 OA
HETATM   21  H1  UNL     1      28.958  -3.816  52.339  1.00  0.00     0.217 HD
ENDBRANCH  15  20
ENDBRANCH  13  14
ENDBRANCH  11  13
ENDBRANCH   1  11
BRANCH   8  22
HETATM   22  C15 UNL     1      21.927   5.296  51.651  1.00  0.00     0.133 A 
HETATM   23  C16 UNL     1      20.922   5.492  50.566  1.00  0.00     0.004 A 
HETATM   24  C17 UNL     1      21.474   5.703  49.390  1.00  0.00     0.022 A 
HETATM   25  C18 UNL     1      22.918   5.658  49.624  1.00  0.00     0.032 A 
HETATM   26 CL1  UNL     1      24.170   5.877  48.402  1.00  0.00    -0.085 Cl
HETATM   27  C19 UNL     1      23.205   5.433  50.879  1.00  0.00     0.026 A 
ENDBRANCH   8  22
TORSDOF 5
ENDMDL
MODEL 2
REMARK VINA RESULT:      -8.6      4.498      5.701
REMARK  5 active torsions:
REMARK  status: ('A' for Active; 'I' for Inactive)
REMARK    1  A    between atoms: O1_1  and  C1_2 
REMARK    2  A    between atoms: C6_7  and  C7_8 
REMARK    3  A    between atoms: C7_8  and  N1_9 
REMARK    4  A    between atoms: N1_9  and  C8_10 
REMARK    5  A    between atoms: N2_17  and  C15_18 
ROOT
HETATM    1  C8  UNL     1      25.259   2.580  51.086  1.00  0.00     0.028 A 
HETATM    2  C9  UNL     1      24.251   3.485  51.365  1.00  0.00     0.031 A 
HETATM    3  C10 UNL     1      24.279   4.795  50.869  1.00  0.00     0.034 A 
HETATM    4  C11 UNL     1      25.369   5.164  50.076  1.00  0.00     0.066 A 
HETATM    5  C12 UNL     1      26.373   4.272  49.796  1.00  0.00    -0.009 A 
HETATM    6  C13 UNL     1      26.312   2.992  50.301  1.00  0.00     0.040 A 
HETATM    7  C14 UNL     1      27.523   4.670  48.955  1.00  0.00     0.165 A 
HETATM    8  N2  UNL     1      27.416   6.037  48.512  1.00  0.00    -0.360 N 
HETATM    9  C20 UNL     1      26.364   6.935  48.820  1.00  0.00     0.206 A 
HETATM   10  N3  UNL     1      25.403   6.498  49.565  1.00  0.00    -0.244 NA
ENDROOT
BRANCH   1  11
HETATM   11  N1  UNL     1      25.209   1.256  51.597  1.00  0.00    -0.386 N 
HETATM   12  H8  UNL     1      24.974   0.468  50.950  1.00  0.00     0.160 HD
BRANCH  11  13
HETATM   13  C7  UNL     1      25.463   0.918  52.960  1.00  0.00     0.161 C 
BRANCH  13  14
HETATM   14  C6  UNL     1      26.885   0.483  53.197  1.00  0.00    -0.007 A 
HETATM   15  C1  UNL     1      27.811   1.399  53.654  1.00  0.00     0.073 A 
HETATM   16  C2  UNL     1      29.131   1.005  53.877  1.00  0.00     0.037 A 
HETATM   17  C3  UNL     1      29.541  -0.308  53.647  1.00  0.00     0.003 A 
HETATM   18  C4  UNL     1      28.556  -1.167  53.191  1.00  0.00     0.001 A 
HETATM   19  C5  UNL     1      27.248  -0.824  52.959  1.00  0.00     0.011 A 
BRANCH  15  20
HETATM   20  O1  UNL     1      27.473   2.736  53.906  1.00  0.00    -0.360 OA
HETATM   21  H1  UNL     1      26.495   3.027  53.896  1.00  0.00     0.217 HD
ENDBRANCH  15  20
ENDBRANCH  13  14
ENDBRANCH  11  13
ENDBRANCH   1  11
BRANCH   8  22
HETATM   22  C15 UNL     1      28.505   6.519  47.667  1.00  0.00     0.133 A 
HETATM   23  C16 UNL     1      29.753   5.767  47.988  1.00  0.00     0.004 A 
HETATM   24  C17 UNL     1      30.659   6.512  48.586  1.00  0.00     0.022 A 
HETATM   25  C18 UNL     1      30.055   7.839  48.703  1.00  0.00     0.032 A 
HETATM   26 CL1  UNL     1      30.812   9.259  49.427  1.00  0.00    -0.085 Cl
HETATM   27  C19 UNL     1      28.850   7.878  48.198  1.00  0.00     0.026 A 
ENDBRANCH   8  22
TORSDOF 5
ENDMDL
MODEL 3
REMARK VINA RESULT:      -8.6      2.906      3.417
REMARK  5 active torsions:
REMARK  status: ('A' for Active; 'I' for Inactive)
REMARK    1  A    between atoms: O1_1  and  C1_2 
REMARK    2  A    between atoms: C6_7  and  C7_8 
REMARK    3  A    between atoms: C7_8  and  N1_9 
REMARK    4  A    between atoms: N1_9  and  C8_10 
REMARK    5  A    between atoms: N2_17  and  C15_18 
ROOT
HETATM    1  C8  UNL     1      23.672  -0.522  53.762  1.00  0.00     0.028 A 
HETATM    2  C9  UNL     1      22.955  -1.243  54.699  1.00  0.00     0.031 A 
HETATM    3  C10 UNL     1      21.558  -1.337  54.646  1.00  0.00     0.034 A 
HETATM    4  C11 UNL     1      20.904  -0.672  53.605  1.00  0.00     0.066 A 
HETATM    5  C12 UNL     1      21.608   0.046  52.672  1.00  0.00    -0.009 A 
HETATM    6  C13 UNL     1      22.981   0.116  52.756  1.00  0.00     0.040 A 
HETATM    7  C14 UNL     1      20.908   0.748  51.574  1.00  0.00     0.165 A 
HETATM    8  N2  UNL     1      19.481   0.559  51.640  1.00  0.00    -0.360 N 
HETATM    9  C20 UNL     1      18.782  -0.189  52.620  1.00  0.00     0.206 A 
HETATM   10  N3  UNL     1      19.480  -0.764  53.543  1.00  0.00    -0.244 NA
ENDROOT
BRANCH   1  11
HETATM   11  N1  UNL     1      25.088  -0.443  53.833  1.00  0.00    -0.386 N 
HETATM   12  H8  UNL     1      25.556  -0.499  54.767  1.00  0.00     0.160 HD
BRANCH  11  13
HETATM   13  C7  UNL     1      25.935  -0.289  52.695  1.00  0.00     0.161 C 
BRANCH  13  14
HETATM   14  C6  UNL     1      27.398  -0.359  53.044  1.00  0.00    -0.007 A 
HETATM   15  C1  UNL     1      28.032  -1.584  53.081  1.00  0.00     0.073 A 
HETATM   16  C2  UNL     1      29.388  -1.659  53.403  1.00  0.00     0.037 A 
HETATM   17  C3  UNL     1      30.126  -0.510  53.691  1.00  0.00     0.003 A 
HETATM   18  C4  UNL     1      29.421   0.680  53.631  1.00  0.00     0.001 A 
HETATM   19  C5  UNL     1      28.090   0.799  53.319  1.00  0.00     0.011 A 
BRANCH  15  20
HETATM   20  O1  UNL     1      27.356  -2.781  52.805  1.00  0.00    -0.360 OA
HETATM   21  H1  UNL     1      27.821  -3.520  52.276  1.00  0.00     0.217 HD
ENDBRANCH  15  20
ENDBRANCH  13  14
ENDBRANCH  11  13
ENDBRANCH   1  11
BRANCH   8  22
HETATM   22  C15 UNL     1      18.704   1.209  50.589  1.00  0.00     0.133 A 
HETATM   23  C16 UNL     1      19.399   2.456  50.156  1.00  0.00     0.004 A 
HETATM   24  C17 UNL     1      18.756   3.549  50.509  1.00  0.00     0.022 A 
HETATM   25  C18 UNL     1      17.562   3.086  51.216  1.00  0.00     0.032 A 
HETATM   26 CL1  UNL     1      16.315   4.115  51.922  1.00  0.00    -0.085 Cl
HETATM   27  C19 UNL     1      17.502   1.782  51.278  1.00  0.00     0.026 A 
ENDBRANCH   8  22
TORSDOF 5
ENDMDL
MODEL 4
REMARK VINA RESULT:      -8.5      5.166      7.899
REMARK  5 active torsions:
REMARK  status: ('A' for Active; 'I' for Inactive)
REMARK    1  A    between atoms: O1_1  and  C1_2 
REMARK    2  A    between atoms: C6_7  and  C7_8 
REMARK    3  A    between atoms: C7_8  and  N1_9 
REMARK    4  A    between atoms: N1_9  and  C8_10 
REMARK    5  A    between atoms: N2_17  and  C15_18 
ROOT
HETATM    1  C8  UNL     1      26.240   4.338  49.460  1.00  0.00     0.028 A 
HETATM    2  C9  UNL     1      24.925   4.717  49.664  1.00  0.00     0.031 A 
HETATM    3  C10 UNL     1      24.093   4.034  50.559  1.00  0.00     0.034 A 
HETATM    4  C11 UNL     1      24.637   2.947  51.249  1.00  0.00     0.066 A 
HETATM    5  C12 UNL     1      25.940   2.565  51.051  1.00  0.00    -0.009 A 
HETATM    6  C13 UNL     1      26.729   3.260  50.162  1.00  0.00     0.040 A 
HETATM    7  C14 UNL     1      26.508   1.412  51.785  1.00  0.00     0.165 A 
HETATM    8  N2  UNL     1      25.543   0.813  52.673  1.00  0.00    -0.360 N 
HETATM    9  C20 UNL     1      24.202   1.232  52.854  1.00  0.00     0.206 A 
HETATM   10  N3  UNL     1      23.794   2.247  52.166  1.00  0.00    -0.244 NA
ENDROOT
BRANCH   1  11
HETATM   11  N1  UNL     1      27.068   5.046  48.548  1.00  0.00    -0.386 N 
HETATM   12  H8  UNL     1      27.567   4.518  47.796  1.00  0.00     0.160 HD
BRANCH  11  13
HETATM   13  C7  UNL     1      27.270   6.458  48.588  1.00  0.00     0.161 C 
BRANCH  13  14
HETATM   14  C6  UNL     1      28.482   6.896  47.809  1.00  0.00    -0.007 A 
HETATM   15  C1  UNL     1      29.727   6.414  48.158  1.00  0.00     0.073 A 
HETATM   16  C2  UNL     1      30.856   6.813  47.441  1.00  0.00     0.037 A 
HETATM   17  C3  UNL     1      30.754   7.698  46.368  1.00  0.00     0.003 A 
HETATM   18  C4  UNL     1      29.473   8.137  46.079  1.00  0.00     0.001 A 
HETATM   19  C5  UNL     1      28.337   7.770  46.755  1.00  0.00     0.011 A 
BRANCH  15  20
HETATM   20  O1  UNL     1      29.908   5.522  49.224  1.00  0.00    -0.360 OA
HETATM   21  H1  UNL     1      30.123   4.541  49.040  1.00  0.00     0.217 HD
ENDBRANCH  15  20
ENDBRANCH  13  14
ENDBRANCH  11  13
ENDBRANCH   1  11
BRANCH   8  22
HETATM   22  C15 UNL     1      26.017  -0.329  53.448  1.00  0.00     0.133 A 
HETATM   23  C16 UNL     1      26.451   0.132  54.798  1.00  0.00     0.004 A 
HETATM   24  C17 UNL     1      27.754   0.054  54.971  1.00  0.00     0.022 A 
HETATM   25  C18 UNL     1      28.281  -0.477  53.714  1.00  0.00     0.032 A 
HETATM   26 CL1  UNL     1      29.979  -0.799  53.359  1.00  0.00    -0.085 Cl
HETATM   27  C19 UNL     1      27.335  -0.704  52.841  1.00  0.00     0.026 A 
ENDBRANCH   8  22
TORSDOF 5
ENDMDL
MODEL 5
REMARK VINA RESULT:      -8.5      4.044      6.405
REMARK  5 active torsions:
REMARK  status: ('A' for Active; 'I' for Inactive)
REMARK    1  A    between atoms: O1_1  and  C1_2 
REMARK    2  A    between atoms: C6_7  and  C7_8 
REMARK    3  A    between atoms: C7_8  and  N1_9 
REMARK    4  A    between atoms: N1_9  and  C8_10 
REMARK    5  A    between atoms: N2_17  and  C15_18 
ROOT
HETATM    1  C8  UNL     1      26.056   2.403  51.493  1.00  0.00     0.028 A 
HETATM    2  C9  UNL     1      26.681   1.251  51.934  1.00  0.00     0.031 A 
HETATM    3  C10 UNL     1      25.981   0.248  52.617  1.00  0.00     0.034 A 
HETATM    4  C11 UNL     1      24.616   0.449  52.842  1.00  0.00     0.066 A 
HETATM    5  C12 UNL     1      23.989   1.590  52.408  1.00  0.00    -0.009 A 
HETATM    6  C13 UNL     1      24.710   2.555  51.739  1.00  0.00     0.040 A 
HETATM    7  C14 UNL     1      22.544   1.795  52.650  1.00  0.00     0.165 A 
HETATM    8  N2  UNL     1      21.955   0.684  53.354  1.00  0.00    -0.360 N 
HETATM    9  C20 UNL     1      22.631  -0.482  53.790  1.00  0.00     0.206 A 
HETATM   10  N3  UNL     1      23.895  -0.570  53.536  1.00  0.00    -0.244 NA
ENDROOT
BRANCH   1  11
HETATM   11  N1  UNL     1      26.784   3.406  50.800  1.00  0.00    -0.386 N 
HETATM   12  H8  UNL     1      27.328   4.112  51.348  1.00  0.00     0.160 HD
BRANCH  11  13
HETATM   13  C7  UNL     1      26.827   3.520  49.378  1.00  0.00     0.161 C 
BRANCH  13  14
HETATM   14  C6  UNL     1      27.149   4.916  48.915  1.00  0.00    -0.007 A 
HETATM   15  C1  UNL     1      26.210   5.917  49.059  1.00  0.00     0.073 A 
HETATM   16  C2  UNL     1      26.500   7.214  48.633  1.00  0.00     0.037 A 
HETATM   17  C3  UNL     1      27.732   7.526  48.059  1.00  0.00     0.003 A 
HETATM   18  C4  UNL     1      28.621   6.470  47.949  1.00  0.00     0.001 A 
HETATM   19  C5  UNL     1      28.379   5.182  48.355  1.00  0.00     0.011 A 
BRANCH  15  20
HETATM   20  O1  UNL     1      24.950   5.679  49.626  1.00  0.00    -0.360 OA
HETATM   21  H1  UNL     1      24.117   6.112  49.223  1.00  0.00     0.217 HD
ENDBRANCH  15  20
ENDBRANCH  13  14
ENDBRANCH  11  13
ENDBRANCH   1  11
BRANCH   8  22
HETATM   22  C15 UNL     1      20.525   0.793  53.631  1.00  0.00     0.133 A 
HETATM   23  C16 UNL     1      19.937  -0.572  53.750  1.00  0.00     0.004 A 
HETATM   24  C17 UNL     1      19.133  -0.872  52.752  1.00  0.00     0.022 A 
HETATM   25  C18 UNL     1      19.136   0.306  51.884  1.00  0.00     0.032 A 
HETATM   26 CL1  UNL     1      18.231   0.484  50.380  1.00  0.00    -0.085 Cl
HETATM   27  C19 UNL     1      19.905   1.256  52.347  1.00  0.00     0.026 A 
ENDBRANCH   8  22
TORSDOF 5
ENDMDL
MODEL 6
REMARK VINA RESULT:      -8.5      3.214      3.834
REMARK  5 active torsions:
REMARK  status: ('A' for Active; 'I' for Inactive)
REMARK    1  A    between atoms: O1_1  and  C1_2 
REMARK    2  A    between atoms: C6_7  and  C7_8 
REMARK    3  A    between atoms: C7_8  and  N1_9 
REMARK    4  A    between atoms: N1_9  and  C8_10 
REMARK    5  A    between atoms: N2_17  and  C15_18 
ROOT
HETATM    1  C8  UNL     1      23.420  -0.346  53.752  1.00  0.00     0.028 A 
HETATM    2  C9  UNL     1      22.753  -1.104  54.697  1.00  0.00     0.031 A 
HETATM    3  C10 UNL     1      21.370  -1.318  54.627  1.00  0.00     0.034 A 
HETATM    4  C11 UNL     1      20.678  -0.736  53.561  1.00  0.00     0.066 A 
HETATM    5  C12 UNL     1      21.334   0.017  52.620  1.00  0.00    -0.009 A 
HETATM    6  C13 UNL     1      22.694   0.206  52.721  1.00  0.00     0.040 A 
HETATM    7  C14 UNL     1      20.594   0.629  51.495  1.00  0.00     0.165 A 
HETATM    8  N2  UNL     1      19.187   0.320  51.546  1.00  0.00    -0.360 N 
HETATM    9  C20 UNL     1      18.539  -0.462  52.534  1.00  0.00     0.206 A 
HETATM   10  N3  UNL     1      19.268  -0.952  53.481  1.00  0.00    -0.244 NA
ENDROOT
BRANCH   1  11
HETATM   11  N1  UNL     1      24.823  -0.144  53.841  1.00  0.00    -0.386 N 
HETATM   12  H8  UNL     1      25.253   0.045  54.776  1.00  0.00     0.160 HD
BRANCH  11  13
HETATM   13  C7  UNL     1      25.706  -0.180  52.720  1.00  0.00     0.161 C 
BRANCH  13  14
HETATM   14  C6  UNL     1      27.136  -0.437  53.113  1.00  0.00    -0.007 A 
HETATM   15  C1  UNL     1      27.842   0.536  53.793  1.00  0.00     0.073 A 
HETATM   16  C2  UNL     1      29.168   0.308  54.161  1.00  0.00     0.037 A 
HETATM   17  C3  UNL     1      29.805  -0.895  53.855  1.00  0.00     0.003 A 
HETATM   18  C4  UNL     1      29.033  -1.820  53.173  1.00  0.00     0.001 A 
HETATM   19  C5  UNL     1      27.727  -1.638  52.792  1.00  0.00     0.011 A 
BRANCH  15  20
HETATM   20  O1  UNL     1      27.268   1.769  54.134  1.00  0.00    -0.360 OA
HETATM   21  H1  UNL     1      26.396   1.798  54.665  1.00  0.00     0.217 HD
ENDBRANCH  15  20
ENDBRANCH  13  14
ENDBRANCH  11  13
ENDBRANCH   1  11
BRANCH   8  22
HETATM   22  C15 UNL     1      18.374   0.876  50.468  1.00  0.00     0.133 A 
HETATM   23  C16 UNL     1      19.120   1.984  49.804  1.00  0.00     0.004 A 
HETATM   24  C17 UNL     1      18.590   3.167  50.034  1.00  0.00     0.022 A 
HETATM   25  C18 UNL     1      17.429   2.913  50.887  1.00  0.00     0.032 A 
HETATM   26 CL1  UNL     1      16.323   4.134  51.519  1.00  0.00    -0.085 Cl
HETATM   27  C19 UNL     1      17.279   1.641  51.148  1.00  0.00     0.026 A 
ENDBRANCH   8  22
TORSDOF 5
ENDMDL
MODEL 7
REMARK VINA RESULT:      -8.3      3.426      4.776
REMARK  5 active torsions:
REMARK  status: ('A' for Active; 'I' for Inactive)
REMARK    1  A    between atoms: O1_1  and  C1_2 
REMARK    2  A    between atoms: C6_7  and  C7_8 
REMARK    3  A    between atoms: C7_8  and  N1_9 
REMARK    4  A    between atoms: N1_9  and  C8_10 
REMARK    5  A    between atoms: N2_17  and  C15_18 
ROOT
HETATM    1  C8  UNL     1      24.024   3.099  52.643  1.00  0.00     0.028 A 
HETATM    2  C9  UNL     1      23.568   4.401  52.744  1.00  0.00     0.031 A 
HETATM    3  C10 UNL     1      22.252   4.748  52.412  1.00  0.00     0.034 A 
HETATM    4  C11 UNL     1      21.404   3.727  51.972  1.00  0.00     0.066 A 
HETATM    5  C12 UNL     1      21.849   2.434  51.870  1.00  0.00    -0.009 A 
HETATM    6  C13 UNL     1      23.150   2.129  52.204  1.00  0.00     0.040 A 
HETATM    7  C14 UNL     1      20.946   1.359  51.403  1.00  0.00     0.165 A 
HETATM    8  N2  UNL     1      19.627   1.859  51.106  1.00  0.00    -0.360 N 
HETATM    9  C20 UNL     1      19.197   3.204  51.222  1.00  0.00     0.206 A 
HETATM   10  N3  UNL     1      20.059   4.073  51.635  1.00  0.00    -0.244 NA
ENDROOT
BRANCH   1  11
HETATM   11  N1  UNL     1      25.361   2.768  52.987  1.00  0.00    -0.386 N 
HETATM   12  H8  UNL     1      25.690   2.924  53.968  1.00  0.00     0.160 HD
BRANCH  11  13
HETATM   13  C7  UNL     1      26.309   2.227  52.067  1.00  0.00     0.161 C 
BRANCH  13  14
HETATM   14  C6  UNL     1      27.179   1.164  52.685  1.00  0.00    -0.007 A 
HETATM   15  C1  UNL     1      28.152   1.523  53.595  1.00  0.00     0.073 A 
HETATM   16  C2  UNL     1      28.963   0.545  54.172  1.00  0.00     0.037 A 
HETATM   17  C3  UNL     1      28.810  -0.803  53.848  1.00  0.00     0.003 A 
HETATM   18  C4  UNL     1      27.813  -1.084  52.929  1.00  0.00     0.001 A 
HETATM   19  C5  UNL     1      26.994  -0.155  52.338  1.00  0.00     0.011 A 
BRANCH  15  20
HETATM   20  O1  UNL     1      28.365   2.858  53.969  1.00  0.00    -0.360 OA
HETATM   21  H1  UNL     1      28.974   3.455  53.408  1.00  0.00     0.217 HD
ENDBRANCH  15  20
ENDBRANCH  13  14
ENDBRANCH  11  13
ENDBRANCH   1  11
BRANCH   8  22
HETATM   22  C15 UNL     1      18.660   0.866  50.645  1.00  0.00     0.133 A 
HETATM   23  C16 UNL     1      17.281   1.316  50.996  1.00  0.00     0.004 A 
HETATM   24  C17 UNL     1      16.725   0.577  51.932  1.00  0.00     0.022 A 
HETATM   25  C18 UNL     1      17.724  -0.437  52.272  1.00  0.00     0.032 A 
HETATM   26 CL1  UNL     1      17.534  -1.713  53.474  1.00  0.00    -0.085 Cl
HETATM   27  C19 UNL     1      18.818  -0.303  51.569  1.00  0.00     0.026 A 
ENDBRANCH   8  22
TORSDOF 5
ENDMDL
MODEL 8
REMARK VINA RESULT:      -8.1      3.163      4.401
REMARK  5 active torsions:
REMARK  status: ('A' for Active; 'I' for Inactive)
REMARK    1  A    between atoms: O1_1  and  C1_2 
REMARK    2  A    between atoms: C6_7  and  C7_8 
REMARK    3  A    between atoms: C7_8  and  N1_9 
REMARK    4  A    between atoms: N1_9  and  C8_10 
REMARK    5  A    between atoms: N2_17  and  C15_18 
ROOT
HETATM    1  C8  UNL     1      26.165   2.716  51.385  1.00  0.00     0.028 A 
HETATM    2  C9  UNL     1      26.327   3.611  50.342  1.00  0.00     0.031 A 
HETATM    3  C10 UNL     1      25.305   3.855  49.416  1.00  0.00     0.034 A 
HETATM    4  C11 UNL     1      24.103   3.160  49.578  1.00  0.00     0.066 A 
HETATM    5  C12 UNL     1      23.935   2.271  50.610  1.00  0.00    -0.009 A 
HETATM    6  C13 UNL     1      24.962   2.055  51.502  1.00  0.00     0.040 A 
HETATM    7  C14 UNL     1      22.660   1.539  50.775  1.00  0.00     0.165 A 
HETATM    8  N2  UNL     1      21.702   1.894  49.758  1.00  0.00    -0.360 N 
HETATM    9  C20 UNL     1      21.907   2.818  48.704  1.00  0.00     0.206 A 
HETATM   10  N3  UNL     1      23.056   3.406  48.639  1.00  0.00    -0.244 NA
ENDROOT
BRANCH   1  11
HETATM   11  N1  UNL     1      27.213   2.485  52.314  1.00  0.00    -0.386 N 
HETATM   12  H8  UNL     1      28.146   2.929  52.152  1.00  0.00     0.160 HD
BRANCH  11  13
HETATM   13  C7  UNL     1      27.079   1.671  53.479  1.00  0.00     0.161 C 
BRANCH  13  14
HETATM   14  C6  UNL     1      27.759   0.335  53.338  1.00  0.00    -0.007 A 
HETATM   15  C1  UNL     1      29.111   0.228  53.593  1.00  0.00     0.073 A 
HETATM   16  C2  UNL     1      29.750  -1.006  53.466  1.00  0.00     0.037 A 
HETATM   17  C3  UNL     1      29.045  -2.147  53.082  1.00  0.00     0.003 A 
HETATM   18  C4  UNL     1      27.694  -1.960  52.845  1.00  0.00     0.001 A 
HETATM   19  C5  UNL     1      27.026  -0.767  52.959  1.00  0.00     0.011 A 
BRANCH  15  20
HETATM   20  O1  UNL     1      29.885   1.331  53.982  1.00  0.00    -0.360 OA
HETATM   21  H1  UNL     1      30.708   1.195  54.571  1.00  0.00     0.217 HD
ENDBRANCH  15  20
ENDBRANCH  13  14
ENDBRANCH  11  13
ENDBRANCH   1  11
BRANCH   8  22
HETATM   22  C15 UNL     1      20.406   1.227  49.845  1.00  0.00     0.133 A 
HETATM   23  C16 UNL     1      19.404   2.162  50.432  1.00  0.00     0.004 A 
HETATM   24  C17 UNL     1      19.019   1.807  51.640  1.00  0.00     0.022 A 
HETATM   25  C18 UNL     1      19.761   0.582  51.939  1.00  0.00     0.032 A 
HETATM   26 CL1  UNL     1      19.651  -0.355  53.430  1.00  0.00    -0.085 Cl
HETATM   27  C19 UNL     1      20.545   0.229  50.955  1.00  0.00     0.026 A 
ENDBRANCH   8  22
TORSDOF 5
ENDMDL
MODEL 9
REMARK VINA RESULT:      -8.1      6.160      7.830
REMARK  5 active torsions:
REMARK  status: ('A' for Active; 'I' for Inactive)
REMARK    1  A    between atoms: O1_1  and  C1_2 
REMARK    2  A    between atoms: C6_7  and  C7_8 
REMARK    3  A    between atoms: C7_8  and  N1_9 
REMARK    4  A    between atoms: N1_9  and  C8_10 
REMARK    5  A    between atoms: N2_17  and  C15_18 
ROOT
HETATM    1  C8  UNL     1      28.982   6.217  47.880  1.00  0.00     0.028 A 
HETATM    2  C9  UNL     1      28.168   7.301  47.607  1.00  0.00     0.031 A 
HETATM    3  C10 UNL     1      26.807   7.302  47.938  1.00  0.00     0.034 A 
HETATM    4  C11 UNL     1      26.290   6.162  48.558  1.00  0.00     0.066 A 
HETATM    5  C12 UNL     1      27.091   5.082  48.832  1.00  0.00    -0.009 A 
HETATM    6  C13 UNL     1      28.426   5.116  48.492  1.00  0.00     0.040 A 
HETATM    7  C14 UNL     1      26.536   3.878  49.488  1.00  0.00     0.165 A 
HETATM    8  N2  UNL     1      25.131   4.022  49.775  1.00  0.00    -0.360 N 
HETATM    9  C20 UNL     1      24.330   5.153  49.479  1.00  0.00     0.206 A 
HETATM   10  N3  UNL     1      24.903   6.157  48.900  1.00  0.00    -0.244 NA
ENDROOT
BRANCH   1  11
HETATM   11  N1  UNL     1      30.360   6.237  47.539  1.00  0.00    -0.386 N 
HETATM   12  H8  UNL     1      30.646   6.563  46.587  1.00  0.00     0.160 HD
BRANCH  11  13
HETATM   13  C7  UNL     1      31.406   5.836  48.424  1.00  0.00     0.161 C 
BRANCH  13  14
HETATM   14  C6  UNL     1      32.269   4.745  47.850  1.00  0.00    -0.007 A 
HETATM   15  C1  UNL     1      33.588   4.641  48.242  1.00  0.00     0.073 A 
HETATM   16  C2  UNL     1      34.396   3.632  47.716  1.00  0.00     0.037 A 
HETATM   17  C3  UNL     1      33.896   2.715  46.791  1.00  0.00     0.003 A 
HETATM   18  C4  UNL     1      32.565   2.884  46.448  1.00  0.00     0.001 A 
HETATM   19  C5  UNL     1      31.735   3.860  46.940  1.00  0.00     0.011 A 
BRANCH  15  20
HETATM   20  O1  UNL     1      34.162   5.526  49.167  1.00  0.00    -0.360 OA
HETATM   21  H1  UNL     1      34.543   6.419  48.851  1.00  0.00     0.217 HD
ENDBRANCH  15  20
ENDBRANCH  13  14
ENDBRANCH  11  13
ENDBRANCH   1  11
BRANCH   8  22
HETATM   22  C15 UNL     1      24.496   2.884  50.433  1.00  0.00     0.133 A 
HETATM   23  C16 UNL     1      23.487   3.378  51.415  1.00  0.00     0.004 A 
HETATM   24  C17 UNL     1      23.843   3.165  52.665  1.00  0.00     0.022 A 
HETATM   25  C18 UNL     1      25.143   2.499  52.590  1.00  0.00     0.032 A 
HETATM   26 CL1  UNL     1      26.112   1.966  53.965  1.00  0.00    -0.085 Cl
HETATM   27  C19 UNL     1      25.537   2.326  51.356  1.00  0.00     0.026 A 
ENDBRANCH   8  22
TORSDOF 5
ENDMDL
