MODEL 1
REMARK VINA RESULT:      -8.6      0.000      0.000
REMARK  6 active torsions:
REMARK  status: ('A' for Active; 'I' for Inactive)
REMARK    1  A    between atoms: C2_2  and  C3_3 
REMARK    2  A    between atoms: C3_3  and  C4_4 
REMARK    3  A    between atoms: C4_4  and  C5_5 
REMARK    4  A    between atoms: C7_7  and  C8_8 
REMARK    5  A    between atoms: C18_20  and  C19_21 
REMARK    6  A    between atoms: C22_24  and  O2_25 
ROOT
HETATM    1  C5  UNL     1      21.601   0.809  53.143  1.00  0.00    -0.024 A 
HETATM    2  C6  UNL     1      22.797   0.175  53.395  1.00  0.00     0.021 A 
HETATM    3  C7  UNL     1      23.955   0.497  52.671  1.00  0.00    -0.034 A 
HETATM    4  C17 UNL     1      23.771   1.471  51.723  1.00  0.00     0.021 A 
HETATM    5  C18 UNL     1      22.611   2.138  51.423  1.00  0.00    -0.020 A 
HETATM    6  C22 UNL     1      21.482   1.782  52.174  1.00  0.00     0.078 A 
ENDROOT
BRANCH   3   7
HETATM    7  C8  UNL     1      25.245  -0.121  52.839  1.00  0.00     0.029 C 
HETATM    8  C9  UNL     1      26.399   0.264  53.335  1.00  0.00     0.045 A 
HETATM    9  C10 UNL     1      26.837   1.508  53.932  1.00  0.00     0.257 A 
HETATM   10  C16 UNL     1      27.569  -0.594  53.352  1.00  0.00     0.006 A 
HETATM   11  O1  UNL     1      26.137   2.534  54.115  1.00  0.00    -0.267 OA
HETATM   12  N1  UNL     1      28.210   1.434  54.302  1.00  0.00    -0.322 N 
HETATM   13  C11 UNL     1      28.580   0.129  53.919  1.00  0.00     0.046 A 
HETATM   14  H12 UNL     1      28.763   2.183  54.746  1.00  0.00     0.169 HD
HETATM   15  C12 UNL     1      29.812  -0.517  54.033  1.00  0.00     0.030 A 
HETATM   16  C13 UNL     1      30.035  -1.791  53.616  1.00  0.00     0.002 A 
HETATM   17  C14 UNL     1      29.017  -2.521  53.045  1.00  0.00     0.001 A 
HETATM   18  C15 UNL     1      27.790  -1.904  52.922  1.00  0.00     0.015 A 
ENDBRANCH   3   7
BRANCH   1  19
HETATM   19  C4  UNL     1      20.385   0.453  53.918  1.00  0.00     0.041 C 
BRANCH  19  20
HETATM   20  C3  UNL     1      19.786  -0.869  53.560  1.00  0.00     0.004 C 
BRANCH  20  21
HETATM   21  C2  UNL     1      18.534  -0.588  52.742  1.00  0.00    -0.004 C 
HETATM   22  C1  UNL     1      17.416  -1.504  53.175  1.00  0.00     0.005 C 
ENDBRANCH  20  21
ENDBRANCH  19  20
ENDBRANCH   1  19
BRANCH   5  23
HETATM   23  C19 UNL     1      22.403   3.184  50.404  1.00  0.00     0.013 C 
HETATM   24  C20 UNL     1      22.941   2.794  49.043  1.00  0.00     0.015 C 
HETATM   25  C21 UNL     1      23.044   4.503  50.770  1.00  0.00     0.015 C 
ENDBRANCH   5  23
BRANCH   6  26
HETATM   26  O2  UNL     1      20.262   2.404  51.942  1.00  0.00    -0.360 OA
HETATM   27  H25 UNL     1      19.951   3.229  52.443  1.00  0.00     0.217 HD
ENDBRANCH   6  26
TORSDOF 6
ENDMDL
MODEL 2
REMARK VINA RESULT:      -8.5      3.184      6.525
REMARK  6 active torsions:
REMARK  status: ('A' for Active; 'I' for Inactive)
REMARK    1  A    between atoms: C2_2  and  C3_3 
REMARK    2  A    between atoms: C3_3  and  C4_4 
REMARK    3  A    between atoms: C4_4  and  C5_5 
REMARK    4  A    between atoms: C7_7  and  C8_8 
REMARK    5  A    between atoms: C18_20  and  C19_21 
REMARK    6  A    between atoms: C22_24  and  O2_25 
ROOT
HETATM    1  C5  UNL     1      24.831   0.326  52.780  1.00  0.00    -0.024 A 
HETATM    2  C6  UNL     1      24.968   1.373  51.896  1.00  0.00     0.021 A 
HETATM    3  C7  UNL     1      26.216   1.971  51.668  1.00  0.00    -0.034 A 
HETATM    4  C17 UNL     1      27.242   1.422  52.394  1.00  0.00     0.021 A 
HETATM    5  C18 UNL     1      27.172   0.384  53.288  1.00  0.00    -0.020 A 
HETATM    6  C22 UNL     1      25.904  -0.181  53.481  1.00  0.00     0.078 A 
ENDROOT
BRANCH   3   7
HETATM    7  C8  UNL     1      26.462   3.083  50.786  1.00  0.00     0.029 C 
HETATM    8  C9  UNL     1      25.758   4.111  50.372  1.00  0.00     0.045 A 
HETATM    9  C10 UNL     1      24.405   4.544  50.656  1.00  0.00     0.257 A 
HETATM   10  C16 UNL     1      26.278   5.091  49.436  1.00  0.00     0.006 A 
HETATM   11  O1  UNL     1      23.588   3.980  51.424  1.00  0.00    -0.267 OA
HETATM   12  N1  UNL     1      24.094   5.731  49.934  1.00  0.00    -0.322 N 
HETATM   13  C11 UNL     1      25.280   5.998  49.220  1.00  0.00     0.046 A 
HETATM   14  H12 UNL     1      23.199   6.243  49.960  1.00  0.00     0.169 HD
HETATM   15  C12 UNL     1      25.573   7.039  48.338  1.00  0.00     0.030 A 
HETATM   16  C13 UNL     1      26.770   7.178  47.709  1.00  0.00     0.002 A 
HETATM   17  C14 UNL     1      27.776   6.265  47.926  1.00  0.00     0.001 A 
HETATM   18  C15 UNL     1      27.510   5.227  48.794  1.00  0.00     0.015 A 
ENDBRANCH   3   7
BRANCH   1  19
HETATM   19  C4  UNL     1      23.500  -0.294  53.010  1.00  0.00     0.041 C 
BRANCH  19  20
HETATM   20  C3  UNL     1      22.369   0.680  53.090  1.00  0.00     0.004 C 
BRANCH  20  21
HETATM   21  C2  UNL     1      21.434   0.193  54.188  1.00  0.00    -0.004 C 
HETATM   22  C1  UNL     1      21.904  -1.141  54.713  1.00  0.00     0.005 C 
ENDBRANCH  20  21
ENDBRANCH  19  20
ENDBRANCH   1  19
BRANCH   5  23
HETATM   23  C19 UNL     1      28.269  -0.210  54.075  1.00  0.00     0.013 C 
HETATM   24  C20 UNL     1      29.254   0.820  54.585  1.00  0.00     0.015 C 
HETATM   25  C21 UNL     1      29.064  -1.237  53.302  1.00  0.00     0.015 C 
ENDBRANCH   5  23
BRANCH   6  26
HETATM   26  O2  UNL     1      25.735  -1.238  54.366  1.00  0.00    -0.360 OA
HETATM   27  H25 UNL     1      26.365  -1.428  55.137  1.00  0.00     0.217 HD
ENDBRANCH   6  26
TORSDOF 6
ENDMDL
MODEL 3
REMARK VINA RESULT:      -8.5      2.452      7.264
REMARK  6 active torsions:
REMARK  status: ('A' for Active; 'I' for Inactive)
REMARK    1  A    between atoms: C2_2  and  C3_3 
REMARK    2  A    between atoms: C3_3  and  C4_4 
REMARK    3  A    between atoms: C4_4  and  C5_5 
REMARK    4  A    between atoms: C7_7  and  C8_8 
REMARK    5  A    between atoms: C18_20  and  C19_21 
REMARK    6  A    between atoms: C22_24  and  O2_25 
ROOT
HETATM    1  C5  UNL     1      25.899   0.973  52.792  1.00  0.00    -0.024 A 
HETATM    2  C6  UNL     1      24.597   0.526  52.777  1.00  0.00     0.021 A 
HETATM    3  C7  UNL     1      23.611   1.190  52.032  1.00  0.00    -0.034 A 
HETATM    4  C17 UNL     1      24.068   2.287  51.348  1.00  0.00     0.021 A 
HETATM    5  C18 UNL     1      25.346   2.783  51.321  1.00  0.00    -0.020 A 
HETATM    6  C22 UNL     1      26.295   2.086  52.081  1.00  0.00     0.078 A 
ENDROOT
BRANCH   3   7
HETATM    7  C8  UNL     1      22.220   0.821  51.969  1.00  0.00     0.029 C 
HETATM    8  C9  UNL     1      21.411   0.123  52.733  1.00  0.00     0.045 A 
HETATM    9  C10 UNL     1      21.612  -0.573  53.987  1.00  0.00     0.257 A 
HETATM   10  C16 UNL     1      20.018  -0.107  52.394  1.00  0.00     0.006 A 
HETATM   11  O1  UNL     1      22.682  -0.634  54.641  1.00  0.00    -0.267 OA
HETATM   12  N1  UNL     1      20.410  -1.206  54.411  1.00  0.00    -0.322 N 
HETATM   13  C11 UNL     1      19.491  -0.876  53.392  1.00  0.00     0.046 A 
HETATM   14  H12 UNL     1      20.284  -1.764  55.269  1.00  0.00     0.169 HD
HETATM   15  C12 UNL     1      18.145  -1.219  53.262  1.00  0.00     0.030 A 
HETATM   16  C13 UNL     1      17.368  -0.831  52.217  1.00  0.00     0.002 A 
HETATM   17  C14 UNL     1      17.897  -0.056  51.211  1.00  0.00     0.001 A 
HETATM   18  C15 UNL     1      19.226   0.296  51.318  1.00  0.00     0.015 A 
ENDBRANCH   3   7
BRANCH   1  19
HETATM   19  C4  UNL     1      26.929   0.259  53.589  1.00  0.00     0.041 C 
BRANCH  19  20
HETATM   20  C3  UNL     1      27.437  -0.998  52.960  1.00  0.00     0.004 C 
BRANCH  20  21
HETATM   21  C2  UNL     1      28.890  -1.159  53.386  1.00  0.00    -0.004 C 
HETATM   22  C1  UNL     1      29.462   0.179  53.785  1.00  0.00     0.005 C 
ENDBRANCH  20  21
ENDBRANCH  19  20
ENDBRANCH   1  19
BRANCH   5  23
HETATM   23  C19 UNL     1      25.846   3.964  50.592  1.00  0.00     0.013 C 
HETATM   24  C20 UNL     1      24.756   4.966  50.274  1.00  0.00     0.015 C 
HETATM   25  C21 UNL     1      26.517   3.612  49.284  1.00  0.00     0.015 C 
ENDBRANCH   5  23
BRANCH   6  26
HETATM   26  O2  UNL     1      27.617   2.512  52.115  1.00  0.00    -0.360 OA
HETATM   27  H25 UNL     1      27.911   3.445  51.845  1.00  0.00     0.217 HD
ENDBRANCH   6  26
TORSDOF 6
ENDMDL
MODEL 4
REMARK VINA RESULT:      -8.3      2.393      7.337
REMARK  6 active torsions:
REMARK  status: ('A' for Active; 'I' for Inactive)
REMARK    1  A    between atoms: C2_2  and  C3_3 
REMARK    2  A    between atoms: C3_3  and  C4_4 
REMARK    3  A    between atoms: C4_4  and  C5_5 
REMARK    4  A    between atoms: C7_7  and  C8_8 
REMARK    5  A    between atoms: C18_20  and  C19_21 
REMARK    6  A    between atoms: C22_24  and  O2_25 
ROOT
HETATM    1  C5  UNL     1      25.677   0.164  53.475  1.00  0.00    -0.024 A 
HETATM    2  C6  UNL     1      25.444   1.093  52.486  1.00  0.00     0.021 A 
HETATM    3  C7  UNL     1      24.139   1.465  52.133  1.00  0.00    -0.034 A 
HETATM    4  C17 UNL     1      23.160   0.828  52.852  1.00  0.00     0.021 A 
HETATM    5  C18 UNL     1      23.324  -0.104  53.845  1.00  0.00    -0.020 A 
HETATM    6  C22 UNL     1      24.647  -0.442  54.162  1.00  0.00     0.078 A 
ENDROOT
BRANCH   3   7
HETATM    7  C8  UNL     1      23.787   2.405  51.100  1.00  0.00     0.029 C 
HETATM    8  C9  UNL     1      23.535   3.694  51.067  1.00  0.00     0.045 A 
HETATM    9  C10 UNL     1      23.516   4.710  52.098  1.00  0.00     0.257 A 
HETATM   10  C16 UNL     1      23.176   4.391  49.846  1.00  0.00     0.006 A 
HETATM   11  O1  UNL     1      23.770   4.541  53.317  1.00  0.00    -0.267 OA
HETATM   12  N1  UNL     1      23.162   5.977  51.552  1.00  0.00    -0.322 N 
HETATM   13  C11 UNL     1      22.972   5.699  50.183  1.00  0.00     0.046 A 
HETATM   14  H12 UNL     1      23.078   6.863  52.073  1.00  0.00     0.169 HD
HETATM   15  C12 UNL     1      22.612   6.556  49.142  1.00  0.00     0.030 A 
HETATM   16  C13 UNL     1      22.460   6.151  47.854  1.00  0.00     0.002 A 
HETATM   17  C14 UNL     1      22.665   4.834  47.512  1.00  0.00     0.001 A 
HETATM   18  C15 UNL     1      23.022   3.968  48.524  1.00  0.00     0.015 A 
ENDBRANCH   3   7
BRANCH   1  19
HETATM   19  C4  UNL     1      27.066  -0.219  53.834  1.00  0.00     0.041 C 
BRANCH  19  20
HETATM   20  C3  UNL     1      27.706  -1.186  52.890  1.00  0.00     0.004 C 
BRANCH  20  21
HETATM   21  C2  UNL     1      29.139  -1.392  53.360  1.00  0.00    -0.004 C 
HETATM   22  C1  UNL     1      29.817  -0.058  53.552  1.00  0.00     0.005 C 
ENDBRANCH  20  21
ENDBRANCH  19  20
ENDBRANCH   1  19
BRANCH   5  23
HETATM   23  C19 UNL     1      22.278  -0.797  54.620  1.00  0.00     0.013 C 
HETATM   24  C20 UNL     1      21.776  -2.053  53.940  1.00  0.00     0.015 C 
HETATM   25  C21 UNL     1      21.070   0.070  54.894  1.00  0.00     0.015 C 
ENDBRANCH   5  23
BRANCH   6  26
HETATM   26  O2  UNL     1      24.913  -1.376  55.155  1.00  0.00    -0.360 OA
HETATM   27  H25 UNL     1      24.960  -1.145  56.141  1.00  0.00     0.217 HD
ENDBRANCH   6  26
TORSDOF 6
ENDMDL
MODEL 5
REMARK VINA RESULT:      -8.0      2.611      7.522
REMARK  6 active torsions:
REMARK  status: ('A' for Active; 'I' for Inactive)
REMARK    1  A    between atoms: C2_2  and  C3_3 
REMARK    2  A    between atoms: C3_3  and  C4_4 
REMARK    3  A    between atoms: C4_4  and  C5_5 
REMARK    4  A    between atoms: C7_7  and  C8_8 
REMARK    5  A    between atoms: C18_20  and  C19_21 
REMARK    6  A    between atoms: C22_24  and  O2_25 
ROOT
HETATM    1  C5  UNL     1      25.910   1.059  52.265  1.00  0.00    -0.024 A 
HETATM    2  C6  UNL     1      24.663   0.497  52.415  1.00  0.00     0.021 A 
HETATM    3  C7  UNL     1      23.506   1.181  52.014  1.00  0.00    -0.034 A 
HETATM    4  C17 UNL     1      23.745   2.421  51.477  1.00  0.00     0.021 A 
HETATM    5  C18 UNL     1      24.958   3.036  51.300  1.00  0.00    -0.020 A 
HETATM    6  C22 UNL     1      26.084   2.312  51.717  1.00  0.00     0.078 A 
ENDROOT
BRANCH   3   7
HETATM    7  C8  UNL     1      22.157   0.696  52.148  1.00  0.00     0.029 C 
HETATM    8  C9  UNL     1      21.093   0.686  51.377  1.00  0.00     0.045 A 
HETATM    9  C10 UNL     1      20.858   1.180  50.036  1.00  0.00     0.257 A 
HETATM   10  C16 UNL     1      19.823   0.127  51.800  1.00  0.00     0.006 A 
HETATM   11  O1  UNL     1      21.697   1.743  49.291  1.00  0.00    -0.267 OA
HETATM   12  N1  UNL     1      19.511   0.943  49.641  1.00  0.00    -0.322 N 
HETATM   13  C11 UNL     1      18.950   0.302  50.765  1.00  0.00     0.046 A 
HETATM   14  H12 UNL     1      19.088   1.197  48.735  1.00  0.00     0.169 HD
HETATM   15  C12 UNL     1      17.652  -0.170  50.965  1.00  0.00     0.030 A 
HETATM   16  C13 UNL     1      17.240  -0.774  52.111  1.00  0.00     0.002 A 
HETATM   17  C14 UNL     1      18.118  -0.950  53.155  1.00  0.00     0.001 A 
HETATM   18  C15 UNL     1      19.407  -0.492  52.981  1.00  0.00     0.015 A 
ENDBRANCH   3   7
BRANCH   1  19
HETATM   19  C4  UNL     1      27.124   0.320  52.698  1.00  0.00     0.041 C 
BRANCH  19  20
HETATM   20  C3  UNL     1      27.374   0.349  54.172  1.00  0.00     0.004 C 
BRANCH  20  21
HETATM   21  C2  UNL     1      28.878   0.226  54.375  1.00  0.00    -0.004 C 
HETATM   22  C1  UNL     1      29.426  -0.886  53.516  1.00  0.00     0.005 C 
ENDBRANCH  20  21
ENDBRANCH  19  20
ENDBRANCH   1  19
BRANCH   5  23
HETATM   23  C19 UNL     1      25.225   4.369  50.728  1.00  0.00     0.013 C 
HETATM   24  C20 UNL     1      24.171   5.391  51.100  1.00  0.00     0.015 C 
HETATM   25  C21 UNL     1      25.315   4.358  49.220  1.00  0.00     0.015 C 
ENDBRANCH   5  23
BRANCH   6  26
HETATM   26  O2  UNL     1      27.356   2.853  51.578  1.00  0.00    -0.360 OA
HETATM   27  H25 UNL     1      27.676   3.668  52.089  1.00  0.00     0.217 HD
ENDBRANCH   6  26
TORSDOF 6
ENDMDL
MODEL 6
REMARK VINA RESULT:      -8.0      2.321      7.156
REMARK  6 active torsions:
REMARK  status: ('A' for Active; 'I' for Inactive)
REMARK    1  A    between atoms: C2_2  and  C3_3 
REMARK    2  A    between atoms: C3_3  and  C4_4 
REMARK    3  A    between atoms: C4_4  and  C5_5 
REMARK    4  A    between atoms: C7_7  and  C8_8 
REMARK    5  A    between atoms: C18_20  and  C19_21 
REMARK    6  A    between atoms: C22_24  and  O2_25 
ROOT
HETATM    1  C5  UNL     1      25.344   1.741  51.511  1.00  0.00    -0.024 A 
HETATM    2  C6  UNL     1      24.125   1.111  51.632  1.00  0.00     0.021 A 
HETATM    3  C7  UNL     1      22.931   1.779  51.324  1.00  0.00    -0.034 A 
HETATM    4  C17 UNL     1      23.103   3.074  50.906  1.00  0.00     0.021 A 
HETATM    5  C18 UNL     1      24.283   3.757  50.765  1.00  0.00    -0.020 A 
HETATM    6  C22 UNL     1      25.450   3.047  51.085  1.00  0.00     0.078 A 
ENDROOT
BRANCH   3   7
HETATM    7  C8  UNL     1      21.607   1.222  51.440  1.00  0.00     0.029 C 
HETATM    8  C9  UNL     1      20.982   0.498  52.340  1.00  0.00     0.045 A 
HETATM    9  C10 UNL     1      21.398  -0.040  53.618  1.00  0.00     0.257 A 
HETATM   10  C16 UNL     1      19.611   0.053  52.172  1.00  0.00     0.006 A 
HETATM   11  O1  UNL     1      22.522   0.106  54.158  1.00  0.00    -0.267 OA
HETATM   12  N1  UNL     1      20.344  -0.785  54.219  1.00  0.00    -0.322 N 
HETATM   13  C11 UNL     1      19.296  -0.681  53.280  1.00  0.00     0.046 A 
HETATM   14  H12 UNL     1      20.381  -1.270  55.128  1.00  0.00     0.169 HD
HETATM   15  C12 UNL     1      18.006  -1.212  53.323  1.00  0.00     0.030 A 
HETATM   16  C13 UNL     1      17.087  -1.034  52.339  1.00  0.00     0.002 A 
HETATM   17  C14 UNL     1      17.402  -0.296  51.221  1.00  0.00     0.001 A 
HETATM   18  C15 UNL     1      18.671   0.240  51.157  1.00  0.00     0.015 A 
ENDBRANCH   3   7
BRANCH   1  19
HETATM   19  C4  UNL     1      26.598   1.019  51.844  1.00  0.00     0.041 C 
BRANCH  19  20
HETATM   20  C3  UNL     1      26.398  -0.254  52.602  1.00  0.00     0.004 C 
BRANCH  20  21
HETATM   21  C2  UNL     1      27.740  -0.626  53.217  1.00  0.00    -0.004 C 
HETATM   22  C1  UNL     1      27.950   0.139  54.500  1.00  0.00     0.005 C 
ENDBRANCH  20  21
ENDBRANCH  19  20
ENDBRANCH   1  19
BRANCH   5  23
HETATM   23  C19 UNL     1      24.479   5.150  50.320  1.00  0.00     0.013 C 
HETATM   24  C20 UNL     1      23.667   6.144  51.124  1.00  0.00     0.015 C 
HETATM   25  C21 UNL     1      24.123   5.362  48.866  1.00  0.00     0.015 C 
ENDBRANCH   5  23
BRANCH   6  26
HETATM   26  O2  UNL     1      26.693   3.656  50.972  1.00  0.00    -0.360 OA
HETATM   27  H25 UNL     1      27.384   3.659  51.714  1.00  0.00     0.217 HD
ENDBRANCH   6  26
TORSDOF 6
ENDMDL
MODEL 7
REMARK VINA RESULT:      -8.0      2.955      6.833
REMARK  6 active torsions:
REMARK  status: ('A' for Active; 'I' for Inactive)
REMARK    1  A    between atoms: C2_2  and  C3_3 
REMARK    2  A    between atoms: C3_3  and  C4_4 
REMARK    3  A    between atoms: C4_4  and  C5_5 
REMARK    4  A    between atoms: C7_7  and  C8_8 
REMARK    5  A    between atoms: C18_20  and  C19_21 
REMARK    6  A    between atoms: C22_24  and  O2_25 
ROOT
HETATM    1  C5  UNL     1      25.016   0.309  52.922  1.00  0.00    -0.024 A 
HETATM    2  C6  UNL     1      25.488   1.430  52.277  1.00  0.00     0.021 A 
HETATM    3  C7  UNL     1      24.622   2.277  51.569  1.00  0.00    -0.034 A 
HETATM    4  C17 UNL     1      23.309   1.882  51.590  1.00  0.00     0.021 A 
HETATM    5  C18 UNL     1      22.777   0.781  52.211  1.00  0.00    -0.020 A 
HETATM    6  C22 UNL     1      23.682  -0.034  52.905  1.00  0.00     0.078 A 
ENDROOT
BRANCH   3   7
HETATM    7  C8  UNL     1      25.015   3.457  50.842  1.00  0.00     0.029 C 
HETATM    8  C9  UNL     1      24.703   4.732  50.906  1.00  0.00     0.045 A 
HETATM    9  C10 UNL     1      23.809   5.474  51.770  1.00  0.00     0.257 A 
HETATM   10  C16 UNL     1      25.259   5.720  50.001  1.00  0.00     0.006 A 
HETATM   11  O1  UNL     1      23.117   5.005  52.706  1.00  0.00    -0.267 OA
HETATM   12  N1  UNL     1      23.805   6.855  51.423  1.00  0.00    -0.322 N 
HETATM   13  C11 UNL     1      24.709   6.922  50.343  1.00  0.00     0.046 A 
HETATM   14  H12 UNL     1      23.255   7.597  51.883  1.00  0.00     0.169 HD
HETATM   15  C12 UNL     1      25.112   8.024  49.587  1.00  0.00     0.030 A 
HETATM   16  C13 UNL     1      25.999   7.946  48.560  1.00  0.00     0.002 A 
HETATM   17  C14 UNL     1      26.554   6.736  48.214  1.00  0.00     0.001 A 
HETATM   18  C15 UNL     1      26.171   5.633  48.947  1.00  0.00     0.015 A 
ENDBRANCH   3   7
BRANCH   1  19
HETATM   19  C4  UNL     1      25.949  -0.578  53.664  1.00  0.00     0.041 C 
BRANCH  19  20
HETATM   20  C3  UNL     1      27.169  -0.974  52.898  1.00  0.00     0.004 C 
BRANCH  20  21
HETATM   21  C2  UNL     1      28.374  -0.467  53.678  1.00  0.00    -0.004 C 
HETATM   22  C1  UNL     1      29.582  -1.319  53.375  1.00  0.00     0.005 C 
ENDBRANCH  20  21
ENDBRANCH  19  20
ENDBRANCH   1  19
BRANCH   5  23
HETATM   23  C19 UNL     1      21.367   0.346  52.236  1.00  0.00     0.013 C 
HETATM   24  C20 UNL     1      20.687   0.474  50.889  1.00  0.00     0.015 C 
HETATM   25  C21 UNL     1      20.528   1.116  53.230  1.00  0.00     0.015 C 
ENDBRANCH   5  23
BRANCH   6  26
HETATM   26  O2  UNL     1      23.236  -1.172  53.566  1.00  0.00    -0.360 OA
HETATM   27  H25 UNL     1      22.538  -1.802  53.186  1.00  0.00     0.217 HD
ENDBRANCH   6  26
TORSDOF 6
ENDMDL
MODEL 8
REMARK VINA RESULT:      -7.8      3.872      6.480
REMARK  6 active torsions:
REMARK  status: ('A' for Active; 'I' for Inactive)
REMARK    1  A    between atoms: C2_2  and  C3_3 
REMARK    2  A    between atoms: C3_3  and  C4_4 
REMARK    3  A    between atoms: C4_4  and  C5_5 
REMARK    4  A    between atoms: C7_7  and  C8_8 
REMARK    5  A    between atoms: C18_20  and  C19_21 
REMARK    6  A    between atoms: C22_24  and  O2_25 
ROOT
HETATM    1  C5  UNL     1      24.342   1.242  52.258  1.00  0.00    -0.024 A 
HETATM    2  C6  UNL     1      25.289   2.090  51.729  1.00  0.00     0.021 A 
HETATM    3  C7  UNL     1      25.030   2.828  50.564  1.00  0.00    -0.034 A 
HETATM    4  C17 UNL     1      23.783   2.620  50.033  1.00  0.00     0.021 A 
HETATM    5  C18 UNL     1      22.799   1.792  50.510  1.00  0.00    -0.020 A 
HETATM    6  C22 UNL     1      23.105   1.076  51.676  1.00  0.00     0.078 A 
ENDROOT
BRANCH   3   7
HETATM    7  C8  UNL     1      25.956   3.721  49.916  1.00  0.00     0.029 C 
HETATM    8  C9  UNL     1      25.951   4.998  49.609  1.00  0.00     0.045 A 
HETATM    9  C10 UNL     1      24.973   6.046  49.815  1.00  0.00     0.257 A 
HETATM   10  C16 UNL     1      27.052   5.641  48.916  1.00  0.00     0.006 A 
HETATM   11  O1  UNL     1      23.860   5.926  50.383  1.00  0.00    -0.267 OA
HETATM   12  N1  UNL     1      25.436   7.280  49.277  1.00  0.00    -0.322 N 
HETATM   13  C11 UNL     1      26.702   6.951  48.750  1.00  0.00     0.046 A 
HETATM   14  H12 UNL     1      24.931   8.179  49.292  1.00  0.00     0.169 HD
HETATM   15  C12 UNL     1      27.632   7.760  48.095  1.00  0.00     0.030 A 
HETATM   16  C13 UNL     1      28.827   7.309  47.632  1.00  0.00     0.002 A 
HETATM   17  C14 UNL     1      29.181   5.990  47.798  1.00  0.00     0.001 A 
HETATM   18  C15 UNL     1      28.278   5.170  48.443  1.00  0.00     0.015 A 
ENDBRANCH   3   7
BRANCH   1  19
HETATM   19  C4  UNL     1      24.635   0.467  53.492  1.00  0.00     0.041 C 
BRANCH  19  20
HETATM   20  C3  UNL     1      25.973  -0.200  53.501  1.00  0.00     0.004 C 
BRANCH  20  21
HETATM   21  C2  UNL     1      26.665   0.200  54.796  1.00  0.00    -0.004 C 
HETATM   22  C1  UNL     1      28.159   0.253  54.589  1.00  0.00     0.005 C 
ENDBRANCH  20  21
ENDBRANCH  19  20
ENDBRANCH   1  19
BRANCH   5  23
HETATM   23  C19 UNL     1      21.456   1.559  49.944  1.00  0.00     0.013 C 
HETATM   24  C20 UNL     1      21.485   1.272  48.458  1.00  0.00     0.015 C 
HETATM   25  C21 UNL     1      20.516   2.724  50.151  1.00  0.00     0.015 C 
ENDBRANCH   5  23
BRANCH   6  26
HETATM   26  O2  UNL     1      22.170   0.213  52.234  1.00  0.00    -0.360 OA
HETATM   27  H25 UNL     1      22.096  -0.767  51.987  1.00  0.00     0.217 HD
ENDBRANCH   6  26
TORSDOF 6
ENDMDL
MODEL 9
REMARK VINA RESULT:      -7.6      4.611      7.537
REMARK  6 active torsions:
REMARK  status: ('A' for Active; 'I' for Inactive)
REMARK    1  A    between atoms: C2_2  and  C3_3 
REMARK    2  A    between atoms: C3_3  and  C4_4 
REMARK    3  A    between atoms: C4_4  and  C5_5 
REMARK    4  A    between atoms: C7_7  and  C8_8 
REMARK    5  A    between atoms: C18_20  and  C19_21 
REMARK    6  A    between atoms: C22_24  and  O2_25 
ROOT
HETATM    1  C5  UNL     1      27.521   5.968  48.302  1.00  0.00    -0.024 A 
HETATM    2  C6  UNL     1      27.567   4.796  49.024  1.00  0.00     0.021 A 
HETATM    3  C7  UNL     1      26.399   4.215  49.538  1.00  0.00    -0.034 A 
HETATM    4  C17 UNL     1      25.253   4.913  49.255  1.00  0.00     0.021 A 
HETATM    5  C18 UNL     1      25.139   6.080  48.545  1.00  0.00    -0.020 A 
HETATM    6  C22 UNL     1      26.334   6.622  48.051  1.00  0.00     0.078 A 
ENDROOT
BRANCH   3   7
HETATM    7  C8  UNL     1      26.341   3.009  50.324  1.00  0.00     0.029 C 
HETATM    8  C9  UNL     1      25.594   2.587  51.319  1.00  0.00     0.045 A 
HETATM    9  C10 UNL     1      24.495   3.195  52.039  1.00  0.00     0.257 A 
HETATM   10  C16 UNL     1      25.784   1.292  51.946  1.00  0.00     0.006 A 
HETATM   11  O1  UNL     1      23.998   4.328  51.822  1.00  0.00    -0.267 OA
HETATM   12  N1  UNL     1      24.022   2.328  53.064  1.00  0.00    -0.322 N 
HETATM   13  C11 UNL     1      24.854   1.196  52.942  1.00  0.00     0.046 A 
HETATM   14  H12 UNL     1      23.248   2.522  53.718  1.00  0.00     0.169 HD
HETATM   15  C12 UNL     1      24.862   0.013  53.682  1.00  0.00     0.030 A 
HETATM   16  C13 UNL     1      25.730  -1.008  53.458  1.00  0.00     0.002 A 
HETATM   17  C14 UNL     1      26.668  -0.913  52.455  1.00  0.00     0.001 A 
HETATM   18  C15 UNL     1      26.679   0.247  51.709  1.00  0.00     0.015 A 
ENDBRANCH   3   7
BRANCH   1  19
HETATM   19  C4  UNL     1      28.769   6.570  47.767  1.00  0.00     0.041 C 
BRANCH  19  20
HETATM   20  C3  UNL     1      30.021   6.086  48.424  1.00  0.00     0.004 C 
BRANCH  20  21
HETATM   21  C2  UNL     1      31.062   5.904  47.328  1.00  0.00    -0.004 C 
HETATM   22  C1  UNL     1      31.759   4.576  47.492  1.00  0.00     0.005 C 
ENDBRANCH  20  21
ENDBRANCH  19  20
ENDBRANCH   1  19
BRANCH   5  23
HETATM   23  C19 UNL     1      23.912   6.840  48.238  1.00  0.00     0.013 C 
HETATM   24  C20 UNL     1      23.408   7.645  49.417  1.00  0.00     0.015 C 
HETATM   25  C21 UNL     1      22.770   5.961  47.782  1.00  0.00     0.015 C 
ENDBRANCH   5  23
BRANCH   6  26
HETATM   26  O2  UNL     1      26.319   7.803  47.319  1.00  0.00    -0.360 OA
HETATM   27  H25 UNL     1      26.969   8.003  46.568  1.00  0.00     0.217 HD
ENDBRANCH   6  26
TORSDOF 6
ENDMDL
