MODEL 1
REMARK VINA RESULT:     -10.1      0.000      0.000
REMARK  4 active torsions:
REMARK  status: ('A' for Active; 'I' for Inactive)
REMARK    1  A    between atoms: O1_2  and  C2_3 
REMARK    2  A    between atoms: C10_12  and  N2_13 
REMARK    3  A    between atoms: N2_13  and  C11_14 
REMARK    4  A    between atoms: C15_18  and  C16_19 
ROOT
HETATM    1  C2  UNL     1      27.662   7.300  47.434  1.00  0.00     0.069 A 
HETATM    2  C3  UNL     1      26.532   7.997  47.031  1.00  0.00     0.039 A 
HETATM    3  C4  UNL     1      25.309   7.593  47.526  1.00  0.00     0.040 A 
HETATM    4  C5  UNL     1      25.215   6.525  48.398  1.00  0.00     0.086 A 
HETATM    5  C6  UNL     1      26.317   5.812  48.817  1.00  0.00    -0.004 A 
HETATM    6  C7  UNL     1      27.522   6.242  48.304  1.00  0.00     0.048 A 
HETATM    7  C8  UNL     1      26.558   4.654  49.715  1.00  0.00     0.161 C 
HETATM    8  N1  UNL     1      25.621   4.605  50.814  1.00  0.00    -0.380 N 
HETATM    9  C9  UNL     1      24.253   4.938  50.921  1.00  0.00     0.109 A 
HETATM   10  C10 UNL     1      23.686   4.472  52.009  1.00  0.00     0.067 A 
HETATM   11  C23 UNL     1      22.261   4.687  52.345  1.00  0.00     0.263 A 
HETATM   12  O2  UNL     1      21.602   5.447  51.358  1.00  0.00    -0.248 OA
HETATM   13  N3  UNL     1      22.204   5.926  50.232  1.00  0.00    -0.105 NA
HETATM   14  C24 UNL     1      23.462   5.714  49.972  1.00  0.00     0.225 A 
HETATM   15  O3  UNL     1      23.903   6.275  48.781  1.00  0.00    -0.288 OA
HETATM   16  H9  UNL     1      26.032   4.251  51.723  1.00  0.00     0.160 HD
ENDROOT
BRANCH  10  17
HETATM   17  N2  UNL     1      24.414   3.710  52.962  1.00  0.00    -0.356 N 
HETATM   18  H10 UNL     1      24.932   4.296  53.652  1.00  0.00     0.166 HD
BRANCH  17  19
HETATM   19  C11 UNL     1      24.454   2.291  52.998  1.00  0.00     0.033 A 
HETATM   20  C12 UNL     1      23.282   1.566  52.969  1.00  0.00     0.029 A 
HETATM   21  C13 UNL     1      23.317   0.168  53.003  1.00  0.00     0.003 A 
HETATM   22  C14 UNL     1      24.570  -0.446  53.067  1.00  0.00     0.012 A 
HETATM   23  C15 UNL     1      25.717   0.296  53.095  1.00  0.00    -0.024 A 
HETATM   24  C22 UNL     1      25.679   1.674  53.061  1.00  0.00     0.041 A 
BRANCH  23  25
HETATM   25  C16 UNL     1      26.963  -0.470  53.163  1.00  0.00    -0.026 A 
HETATM   26  C17 UNL     1      27.046  -1.792  52.770  1.00  0.00     0.012 A 
HETATM   27  C18 UNL     1      28.235  -2.505  52.838  1.00  0.00     0.001 A 
HETATM   28  C19 UNL     1      29.359  -1.855  53.316  1.00  0.00     0.000 A 
HETATM   29  C20 UNL     1      29.319  -0.525  53.723  1.00  0.00     0.001 A 
HETATM   30  C21 UNL     1      28.112   0.151  53.638  1.00  0.00     0.012 A 
ENDBRANCH  23  25
ENDBRANCH  17  19
ENDBRANCH  10  17
BRANCH   1  31
HETATM   31  O1  UNL     1      28.852   7.759  46.899  1.00  0.00    -0.356 OA
HETATM   32  C1  UNL     1      30.060   7.852  47.630  1.00  0.00     0.210 C 
ENDBRANCH   1  31
TORSDOF 4
ENDMDL
MODEL 2
REMARK VINA RESULT:      -9.8      1.746      2.334
REMARK  4 active torsions:
REMARK  status: ('A' for Active; 'I' for Inactive)
REMARK    1  A    between atoms: O1_2  and  C2_3 
REMARK    2  A    between atoms: C10_12  and  N2_13 
REMARK    3  A    between atoms: N2_13  and  C11_14 
REMARK    4  A    between atoms: C15_18  and  C16_19 
ROOT
HETATM    1  C2  UNL     1      30.434   8.144  48.468  1.00  0.00     0.069 A 
HETATM    2  C3  UNL     1      29.851   9.247  49.075  1.00  0.00     0.039 A 
HETATM    3  C4  UNL     1      28.521   9.163  49.433  1.00  0.00     0.040 A 
HETATM    4  C5  UNL     1      27.794   8.013  49.194  1.00  0.00     0.086 A 
HETATM    5  C6  UNL     1      28.343   6.901  48.594  1.00  0.00    -0.004 A 
HETATM    6  C7  UNL     1      29.672   7.018  48.250  1.00  0.00     0.048 A 
HETATM    7  C8  UNL     1      27.858   5.552  48.205  1.00  0.00     0.161 C 
HETATM    8  N1  UNL     1      26.847   5.049  49.108  1.00  0.00    -0.380 N 
HETATM    9  C9  UNL     1      25.803   5.678  49.821  1.00  0.00     0.109 A 
HETATM   10  C10 UNL     1      24.917   4.836  50.297  1.00  0.00     0.067 A 
HETATM   11  C23 UNL     1      23.731   5.252  51.079  1.00  0.00     0.263 A 
HETATM   12  O2  UNL     1      23.679   6.651  51.241  1.00  0.00    -0.248 OA
HETATM   13  N3  UNL     1      24.608   7.515  50.740  1.00  0.00    -0.105 NA
HETATM   14  C24 UNL     1      25.638   7.108  50.057  1.00  0.00     0.225 A 
HETATM   15  O3  UNL     1      26.478   8.127  49.625  1.00  0.00    -0.288 OA
HETATM   16  H9  UNL     1      26.889   4.004  49.271  1.00  0.00     0.160 HD
ENDROOT
BRANCH  10  17
HETATM   17  N2  UNL     1      25.033   3.434  50.093  1.00  0.00    -0.356 N 
HETATM   18  H10 UNL     1      25.104   3.166  49.088  1.00  0.00     0.166 HD
BRANCH  17  19
HETATM   19  C11 UNL     1      25.051   2.468  51.135  1.00  0.00     0.033 A 
HETATM   20  C12 UNL     1      23.888   2.150  51.802  1.00  0.00     0.029 A 
HETATM   21  C13 UNL     1      23.903   1.198  52.828  1.00  0.00     0.003 A 
HETATM   22  C14 UNL     1      25.126   0.599  53.137  1.00  0.00     0.012 A 
HETATM   23  C15 UNL     1      26.265   0.933  52.459  1.00  0.00    -0.024 A 
HETATM   24  C22 UNL     1      26.248   1.871  51.449  1.00  0.00     0.041 A 
BRANCH  23  25
HETATM   25  C16 UNL     1      27.479   0.233  52.881  1.00  0.00    -0.026 A 
HETATM   26  C17 UNL     1      27.596  -1.143  52.844  1.00  0.00     0.012 A 
HETATM   27  C18 UNL     1      28.755  -1.794  53.246  1.00  0.00     0.001 A 
HETATM   28  C19 UNL     1      29.813  -1.024  53.694  1.00  0.00     0.000 A 
HETATM   29  C20 UNL     1      29.737   0.365  53.748  1.00  0.00     0.001 A 
HETATM   30  C21 UNL     1      28.562   0.975  53.338  1.00  0.00     0.012 A 
ENDBRANCH  23  25
ENDBRANCH  17  19
ENDBRANCH  10  17
BRANCH   1  31
HETATM   31  O1  UNL     1      31.769   8.297  48.137  1.00  0.00    -0.356 OA
HETATM   32  C1  UNL     1      32.835   7.752  48.890  1.00  0.00     0.210 C 
ENDBRANCH   1  31
TORSDOF 4
ENDMDL
MODEL 3
REMARK VINA RESULT:      -9.8      1.865      2.610
REMARK  4 active torsions:
REMARK  status: ('A' for Active; 'I' for Inactive)
REMARK    1  A    between atoms: O1_2  and  C2_3 
REMARK    2  A    between atoms: C10_12  and  N2_13 
REMARK    3  A    between atoms: N2_13  and  C11_14 
REMARK    4  A    between atoms: C15_18  and  C16_19 
ROOT
HETATM    1  C2  UNL     1      25.655   7.196  49.993  1.00  0.00     0.069 A 
HETATM    2  C3  UNL     1      24.638   7.993  50.498  1.00  0.00     0.039 A 
HETATM    3  C4  UNL     1      23.437   7.392  50.813  1.00  0.00     0.040 A 
HETATM    4  C5  UNL     1      23.255   6.034  50.630  1.00  0.00     0.086 A 
HETATM    5  C6  UNL     1      24.244   5.215  50.131  1.00  0.00    -0.004 A 
HETATM    6  C7  UNL     1      25.430   5.848  49.827  1.00  0.00     0.048 A 
HETATM    7  C8  UNL     1      24.374   3.768  49.822  1.00  0.00     0.161 C 
HETATM    8  N1  UNL     1      23.600   2.942  50.720  1.00  0.00    -0.380 N 
HETATM    9  C9  UNL     1      22.348   3.124  51.349  1.00  0.00     0.109 A 
HETATM   10  C10 UNL     1      21.852   2.018  51.852  1.00  0.00     0.067 A 
HETATM   11  C23 UNL     1      20.553   1.952  52.558  1.00  0.00     0.263 A 
HETATM   12  O2  UNL     1      19.928   3.214  52.619  1.00  0.00    -0.248 OA
HETATM   13  N3  UNL     1      20.457   4.356  52.091  1.00  0.00    -0.105 NA
HETATM   14  C24 UNL     1      21.603   4.372  51.476  1.00  0.00     0.225 A 
HETATM   15  O3  UNL     1      21.982   5.621  51.004  1.00  0.00    -0.288 OA
HETATM   16  H9  UNL     1      24.052   2.015  50.959  1.00  0.00     0.160 HD
ENDROOT
BRANCH  10  17
HETATM   17  N2  UNL     1      22.539   0.778  51.752  1.00  0.00    -0.356 N 
HETATM   18  H10 UNL     1      22.462   0.335  50.811  1.00  0.00     0.166 HD
BRANCH  17  19
HETATM   19  C11 UNL     1      23.267   0.174  52.812  1.00  0.00     0.033 A 
HETATM   20  C12 UNL     1      22.597  -0.393  53.874  1.00  0.00     0.029 A 
HETATM   21  C13 UNL     1      23.312  -0.989  54.919  1.00  0.00     0.003 A 
HETATM   22  C14 UNL     1      24.706  -0.983  54.837  1.00  0.00     0.012 A 
HETATM   23  C15 UNL     1      25.345  -0.414  53.771  1.00  0.00    -0.024 A 
HETATM   24  C22 UNL     1      24.639   0.174  52.743  1.00  0.00     0.041 A 
BRANCH  23  25
HETATM   25  C16 UNL     1      26.807  -0.474  53.807  1.00  0.00    -0.026 A 
HETATM   26  C17 UNL     1      27.531  -1.412  53.097  1.00  0.00     0.012 A 
HETATM   27  C18 UNL     1      28.919  -1.455  53.139  1.00  0.00     0.001 A 
HETATM   28  C19 UNL     1      29.577  -0.524  53.922  1.00  0.00     0.000 A 
HETATM   29  C20 UNL     1      28.886   0.437  54.654  1.00  0.00     0.001 A 
HETATM   30  C21 UNL     1      27.502   0.446  54.584  1.00  0.00     0.012 A 
ENDBRANCH  23  25
ENDBRANCH  17  19
ENDBRANCH  10  17
BRANCH   1  31
HETATM   31  O1  UNL     1      26.830   7.865  49.700  1.00  0.00    -0.356 OA
HETATM   32  C1  UNL     1      27.125   8.422  48.433  1.00  0.00     0.210 C 
ENDBRANCH   1  31
TORSDOF 4
ENDMDL
MODEL 4
REMARK VINA RESULT:      -9.8      2.109      3.697
REMARK  4 active torsions:
REMARK  status: ('A' for Active; 'I' for Inactive)
REMARK    1  A    between atoms: O1_2  and  C2_3 
REMARK    2  A    between atoms: C10_12  and  N2_13 
REMARK    3  A    between atoms: N2_13  and  C11_14 
REMARK    4  A    between atoms: C15_18  and  C16_19 
ROOT
HETATM    1  C2  UNL     1      30.277   8.394  48.555  1.00  0.00     0.069 A 
HETATM    2  C3  UNL     1      29.649   9.453  49.195  1.00  0.00     0.039 A 
HETATM    3  C4  UNL     1      28.325   9.304  49.551  1.00  0.00     0.040 A 
HETATM    4  C5  UNL     1      27.645   8.132  49.276  1.00  0.00     0.086 A 
HETATM    5  C6  UNL     1      28.239   7.063  48.642  1.00  0.00    -0.004 A 
HETATM    6  C7  UNL     1      29.562   7.246  48.301  1.00  0.00     0.048 A 
HETATM    7  C8  UNL     1      27.810   5.708  48.211  1.00  0.00     0.161 C 
HETATM    8  N1  UNL     1      26.821   5.136  49.097  1.00  0.00    -0.380 N 
HETATM    9  C9  UNL     1      25.753   5.699  49.830  1.00  0.00     0.109 A 
HETATM   10  C10 UNL     1      24.902   4.807  50.279  1.00  0.00     0.067 A 
HETATM   11  C23 UNL     1      23.701   5.150  51.073  1.00  0.00     0.263 A 
HETATM   12  O2  UNL     1      23.592   6.540  51.279  1.00  0.00    -0.248 OA
HETATM   13  N3  UNL     1      24.485   7.456  50.805  1.00  0.00    -0.105 NA
HETATM   14  C24 UNL     1      25.529   7.113  50.109  1.00  0.00     0.225 A 
HETATM   15  O3  UNL     1      26.326   8.178  49.710  1.00  0.00    -0.288 OA
HETATM   16  H9  UNL     1      26.906   4.089  49.228  1.00  0.00     0.160 HD
ENDROOT
BRANCH  10  17
HETATM   17  N2  UNL     1      25.075   3.418  50.032  1.00  0.00    -0.356 N 
HETATM   18  H10 UNL     1      24.972   3.160  49.027  1.00  0.00     0.166 HD
BRANCH  17  19
HETATM   19  C11 UNL     1      25.360   2.452  51.034  1.00  0.00     0.033 A 
HETATM   20  C12 UNL     1      26.667   2.169  51.369  1.00  0.00     0.029 A 
HETATM   21  C13 UNL     1      26.950   1.218  52.356  1.00  0.00     0.003 A 
HETATM   22  C14 UNL     1      25.870   0.582  52.971  1.00  0.00     0.012 A 
HETATM   23  C15 UNL     1      24.583   0.881  52.619  1.00  0.00    -0.024 A 
HETATM   24  C22 UNL     1      24.307   1.819  51.647  1.00  0.00     0.041 A 
BRANCH  23  25
HETATM   25  C16 UNL     1      23.545   0.143  53.340  1.00  0.00    -0.026 A 
HETATM   26  C17 UNL     1      23.828  -0.703  54.394  1.00  0.00     0.012 A 
HETATM   27  C18 UNL     1      22.831  -1.395  55.070  1.00  0.00     0.001 A 
HETATM   28  C19 UNL     1      21.522  -1.218  54.660  1.00  0.00     0.000 A 
HETATM   29  C20 UNL     1      21.193  -0.375  53.603  1.00  0.00     0.001 A 
HETATM   30  C21 UNL     1      22.218   0.297  52.955  1.00  0.00     0.012 A 
ENDBRANCH  23  25
ENDBRANCH  17  19
ENDBRANCH  10  17
BRANCH   1  31
HETATM   31  O1  UNL     1      31.604   8.612  48.229  1.00  0.00    -0.356 OA
HETATM   32  C1  UNL     1      32.690   7.981  48.880  1.00  0.00     0.210 C 
ENDBRANCH   1  31
TORSDOF 4
ENDMDL
MODEL 5
REMARK VINA RESULT:      -9.7      2.887      3.902
REMARK  4 active torsions:
REMARK  status: ('A' for Active; 'I' for Inactive)
REMARK    1  A    between atoms: O1_2  and  C2_3 
REMARK    2  A    between atoms: C10_12  and  N2_13 
REMARK    3  A    between atoms: N2_13  and  C11_14 
REMARK    4  A    between atoms: C15_18  and  C16_19 
ROOT
HETATM    1  C2  UNL     1      30.353   6.411  47.597  1.00  0.00     0.069 A 
HETATM    2  C3  UNL     1      29.924   7.694  47.289  1.00  0.00     0.039 A 
HETATM    3  C4  UNL     1      28.600   8.008  47.518  1.00  0.00     0.040 A 
HETATM    4  C5  UNL     1      27.729   7.070  48.038  1.00  0.00     0.086 A 
HETATM    5  C6  UNL     1      28.123   5.788  48.354  1.00  0.00    -0.004 A 
HETATM    6  C7  UNL     1      29.451   5.508  48.114  1.00  0.00     0.048 A 
HETATM    7  C8  UNL     1      27.465   4.577  48.909  1.00  0.00     0.161 C 
HETATM    8  N1  UNL     1      26.412   4.903  49.844  1.00  0.00    -0.380 N 
HETATM    9  C9  UNL     1      25.467   5.952  49.894  1.00  0.00     0.109 A 
HETATM   10  C10 UNL     1      24.489   5.731  50.740  1.00  0.00     0.067 A 
HETATM   11  C23 UNL     1      23.377   6.681  50.970  1.00  0.00     0.263 A 
HETATM   12  O2  UNL     1      23.506   7.837  50.173  1.00  0.00    -0.248 OA
HETATM   13  N3  UNL     1      24.530   8.052  49.298  1.00  0.00    -0.105 NA
HETATM   14  C24 UNL     1      25.489   7.190  49.124  1.00  0.00     0.225 A 
HETATM   15  O3  UNL     1      26.445   7.577  48.193  1.00  0.00    -0.288 OA
HETATM   16  H9  UNL     1      26.324   4.228  50.654  1.00  0.00     0.160 HD
ENDROOT
BRANCH  10  17
HETATM   17  N2  UNL     1      24.423   4.540  51.512  1.00  0.00    -0.356 N 
HETATM   18  H10 UNL     1      25.017   4.567  52.368  1.00  0.00     0.166 HD
BRANCH  17  19
HETATM   19  C11 UNL     1      23.635   3.406  51.176  1.00  0.00     0.033 A 
HETATM   20  C12 UNL     1      23.209   3.221  49.879  1.00  0.00     0.029 A 
HETATM   21  C13 UNL     1      22.434   2.104  49.546  1.00  0.00     0.003 A 
HETATM   22  C14 UNL     1      22.120   1.206  50.567  1.00  0.00     0.012 A 
HETATM   23  C15 UNL     1      22.556   1.413  51.846  1.00  0.00    -0.024 A 
HETATM   24  C22 UNL     1      23.319   2.514  52.172  1.00  0.00     0.041 A 
BRANCH  23  25
HETATM   25  C16 UNL     1      22.157   0.397  52.821  1.00  0.00    -0.026 A 
HETATM   26  C17 UNL     1      20.860  -0.067  52.924  1.00  0.00     0.012 A 
HETATM   27  C18 UNL     1      20.497  -1.034  53.853  1.00  0.00     0.001 A 
HETATM   28  C19 UNL     1      21.477  -1.532  54.692  1.00  0.00     0.000 A 
HETATM   29  C20 UNL     1      22.795  -1.092  54.623  1.00  0.00     0.001 A 
HETATM   30  C21 UNL     1      23.116  -0.126  53.681  1.00  0.00     0.012 A 
ENDBRANCH  23  25
ENDBRANCH  17  19
ENDBRANCH  10  17
BRANCH   1  31
HETATM   31  O1  UNL     1      31.691   6.166  47.343  1.00  0.00    -0.356 OA
HETATM   32  C1  UNL     1      32.406   5.068  47.876  1.00  0.00     0.210 C 
ENDBRANCH   1  31
TORSDOF 4
ENDMDL
MODEL 6
REMARK VINA RESULT:      -9.5      2.599      7.298
REMARK  4 active torsions:
REMARK  status: ('A' for Active; 'I' for Inactive)
REMARK    1  A    between atoms: O1_2  and  C2_3 
REMARK    2  A    between atoms: C10_12  and  N2_13 
REMARK    3  A    between atoms: N2_13  and  C11_14 
REMARK    4  A    between atoms: C15_18  and  C16_19 
ROOT
HETATM    1  C2  UNL     1      27.826   0.113  53.417  1.00  0.00     0.069 A 
HETATM    2  C3  UNL     1      27.114  -0.971  52.923  1.00  0.00     0.039 A 
HETATM    3  C4  UNL     1      25.757  -0.819  52.723  1.00  0.00     0.040 A 
HETATM    4  C5  UNL     1      25.128   0.378  53.010  1.00  0.00     0.086 A 
HETATM    5  C6  UNL     1      25.806   1.471  53.501  1.00  0.00    -0.004 A 
HETATM    6  C7  UNL     1      27.159   1.286  53.688  1.00  0.00     0.048 A 
HETATM    7  C8  UNL     1      25.447   2.857  53.900  1.00  0.00     0.161 C 
HETATM    8  N1  UNL     1      24.362   3.393  53.110  1.00  0.00    -0.380 N 
HETATM    9  C9  UNL     1      23.206   2.807  52.548  1.00  0.00     0.109 A 
HETATM   10  C10 UNL     1      22.316   3.686  52.154  1.00  0.00     0.067 A 
HETATM   11  C23 UNL     1      21.023   3.320  51.535  1.00  0.00     0.263 A 
HETATM   12  O2  UNL     1      20.875   1.922  51.427  1.00  0.00    -0.248 OA
HETATM   13  N3  UNL     1      21.810   1.019  51.841  1.00  0.00    -0.105 NA
HETATM   14  C24 UNL     1      22.936   1.383  52.382  1.00  0.00     0.225 A 
HETATM   15  O3  UNL     1      23.765   0.329  52.743  1.00  0.00    -0.288 OA
HETATM   16  H9  UNL     1      24.441   4.429  52.907  1.00  0.00     0.160 HD
ENDROOT
BRANCH  10  17
HETATM   17  N2  UNL     1      22.532   5.084  52.295  1.00  0.00    -0.356 N 
HETATM   18  H10 UNL     1      22.286   5.448  53.241  1.00  0.00     0.166 HD
BRANCH  17  19
HETATM   19  C11 UNL     1      23.032   5.929  51.268  1.00  0.00     0.033 A 
HETATM   20  C12 UNL     1      22.255   6.958  50.782  1.00  0.00     0.029 A 
HETATM   21  C13 UNL     1      22.744   7.793  49.771  1.00  0.00     0.003 A 
HETATM   22  C14 UNL     1      24.030   7.539  49.289  1.00  0.00     0.012 A 
HETATM   23  C15 UNL     1      24.780   6.512  49.789  1.00  0.00    -0.024 A 
HETATM   24  C22 UNL     1      24.295   5.691  50.785  1.00  0.00     0.041 A 
BRANCH  23  25
HETATM   25  C16 UNL     1      26.109   6.354  49.196  1.00  0.00    -0.026 A 
HETATM   26  C17 UNL     1      26.853   7.425  48.741  1.00  0.00     0.012 A 
HETATM   27  C18 UNL     1      28.114   7.260  48.183  1.00  0.00     0.001 A 
HETATM   28  C19 UNL     1      28.622   5.978  48.089  1.00  0.00     0.000 A 
HETATM   29  C20 UNL     1      27.906   4.871  48.535  1.00  0.00     0.001 A 
HETATM   30  C21 UNL     1      26.652   5.079  49.086  1.00  0.00     0.012 A 
ENDBRANCH  23  25
ENDBRANCH  17  19
ENDBRANCH  10  17
BRANCH   1  31
HETATM   31  O1  UNL     1      29.181  -0.110  53.591  1.00  0.00    -0.356 OA
HETATM   32  C1  UNL     1      29.786  -1.386  53.513  1.00  0.00     0.210 C 
ENDBRANCH   1  31
TORSDOF 4
ENDMDL
MODEL 7
REMARK VINA RESULT:      -9.4      3.395      8.842
REMARK  4 active torsions:
REMARK  status: ('A' for Active; 'I' for Inactive)
REMARK    1  A    between atoms: O1_2  and  C2_3 
REMARK    2  A    between atoms: C10_12  and  N2_13 
REMARK    3  A    between atoms: N2_13  and  C11_14 
REMARK    4  A    between atoms: C15_18  and  C16_19 
ROOT
HETATM    1  C2  UNL     1      19.415  -0.364  52.911  1.00  0.00     0.069 A 
HETATM    2  C3  UNL     1      20.132  -0.779  54.024  1.00  0.00     0.039 A 
HETATM    3  C4  UNL     1      21.505  -0.640  54.000  1.00  0.00     0.040 A 
HETATM    4  C5  UNL     1      22.144  -0.104  52.898  1.00  0.00     0.086 A 
HETATM    5  C6  UNL     1      21.461   0.317  51.778  1.00  0.00    -0.004 A 
HETATM    6  C7  UNL     1      20.092   0.165  51.836  1.00  0.00     0.048 A 
HETATM    7  C8  UNL     1      21.827   0.918  50.470  1.00  0.00     0.161 C 
HETATM    8  N1  UNL     1      22.989   1.774  50.564  1.00  0.00    -0.380 N 
HETATM    9  C9  UNL     1      24.169   1.705  51.337  1.00  0.00     0.109 A 
HETATM   10  C10 UNL     1      25.114   2.512  50.917  1.00  0.00     0.067 A 
HETATM   11  C23 UNL     1      26.442   2.621  51.562  1.00  0.00     0.263 A 
HETATM   12  O2  UNL     1      26.556   1.755  52.669  1.00  0.00    -0.248 OA
HETATM   13  N3  UNL     1      25.564   0.921  53.094  1.00  0.00    -0.105 NA
HETATM   14  C24 UNL     1      24.409   0.855  52.498  1.00  0.00     0.225 A 
HETATM   15  O3  UNL     1      23.522  -0.049  53.068  1.00  0.00    -0.288 OA
HETATM   16  H9  UNL     1      22.958   2.622  49.931  1.00  0.00     0.160 HD
ENDROOT
BRANCH  10  17
HETATM   17  N2  UNL     1      24.929   3.358  49.790  1.00  0.00    -0.356 N 
HETATM   18  H10 UNL     1      24.376   2.914  49.025  1.00  0.00     0.166 HD
BRANCH  17  19
HETATM   19  C11 UNL     1      25.436   4.681  49.685  1.00  0.00     0.033 A 
HETATM   20  C12 UNL     1      24.783   5.722  50.309  1.00  0.00     0.029 A 
HETATM   21  C13 UNL     1      25.281   7.026  50.208  1.00  0.00     0.003 A 
HETATM   22  C14 UNL     1      26.444   7.219  49.460  1.00  0.00     0.012 A 
HETATM   23  C15 UNL     1      27.072   6.168  48.851  1.00  0.00    -0.024 A 
HETATM   24  C22 UNL     1      26.580   4.884  48.952  1.00  0.00     0.041 A 
BRANCH  23  25
HETATM   25  C16 UNL     1      28.281   6.506  48.098  1.00  0.00    -0.026 A 
HETATM   26  C17 UNL     1      28.336   7.567  47.215  1.00  0.00     0.012 A 
HETATM   27  C18 UNL     1      29.491   7.877  46.509  1.00  0.00     0.001 A 
HETATM   28  C19 UNL     1      30.609   7.087  46.710  1.00  0.00     0.000 A 
HETATM   29  C20 UNL     1      30.596   6.009  47.590  1.00  0.00     0.001 A 
HETATM   30  C21 UNL     1      29.423   5.734  48.275  1.00  0.00     0.012 A 
ENDBRANCH  23  25
ENDBRANCH  17  19
ENDBRANCH  10  17
BRANCH   1  31
HETATM   31  O1  UNL     1      18.045  -0.532  53.004  1.00  0.00    -0.356 OA
HETATM   32  C1  UNL     1      17.409  -1.793  53.087  1.00  0.00     0.210 C 
ENDBRANCH   1  31
TORSDOF 4
ENDMDL
MODEL 8
REMARK VINA RESULT:      -9.1      1.751      2.816
REMARK  4 active torsions:
REMARK  status: ('A' for Active; 'I' for Inactive)
REMARK    1  A    between atoms: O1_2  and  C2_3 
REMARK    2  A    between atoms: C10_12  and  N2_13 
REMARK    3  A    between atoms: N2_13  and  C11_14 
REMARK    4  A    between atoms: C15_18  and  C16_19 
ROOT
HETATM    1  C2  UNL     1      30.009   6.488  47.449  1.00  0.00     0.069 A 
HETATM    2  C3  UNL     1      29.581   7.645  46.815  1.00  0.00     0.039 A 
HETATM    3  C4  UNL     1      28.257   8.009  46.951  1.00  0.00     0.040 A 
HETATM    4  C5  UNL     1      27.384   7.241  47.698  1.00  0.00     0.086 A 
HETATM    5  C6  UNL     1      27.776   6.086  48.339  1.00  0.00    -0.004 A 
HETATM    6  C7  UNL     1      29.105   5.753  48.183  1.00  0.00     0.048 A 
HETATM    7  C8  UNL     1      27.117   5.064  49.191  1.00  0.00     0.161 C 
HETATM    8  N1  UNL     1      26.063   5.624  50.006  1.00  0.00    -0.380 N 
HETATM    9  C9  UNL     1      25.119   6.650  49.778  1.00  0.00     0.109 A 
HETATM   10  C10 UNL     1      24.139   6.659  50.651  1.00  0.00     0.067 A 
HETATM   11  C23 UNL     1      23.028   7.637  50.622  1.00  0.00     0.263 A 
HETATM   12  O2  UNL     1      23.159   8.543  49.550  1.00  0.00    -0.248 OA
HETATM   13  N3  UNL     1      24.184   8.521  48.651  1.00  0.00    -0.105 NA
HETATM   14  C24 UNL     1      25.143   7.643  48.710  1.00  0.00     0.225 A 
HETATM   15  O3  UNL     1      26.100   7.772  47.712  1.00  0.00    -0.288 OA
HETATM   16  H9  UNL     1      25.973   5.185  50.965  1.00  0.00     0.160 HD
ENDROOT
BRANCH  10  17
HETATM   17  N2  UNL     1      24.071   5.712  51.708  1.00  0.00    -0.356 N 
HETATM   18  H10 UNL     1      24.341   6.105  52.635  1.00  0.00     0.166 HD
BRANCH  17  19
HETATM   19  C11 UNL     1      23.678   4.356  51.550  1.00  0.00     0.033 A 
HETATM   20  C12 UNL     1      22.504   4.049  50.898  1.00  0.00     0.029 A 
HETATM   21  C13 UNL     1      22.115   2.714  50.740  1.00  0.00     0.003 A 
HETATM   22  C14 UNL     1      22.955   1.729  51.263  1.00  0.00     0.012 A 
HETATM   23  C15 UNL     1      24.115   2.061  51.905  1.00  0.00    -0.024 A 
HETATM   24  C22 UNL     1      24.495   3.377  52.060  1.00  0.00     0.041 A 
BRANCH  23  25
HETATM   25  C16 UNL     1      24.903   0.934  52.407  1.00  0.00    -0.026 A 
HETATM   26  C17 UNL     1      24.455   0.100  53.412  1.00  0.00     0.012 A 
HETATM   27  C18 UNL     1      25.213  -0.967  53.876  1.00  0.00     0.001 A 
HETATM   28  C19 UNL     1      26.453  -1.183  53.301  1.00  0.00     0.000 A 
HETATM   29  C20 UNL     1      26.943  -0.367  52.287  1.00  0.00     0.001 A 
HETATM   30  C21 UNL     1      26.154   0.687  51.852  1.00  0.00     0.012 A 
ENDBRANCH  23  25
ENDBRANCH  17  19
ENDBRANCH  10  17
BRANCH   1  31
HETATM   31  O1  UNL     1      31.346   6.184  47.271  1.00  0.00    -0.356 OA
HETATM   32  C1  UNL     1      32.315   6.258  48.299  1.00  0.00     0.210 C 
ENDBRANCH   1  31
TORSDOF 4
ENDMDL
MODEL 9
REMARK VINA RESULT:      -9.1      2.340      2.964
REMARK  4 active torsions:
REMARK  status: ('A' for Active; 'I' for Inactive)
REMARK    1  A    between atoms: O1_2  and  C2_3 
REMARK    2  A    between atoms: C10_12  and  N2_13 
REMARK    3  A    between atoms: N2_13  and  C11_14 
REMARK    4  A    between atoms: C15_18  and  C16_19 
ROOT
HETATM    1  C2  UNL     1      24.431   7.897  49.143  1.00  0.00     0.069 A 
HETATM    2  C3  UNL     1      24.003   7.568  47.865  1.00  0.00     0.039 A 
HETATM    3  C4  UNL     1      23.553   6.283  47.641  1.00  0.00     0.040 A 
HETATM    4  C5  UNL     1      23.531   5.352  48.662  1.00  0.00     0.086 A 
HETATM    5  C6  UNL     1      23.949   5.646  49.942  1.00  0.00    -0.004 A 
HETATM    6  C7  UNL     1      24.391   6.938  50.130  1.00  0.00     0.048 A 
HETATM    7  C8  UNL     1      24.052   4.906  51.225  1.00  0.00     0.161 C 
HETATM    8  N1  UNL     1      23.011   3.913  51.373  1.00  0.00    -0.380 N 
HETATM    9  C9  UNL     1      22.362   3.063  50.451  1.00  0.00     0.109 A 
HETATM   10  C10 UNL     1      21.685   2.095  51.023  1.00  0.00     0.067 A 
HETATM   11  C23 UNL     1      20.921   1.075  50.270  1.00  0.00     0.263 A 
HETATM   12  O2  UNL     1      21.016   1.277  48.878  1.00  0.00    -0.248 OA
HETATM   13  N3  UNL     1      21.724   2.288  48.297  1.00  0.00    -0.105 NA
HETATM   14  C24 UNL     1      22.384   3.165  48.996  1.00  0.00     0.225 A 
HETATM   15  O3  UNL     1      23.047   4.121  48.237  1.00  0.00    -0.288 OA
HETATM   16  H9  UNL     1      22.661   3.793  52.365  1.00  0.00     0.160 HD
ENDROOT
BRANCH  10  17
HETATM   17  N2  UNL     1      21.634   1.952  52.436  1.00  0.00    -0.356 N 
HETATM   18  H10 UNL     1      21.057   2.682  52.906  1.00  0.00     0.166 HD
BRANCH  17  19
HETATM   19  C11 UNL     1      22.295   0.928  53.166  1.00  0.00     0.033 A 
HETATM   20  C12 UNL     1      21.569   0.065  53.957  1.00  0.00     0.029 A 
HETATM   21  C13 UNL     1      22.217  -0.945  54.676  1.00  0.00     0.003 A 
HETATM   22  C14 UNL     1      23.605  -1.035  54.557  1.00  0.00     0.012 A 
HETATM   23  C15 UNL     1      24.302  -0.166  53.765  1.00  0.00    -0.024 A 
HETATM   24  C22 UNL     1      23.661   0.829  53.058  1.00  0.00     0.041 A 
BRANCH  23  25
HETATM   25  C16 UNL     1      25.751  -0.369  53.729  1.00  0.00    -0.026 A 
HETATM   26  C17 UNL     1      26.360  -1.238  52.844  1.00  0.00     0.012 A 
HETATM   27  C18 UNL     1      27.737  -1.418  52.820  1.00  0.00     0.001 A 
HETATM   28  C19 UNL     1      28.504  -0.697  53.717  1.00  0.00     0.000 A 
HETATM   29  C20 UNL     1      27.932   0.188  54.625  1.00  0.00     0.001 A 
HETATM   30  C21 UNL     1      26.554   0.339  54.616  1.00  0.00     0.012 A 
ENDBRANCH  23  25
ENDBRANCH  17  19
ENDBRANCH  10  17
BRANCH   1  31
HETATM   31  O1  UNL     1      24.867   9.200  49.296  1.00  0.00    -0.356 OA
HETATM   32  C1  UNL     1      25.308  10.014  48.226  1.00  0.00     0.210 C 
ENDBRANCH   1  31
TORSDOF 4
ENDMDL
