MODEL 1
REMARK VINA RESULT:      -8.4      0.000      0.000
REMARK  4 active torsions:
REMARK  status: ('A' for Active; 'I' for Inactive)
REMARK    1  A    between atoms: C1_2  and  C2_3 
REMARK       I    between atoms: C1_2  and  N1_5 
REMARK    2  A    between atoms: N1_5  and  C3_6 
REMARK    3  A    between atoms: C6_9  and  N2_10 
REMARK    4  A    between atoms: N2_10  and  C7_11 
ROOT
HETATM    1  C3  UNL     1      23.347   2.676  50.593  1.00  0.00     0.122 C 
HETATM    2  C4  UNL     1      23.198   1.592  51.298  1.00  0.00     0.075 C 
HETATM    3  C5  UNL     1      23.882   0.977  52.415  1.00  0.00     0.083 C 
HETATM    4  C6  UNL     1      23.870  -0.068  53.215  1.00  0.00     0.131 C 
HETATM    5  N3  UNL     1      22.819  -0.971  52.933  1.00  0.00    -0.224 NA
HETATM    6  C13 UNL     1      21.635  -0.792  53.414  1.00  0.00     0.236 C 
HETATM    7  N4  UNL     1      20.369  -0.460  54.022  1.00  0.00    -0.240 NA
HETATM    8  C14 UNL     1      19.414  -0.328  53.164  1.00  0.00     0.088 C 
HETATM    9  C15 UNL     1      19.706   0.338  52.058  1.00  0.00     0.053 C 
HETATM   10  C16 UNL     1      21.059   0.820  51.760  1.00  0.00     0.119 C 
HETATM   11  N5  UNL     1      22.182   0.623  51.109  1.00  0.00    -0.260 NA
ENDROOT
BRANCH   4  12
HETATM   12  N2  UNL     1      24.774  -0.324  54.263  1.00  0.00    -0.341 N 
HETATM   13  H6  UNL     1      24.330  -0.418  55.202  1.00  0.00     0.167 HD
BRANCH  12  14
HETATM   14  C7  UNL     1      26.167  -0.442  54.068  1.00  0.00     0.033 A 
HETATM   15  C8  UNL     1      26.616  -1.260  53.037  1.00  0.00     0.032 A 
HETATM   16  C9  UNL     1      27.999  -1.345  52.883  1.00  0.00     0.044 A 
HETATM   17  C10 UNL     1      28.898  -0.684  53.672  1.00  0.00     0.116 A 
HETATM   18  F1  UNL     1      30.228  -0.835  53.435  1.00  0.00    -0.206 F 
HETATM   19  C11 UNL     1      28.415   0.129  54.696  1.00  0.00     0.044 A 
HETATM   20  C12 UNL     1      27.048   0.231  54.872  1.00  0.00     0.032 A 
ENDBRANCH  12  14
ENDBRANCH   4  12
BRANCH   1  21
HETATM   21  N1  UNL     1      24.067   3.854  50.352  1.00  0.00    -0.334 N 
HETATM   22  C1  UNL     1      25.343   4.029  49.781  1.00  0.00     0.235 C 
HETATM   23  O1  UNL     1      26.120   3.165  49.358  1.00  0.00    -0.272 OA
HETATM   24  H3  UNL     1      23.759   4.816  50.566  1.00  0.00     0.168 HD
BRANCH  22  25
HETATM   25  C2  UNL     1      26.119   5.258  49.517  1.00  0.00     0.217 C 
HETATM   26 CL1  UNL     1      27.623   4.865  48.654  1.00  0.00    -0.121 Cl
ENDBRANCH  22  25
ENDBRANCH   1  21
TORSDOF 4
ENDMDL
MODEL 2
REMARK VINA RESULT:      -8.1      3.311      5.356
REMARK  4 active torsions:
REMARK  status: ('A' for Active; 'I' for Inactive)
REMARK    1  A    between atoms: C1_2  and  C2_3 
REMARK       I    between atoms: C1_2  and  N1_5 
REMARK    2  A    between atoms: N1_5  and  C3_6 
REMARK    3  A    between atoms: C6_9  and  N2_10 
REMARK    4  A    between atoms: N2_10  and  C7_11 
ROOT
HETATM    1  C3  UNL     1      21.289   1.883  51.338  1.00  0.00     0.122 C 
HETATM    2  C4  UNL     1      22.503   2.007  51.791  1.00  0.00     0.075 C 
HETATM    3  C5  UNL     1      23.403   1.199  52.586  1.00  0.00     0.083 C 
HETATM    4  C6  UNL     1      24.607   1.169  53.114  1.00  0.00     0.131 C 
HETATM    5  N3  UNL     1      25.362   2.332  52.842  1.00  0.00    -0.224 NA
HETATM    6  C13 UNL     1      26.024   2.459  51.740  1.00  0.00     0.236 C 
HETATM    7  N4  UNL     1      26.709   2.455  50.471  1.00  0.00    -0.240 NA
HETATM    8  C14 UNL     1      26.388   3.454  49.719  1.00  0.00     0.088 C 
HETATM    9  C15 UNL     1      25.103   3.765  49.671  1.00  0.00     0.053 C 
HETATM   10  C16 UNL     1      24.096   3.087  50.495  1.00  0.00     0.119 C 
HETATM   11  N5  UNL     1      23.351   3.121  51.575  1.00  0.00    -0.260 NA
ENDROOT
BRANCH   4  12
HETATM   12  N2  UNL     1      25.154   0.121  53.879  1.00  0.00    -0.341 N 
HETATM   13  H6  UNL     1      24.461  -0.392  54.465  1.00  0.00     0.167 HD
BRANCH  12  14
HETATM   14  C7  UNL     1      26.526  -0.211  53.863  1.00  0.00     0.033 A 
HETATM   15  C8  UNL     1      27.356   0.394  54.801  1.00  0.00     0.032 A 
HETATM   16  C9  UNL     1      28.702   0.034  54.747  1.00  0.00     0.044 A 
HETATM   17  C10 UNL     1      29.220  -0.855  53.848  1.00  0.00     0.116 A 
HETATM   18  F1  UNL     1      30.549  -1.137  53.882  1.00  0.00    -0.206 F 
HETATM   19  C11 UNL     1      28.361  -1.444  52.922  1.00  0.00     0.044 A 
HETATM   20  C12 UNL     1      27.022  -1.105  52.951  1.00  0.00     0.032 A 
ENDBRANCH  12  14
ENDBRANCH   4  12
BRANCH   1  21
HETATM   21  N1  UNL     1      20.125   1.109  51.238  1.00  0.00    -0.334 N 
HETATM   22  C1  UNL     1      19.510   0.280  52.196  1.00  0.00     0.235 C 
HETATM   23  O1  UNL     1      19.868   0.050  53.357  1.00  0.00    -0.272 OA
HETATM   24  H3  UNL     1      19.513   1.025  50.410  1.00  0.00     0.168 HD
BRANCH  22  25
HETATM   25  C2  UNL     1      18.285  -0.543  52.112  1.00  0.00     0.217 C 
HETATM   26 CL1  UNL     1      18.242  -1.722  53.442  1.00  0.00    -0.121 Cl
ENDBRANCH  22  25
ENDBRANCH   1  21
TORSDOF 4
ENDMDL
MODEL 3
REMARK VINA RESULT:      -8.0      3.993      7.328
REMARK  4 active torsions:
REMARK  status: ('A' for Active; 'I' for Inactive)
REMARK    1  A    between atoms: C1_2  and  C2_3 
REMARK       I    between atoms: C1_2  and  N1_5 
REMARK    2  A    between atoms: N1_5  and  C3_6 
REMARK    3  A    between atoms: C6_9  and  N2_10 
REMARK    4  A    between atoms: N2_10  and  C7_11 
ROOT
HETATM    1  C3  UNL     1      24.046  -0.486  53.597  1.00  0.00     0.122 C 
HETATM    2  C4  UNL     1      24.965   0.276  53.078  1.00  0.00     0.075 C 
HETATM    3  C5  UNL     1      25.001   1.577  52.447  1.00  0.00     0.083 C 
HETATM    4  C6  UNL     1      25.803   2.458  51.889  1.00  0.00     0.131 C 
HETATM    5  N3  UNL     1      27.153   2.041  51.863  1.00  0.00    -0.224 NA
HETATM    6  C13 UNL     1      27.929   2.220  52.880  1.00  0.00     0.236 C 
HETATM    7  N4  UNL     1      28.670   2.486  54.089  1.00  0.00    -0.240 NA
HETATM    8  C14 UNL     1      29.185   1.424  54.611  1.00  0.00     0.088 C 
HETATM    9  C15 UNL     1      28.413   0.350  54.643  1.00  0.00     0.053 C 
HETATM   10  C16 UNL     1      27.079   0.319  54.033  1.00  0.00     0.119 C 
HETATM   11  N5  UNL     1      26.345  -0.036  53.005  1.00  0.00    -0.260 NA
ENDROOT
BRANCH   4  12
HETATM   12  N2  UNL     1      25.427   3.705  51.354  1.00  0.00    -0.341 N 
HETATM   13  H6  UNL     1      26.098   4.479  51.551  1.00  0.00     0.167 HD
BRANCH  12  14
HETATM   14  C7  UNL     1      24.240   3.901  50.615  1.00  0.00     0.033 A 
HETATM   15  C8  UNL     1      24.174   3.369  49.332  1.00  0.00     0.032 A 
HETATM   16  C9  UNL     1      22.982   3.588  48.642  1.00  0.00     0.044 A 
HETATM   17  C10 UNL     1      21.918   4.276  49.152  1.00  0.00     0.116 A 
HETATM   18  F1  UNL     1      20.801   4.431  48.394  1.00  0.00    -0.206 F 
HETATM   19  C11 UNL     1      22.017   4.795  50.442  1.00  0.00     0.044 A 
HETATM   20  C12 UNL     1      23.187   4.595  51.149  1.00  0.00     0.032 A 
ENDBRANCH  12  14
ENDBRANCH   4  12
BRANCH   1  21
HETATM   21  N1  UNL     1      22.694  -0.679  53.916  1.00  0.00    -0.334 N 
HETATM   22  C1  UNL     1      21.540  -0.357  53.176  1.00  0.00     0.235 C 
HETATM   23  O1  UNL     1      21.464   0.176  52.063  1.00  0.00    -0.272 OA
HETATM   24  H3  UNL     1      22.323  -1.106  54.780  1.00  0.00     0.168 HD
BRANCH  22  25
HETATM   25  C2  UNL     1      20.109  -0.551  53.492  1.00  0.00     0.217 C 
HETATM   26 CL1  UNL     1      19.106  -0.151  52.080  1.00  0.00    -0.121 Cl
ENDBRANCH  22  25
ENDBRANCH   1  21
TORSDOF 4
ENDMDL
MODEL 4
REMARK VINA RESULT:      -7.9      3.133      5.690
REMARK  4 active torsions:
REMARK  status: ('A' for Active; 'I' for Inactive)
REMARK    1  A    between atoms: C1_2  and  C2_3 
REMARK       I    between atoms: C1_2  and  N1_5 
REMARK    2  A    between atoms: N1_5  and  C3_6 
REMARK    3  A    between atoms: C6_9  and  N2_10 
REMARK    4  A    between atoms: N2_10  and  C7_11 
ROOT
HETATM    1  C3  UNL     1      25.535  -0.034  53.667  1.00  0.00     0.122 C 
HETATM    2  C4  UNL     1      24.578   0.649  53.109  1.00  0.00     0.075 C 
HETATM    3  C5  UNL     1      24.380   1.315  51.839  1.00  0.00     0.083 C 
HETATM    4  C6  UNL     1      23.518   2.021  51.141  1.00  0.00     0.131 C 
HETATM    5  N3  UNL     1      22.305   2.255  51.828  1.00  0.00    -0.224 NA
HETATM    6  C13 UNL     1      21.352   1.384  51.821  1.00  0.00     0.236 C 
HETATM    7  N4  UNL     1      20.383   0.320  51.721  1.00  0.00    -0.240 NA
HETATM    8  C14 UNL     1      20.017  -0.141  52.870  1.00  0.00     0.088 C 
HETATM    9  C15 UNL     1      20.977  -0.329  53.761  1.00  0.00     0.053 C 
HETATM   10  C16 UNL     1      22.371   0.054  53.511  1.00  0.00     0.119 C 
HETATM   11  N5  UNL     1      23.323   0.938  53.700  1.00  0.00    -0.260 NA
ENDROOT
BRANCH   4  12
HETATM   12  N2  UNL     1      23.713   2.522  49.840  1.00  0.00    -0.341 N 
HETATM   13  H6  UNL     1      23.081   2.110  49.119  1.00  0.00     0.167 HD
BRANCH  12  14
HETATM   14  C7  UNL     1      24.683   3.498  49.527  1.00  0.00     0.033 A 
HETATM   15  C8  UNL     1      24.243   4.772  49.183  1.00  0.00     0.032 A 
HETATM   16  C9  UNL     1      25.238   5.701  48.883  1.00  0.00     0.044 A 
HETATM   17  C10 UNL     1      26.575   5.426  48.911  1.00  0.00     0.116 A 
HETATM   18  F1  UNL     1      27.463   6.407  48.601  1.00  0.00    -0.206 F 
HETATM   19  C11 UNL     1      26.984   4.140  49.259  1.00  0.00     0.044 A 
HETATM   20  C12 UNL     1      26.019   3.197  49.561  1.00  0.00     0.032 A 
ENDBRANCH  12  14
ENDBRANCH   4  12
BRANCH   1  21
HETATM   21  N1  UNL     1      26.825  -0.575  53.578  1.00  0.00    -0.334 N 
HETATM   22  C1  UNL     1      28.030  -0.127  54.152  1.00  0.00     0.235 C 
HETATM   23  O1  UNL     1      28.218   0.860  54.874  1.00  0.00    -0.272 OA
HETATM   24  H3  UNL     1      27.100  -1.422  53.055  1.00  0.00     0.168 HD
BRANCH  22  25
HETATM   25  C2  UNL     1      29.398  -0.680  54.072  1.00  0.00     0.217 C 
HETATM   26 CL1  UNL     1      29.371  -2.288  53.314  1.00  0.00    -0.121 Cl
ENDBRANCH  22  25
ENDBRANCH   1  21
TORSDOF 4
ENDMDL
MODEL 5
REMARK VINA RESULT:      -7.7      2.947      3.949
REMARK  4 active torsions:
REMARK  status: ('A' for Active; 'I' for Inactive)
REMARK    1  A    between atoms: C1_2  and  C2_3 
REMARK       I    between atoms: C1_2  and  N1_5 
REMARK    2  A    between atoms: N1_5  and  C3_6 
REMARK    3  A    between atoms: C6_9  and  N2_10 
REMARK    4  A    between atoms: N2_10  and  C7_11 
ROOT
HETATM    1  C3  UNL     1      27.056   4.595  48.953  1.00  0.00     0.122 C 
HETATM    2  C4  UNL     1      26.264   3.827  49.643  1.00  0.00     0.075 C 
HETATM    3  C5  UNL     1      26.308   3.185  50.939  1.00  0.00     0.083 C 
HETATM    4  C6  UNL     1      25.629   2.409  51.757  1.00  0.00     0.131 C 
HETATM    5  N3  UNL     1      24.374   2.018  51.237  1.00  0.00    -0.224 NA
HETATM    6  C13 UNL     1      23.336   2.776  51.354  1.00  0.00     0.236 C 
HETATM    7  N4  UNL     1      22.270   3.727  51.560  1.00  0.00    -0.240 NA
HETATM    8  C14 UNL     1      21.710   4.106  50.461  1.00  0.00     0.088 C 
HETATM    9  C15 UNL     1      22.521   4.372  49.449  1.00  0.00     0.053 C 
HETATM   10  C16 UNL     1      23.970   4.157  49.521  1.00  0.00     0.119 C 
HETATM   11  N5  UNL     1      24.986   3.380  49.226  1.00  0.00    -0.260 NA
ENDROOT
BRANCH   4  12
HETATM   12  N2  UNL     1      26.045   1.976  53.030  1.00  0.00    -0.341 N 
HETATM   13  H6  UNL     1      25.454   2.321  53.817  1.00  0.00     0.167 HD
BRANCH  12  14
HETATM   14  C7  UNL     1      27.170   1.148  53.233  1.00  0.00     0.033 A 
HETATM   15  C8  UNL     1      28.328   1.730  53.737  1.00  0.00     0.032 A 
HETATM   16  C9  UNL     1      29.412   0.872  53.922  1.00  0.00     0.044 A 
HETATM   17  C10 UNL     1      29.385  -0.464  53.642  1.00  0.00     0.116 A 
HETATM   18  F1  UNL     1      30.499  -1.212  53.860  1.00  0.00    -0.206 F 
HETATM   19  C11 UNL     1      28.209  -1.017  53.139  1.00  0.00     0.044 A 
HETATM   20  C12 UNL     1      27.119  -0.190  52.944  1.00  0.00     0.032 A 
ENDBRANCH  12  14
ENDBRANCH   4  12
BRANCH   1  21
HETATM   21  N1  UNL     1      28.276   5.280  48.863  1.00  0.00    -0.334 N 
HETATM   22  C1  UNL     1      28.579   6.500  48.228  1.00  0.00     0.235 C 
HETATM   23  O1  UNL     1      27.821   7.248  47.598  1.00  0.00    -0.272 OA
HETATM   24  H3  UNL     1      29.178   4.982  49.268  1.00  0.00     0.168 HD
BRANCH  22  25
HETATM   25  C2  UNL     1      29.854   7.239  48.121  1.00  0.00     0.217 C 
HETATM   26 CL1  UNL     1      29.798   8.713  49.114  1.00  0.00    -0.121 Cl
ENDBRANCH  22  25
ENDBRANCH   1  21
TORSDOF 4
ENDMDL
MODEL 6
REMARK VINA RESULT:      -7.7      3.284      6.008
REMARK  4 active torsions:
REMARK  status: ('A' for Active; 'I' for Inactive)
REMARK    1  A    between atoms: C1_2  and  C2_3 
REMARK       I    between atoms: C1_2  and  N1_5 
REMARK    2  A    between atoms: N1_5  and  C3_6 
REMARK    3  A    between atoms: C6_9  and  N2_10 
REMARK    4  A    between atoms: N2_10  and  C7_11 
ROOT
HETATM    1  C3  UNL     1      25.417   1.682  53.696  1.00  0.00     0.122 C 
HETATM    2  C4  UNL     1      24.533   2.337  53.001  1.00  0.00     0.075 C 
HETATM    3  C5  UNL     1      24.546   3.485  52.121  1.00  0.00     0.083 C 
HETATM    4  C6  UNL     1      23.781   4.249  51.370  1.00  0.00     0.131 C 
HETATM    5  N3  UNL     1      22.423   3.857  51.381  1.00  0.00    -0.224 NA
HETATM    6  C13 UNL     1      21.988   2.928  50.597  1.00  0.00     0.236 C 
HETATM    7  N4  UNL     1      21.652   1.879  49.666  1.00  0.00    -0.240 NA
HETATM    8  C14 UNL     1      21.126   0.847  50.235  1.00  0.00     0.088 C 
HETATM    9  C15 UNL     1      21.688   0.446  51.363  1.00  0.00     0.053 C 
HETATM   10  C16 UNL     1      22.787   1.180  52.001  1.00  0.00     0.119 C 
HETATM   11  N5  UNL     1      23.151   2.031  52.932  1.00  0.00    -0.260 NA
ENDROOT
BRANCH   4  12
HETATM   12  N2  UNL     1      24.203   5.355  50.608  1.00  0.00    -0.341 N 
HETATM   13  H6  UNL     1      23.539   6.159  50.611  1.00  0.00     0.167 HD
BRANCH  12  14
HETATM   14  C7  UNL     1      25.419   5.381  49.893  1.00  0.00     0.033 A 
HETATM   15  C8  UNL     1      25.919   6.617  49.498  1.00  0.00     0.032 A 
HETATM   16  C9  UNL     1      27.124   6.592  48.796  1.00  0.00     0.044 A 
HETATM   17  C10 UNL     1      27.808   5.450  48.492  1.00  0.00     0.116 A 
HETATM   18  F1  UNL     1      28.976   5.538  47.802  1.00  0.00    -0.206 F 
HETATM   19  C11 UNL     1      27.281   4.227  48.903  1.00  0.00     0.044 A 
HETATM   20  C12 UNL     1      26.087   4.221  49.600  1.00  0.00     0.032 A 
ENDBRANCH  12  14
ENDBRANCH   4  12
BRANCH   1  21
HETATM   21  N1  UNL     1      26.753   1.535  54.094  1.00  0.00    -0.334 N 
HETATM   22  C1  UNL     1      27.513   0.364  54.281  1.00  0.00     0.235 C 
HETATM   23  O1  UNL     1      27.163  -0.812  54.131  1.00  0.00    -0.272 OA
HETATM   24  H3  UNL     1      27.413   2.296  54.322  1.00  0.00     0.168 HD
BRANCH  22  25
HETATM   25  C2  UNL     1      28.919   0.187  54.699  1.00  0.00     0.217 C 
HETATM   26 CL1  UNL     1      29.757  -0.925  53.593  1.00  0.00    -0.121 Cl
ENDBRANCH  22  25
ENDBRANCH   1  21
TORSDOF 4
ENDMDL
MODEL 7
REMARK VINA RESULT:      -7.6      3.222      6.036
REMARK  4 active torsions:
REMARK  status: ('A' for Active; 'I' for Inactive)
REMARK    1  A    between atoms: C1_2  and  C2_3 
REMARK       I    between atoms: C1_2  and  N1_5 
REMARK    2  A    between atoms: N1_5  and  C3_6 
REMARK    3  A    between atoms: C6_9  and  N2_10 
REMARK    4  A    between atoms: N2_10  and  C7_11 
ROOT
HETATM    1  C3  UNL     1      25.705   2.949  51.134  1.00  0.00     0.122 C 
HETATM    2  C4  UNL     1      25.774   2.176  52.179  1.00  0.00     0.075 C 
HETATM    3  C5  UNL     1      25.005   1.067  52.703  1.00  0.00     0.083 C 
HETATM    4  C6  UNL     1      24.933   0.209  53.698  1.00  0.00     0.131 C 
HETATM    5  N3  UNL     1      25.963   0.376  54.651  1.00  0.00    -0.224 NA
HETATM    6  C13 UNL     1      27.124  -0.163  54.483  1.00  0.00     0.236 C 
HETATM    7  N4  UNL     1      28.365  -0.825  54.158  1.00  0.00    -0.240 NA
HETATM    8  C14 UNL     1      29.371  -0.018  54.109  1.00  0.00     0.088 C 
HETATM    9  C15 UNL     1      29.168   1.139  53.501  1.00  0.00     0.053 C 
HETATM   10  C16 UNL     1      27.853   1.544  52.993  1.00  0.00     0.119 C 
HETATM   11  N5  UNL     1      26.763   2.248  53.191  1.00  0.00    -0.260 NA
ENDROOT
BRANCH   4  12
HETATM   12  N2  UNL     1      23.961  -0.796  53.861  1.00  0.00    -0.341 N 
HETATM   13  H6  UNL     1      24.331  -1.696  54.237  1.00  0.00     0.167 HD
BRANCH  12  14
HETATM   14  C7  UNL     1      22.599  -0.612  53.541  1.00  0.00     0.033 A 
HETATM   15  C8  UNL     1      21.648  -1.014  54.472  1.00  0.00     0.032 A 
HETATM   16  C9  UNL     1      20.316  -0.811  54.112  1.00  0.00     0.044 A 
HETATM   17  C10 UNL     1      19.921  -0.255  52.929  1.00  0.00     0.116 A 
HETATM   18  F1  UNL     1      18.594  -0.102  52.677  1.00  0.00    -0.206 F 
HETATM   19  C11 UNL     1      20.899   0.138  52.017  1.00  0.00     0.044 A 
HETATM   20  C12 UNL     1      22.227  -0.052  52.347  1.00  0.00     0.032 A 
ENDBRANCH  12  14
ENDBRANCH   4  12
BRANCH   1  21
HETATM   21  N1  UNL     1      25.044   3.300  49.949  1.00  0.00    -0.334 N 
HETATM   22  C1  UNL     1      23.672   3.248  49.635  1.00  0.00     0.235 C 
HETATM   23  O1  UNL     1      22.733   2.876  50.348  1.00  0.00    -0.272 OA
HETATM   24  H3  UNL     1      25.481   3.666  49.088  1.00  0.00     0.168 HD
BRANCH  22  25
HETATM   25  C2  UNL     1      22.955   3.612  48.395  1.00  0.00     0.217 C 
HETATM   26 CL1  UNL     1      22.528   2.151  47.477  1.00  0.00    -0.121 Cl
ENDBRANCH  22  25
ENDBRANCH   1  21
TORSDOF 4
ENDMDL
MODEL 8
REMARK VINA RESULT:      -7.6      3.504      6.224
REMARK  4 active torsions:
REMARK  status: ('A' for Active; 'I' for Inactive)
REMARK    1  A    between atoms: C1_2  and  C2_3 
REMARK       I    between atoms: C1_2  and  N1_5 
REMARK    2  A    between atoms: N1_5  and  C3_6 
REMARK    3  A    between atoms: C6_9  and  N2_10 
REMARK    4  A    between atoms: N2_10  and  C7_11 
ROOT
HETATM    1  C3  UNL     1      25.556   1.651  53.721  1.00  0.00     0.122 C 
HETATM    2  C4  UNL     1      24.863   2.172  52.750  1.00  0.00     0.075 C 
HETATM    3  C5  UNL     1      25.161   2.825  51.494  1.00  0.00     0.083 C 
HETATM    4  C6  UNL     1      24.611   3.389  50.440  1.00  0.00     0.131 C 
HETATM    5  N3  UNL     1      23.198   3.392  50.486  1.00  0.00    -0.224 NA
HETATM    6  C13 UNL     1      22.514   2.369  50.096  1.00  0.00     0.236 C 
HETATM    7  N4  UNL     1      21.889   1.157  49.627  1.00  0.00    -0.240 NA
HETATM    8  C14 UNL     1      21.120   0.610  50.507  1.00  0.00     0.088 C 
HETATM    9  C15 UNL     1      21.581   0.569  51.747  1.00  0.00     0.053 C 
HETATM   10  C16 UNL     1      22.850   1.193  52.137  1.00  0.00     0.119 C 
HETATM   11  N5  UNL     1      23.448   2.224  52.688  1.00  0.00    -0.260 NA
ENDROOT
BRANCH   4  12
HETATM   12  N2  UNL     1      25.294   3.949  49.345  1.00  0.00    -0.341 N 
HETATM   13  H6  UNL     1      25.364   3.323  48.514  1.00  0.00     0.167 HD
BRANCH  12  14
HETATM   14  C7  UNL     1      25.846   5.248  49.362  1.00  0.00     0.033 A 
HETATM   15  C8  UNL     1      26.971   5.491  48.581  1.00  0.00     0.032 A 
HETATM   16  C9  UNL     1      27.480   6.789  48.629  1.00  0.00     0.044 A 
HETATM   17  C10 UNL     1      26.941   7.793  49.382  1.00  0.00     0.116 A 
HETATM   18  F1  UNL     1      27.516   9.025  49.357  1.00  0.00    -0.206 F 
HETATM   19  C11 UNL     1      25.814   7.517  50.153  1.00  0.00     0.044 A 
HETATM   20  C12 UNL     1      25.288   6.239  50.125  1.00  0.00     0.032 A 
ENDBRANCH  12  14
ENDBRANCH   4  12
BRANCH   1  21
HETATM   21  N1  UNL     1      26.813   1.344  54.260  1.00  0.00    -0.334 N 
HETATM   22  C1  UNL     1      28.100   1.650  53.774  1.00  0.00     0.235 C 
HETATM   23  O1  UNL     1      28.407   2.267  52.747  1.00  0.00    -0.272 OA
HETATM   24  H3  UNL     1      26.997   0.826  55.134  1.00  0.00     0.168 HD
BRANCH  22  25
HETATM   25  C2  UNL     1      29.435   1.338  54.324  1.00  0.00     0.217 C 
HETATM   26 CL1  UNL     1      30.089  -0.131  53.564  1.00  0.00    -0.121 Cl
ENDBRANCH  22  25
ENDBRANCH   1  21
TORSDOF 4
ENDMDL
MODEL 9
REMARK VINA RESULT:      -7.3      3.572      6.264
REMARK  4 active torsions:
REMARK  status: ('A' for Active; 'I' for Inactive)
REMARK    1  A    between atoms: C1_2  and  C2_3 
REMARK       I    between atoms: C1_2  and  N1_5 
REMARK    2  A    between atoms: N1_5  and  C3_6 
REMARK    3  A    between atoms: C6_9  and  N2_10 
REMARK    4  A    between atoms: N2_10  and  C7_11 
ROOT
HETATM    1  C3  UNL     1      24.804   3.699  52.768  1.00  0.00     0.122 C 
HETATM    2  C4  UNL     1      24.921   2.492  53.241  1.00  0.00     0.075 C 
HETATM    3  C5  UNL     1      24.171   1.259  53.136  1.00  0.00     0.083 C 
HETATM    4  C6  UNL     1      24.144   0.003  53.529  1.00  0.00     0.131 C 
HETATM    5  N3  UNL     1      25.225  -0.338  54.374  1.00  0.00    -0.224 NA
HETATM    6  C13 UNL     1      26.370  -0.683  53.889  1.00  0.00     0.236 C 
HETATM    7  N4  UNL     1      27.586  -1.047  53.202  1.00  0.00    -0.240 NA
HETATM    8  C14 UNL     1      28.595  -0.317  53.537  1.00  0.00     0.088 C 
HETATM    9  C15 UNL     1      28.371   0.983  53.644  1.00  0.00     0.053 C 
HETATM   10  C16 UNL     1      27.034   1.568  53.492  1.00  0.00     0.119 C 
HETATM   11  N5  UNL     1      25.963   2.039  54.087  1.00  0.00    -0.260 NA
ENDROOT
BRANCH   4  12
HETATM   12  N2  UNL     1      23.173  -0.955  53.184  1.00  0.00    -0.341 N 
HETATM   13  H6  UNL     1      23.529  -1.936  53.148  1.00  0.00     0.167 HD
BRANCH  12  14
HETATM   14  C7  UNL     1      21.829  -0.627  52.905  1.00  0.00     0.033 A 
HETATM   15  C8  UNL     1      21.551   0.029  51.711  1.00  0.00     0.032 A 
HETATM   16  C9  UNL     1      20.210   0.332  51.478  1.00  0.00     0.044 A 
HETATM   17  C10 UNL     1      19.196   0.022  52.340  1.00  0.00     0.116 A 
HETATM   18  F1  UNL     1      17.921   0.362  52.015  1.00  0.00    -0.206 F 
HETATM   19  C11 UNL     1      19.508  -0.637  53.527  1.00  0.00     0.044 A 
HETATM   20  C12 UNL     1      20.830  -0.948  53.785  1.00  0.00     0.032 A 
ENDBRANCH  12  14
ENDBRANCH   4  12
BRANCH   1  21
HETATM   21  N1  UNL     1      24.084   4.610  51.982  1.00  0.00    -0.334 N 
HETATM   22  C1  UNL     1      22.694   4.817  51.890  1.00  0.00     0.235 C 
HETATM   23  O1  UNL     1      21.788   4.230  52.492  1.00  0.00    -0.272 OA
HETATM   24  H3  UNL     1      24.481   5.299  51.322  1.00  0.00     0.168 HD
BRANCH  22  25
HETATM   25  C2  UNL     1      21.915   5.769  51.070  1.00  0.00     0.217 C 
HETATM   26 CL1  UNL     1      20.371   5.039  50.577  1.00  0.00    -0.121 Cl
ENDBRANCH  22  25
ENDBRANCH   1  21
TORSDOF 4
ENDMDL
