MODEL 1
REMARK VINA RESULT:      -8.6      0.000      0.000
REMARK  4 active torsions:
REMARK  status: ('A' for Active; 'I' for Inactive)
REMARK       I    between atoms: N1_1  and  C1_2 
REMARK    1  A    between atoms: C1_2  and  C2_4 
REMARK    2  A    between atoms: C3_5  and  C4_6 
REMARK    3  A    between atoms: C8_10  and  O2_11 
REMARK    4  A    between atoms: O2_11  and  C9_12 
ROOT
HETATM    1  C4  UNL     1      27.597   5.744  48.563  1.00  0.00    -0.018 A 
HETATM    2  C5  UNL     1      27.167   4.505  49.050  1.00  0.00     0.026 A 
HETATM    3  C6  UNL     1      25.861   4.462  49.475  1.00  0.00    -0.004 A 
HETATM    4  C7  UNL     1      25.448   3.219  49.966  1.00  0.00     0.050 A 
HETATM    5  C8  UNL     1      24.155   2.982  50.448  1.00  0.00     0.071 A 
HETATM    6  C16 UNL     1      23.331   4.081  50.394  1.00  0.00     0.039 A 
HETATM    7  C17 UNL     1      23.652   5.329  49.932  1.00  0.00     0.035 A 
HETATM    8  C18 UNL     1      24.947   5.487  49.472  1.00  0.00     0.067 A 
HETATM    9  N2  UNL     1      25.400   6.682  48.989  1.00  0.00    -0.260 NA
HETATM   10  C19 UNL     1      26.683   6.795  48.553  1.00  0.00     0.128 A 
ENDROOT
BRANCH   5  11
HETATM   11  O2  UNL     1      23.849   1.724  50.911  1.00  0.00    -0.336 OA
BRANCH  11  12
HETATM   12  C9  UNL     1      24.042   1.271  52.196  1.00  0.00     0.201 C 
HETATM   13  C10 UNL     1      25.402   0.645  52.387  1.00  0.00     0.035 C 
HETATM   14  C11 UNL     1      25.957  -0.162  53.271  1.00  0.00     0.033 C 
HETATM   15 CL1  UNL     1      27.640  -0.640  53.072  1.00  0.00    -0.085 Cl
HETATM   16  C12 UNL     1      25.264  -0.707  54.435  1.00  0.00     0.026 C 
HETATM   17  C13 UNL     1      23.964  -0.892  54.582  1.00  0.00     0.045 C 
HETATM   18  C14 UNL     1      22.900  -0.599  53.615  1.00  0.00     0.137 C 
HETATM   19  F1  UNL     1      21.752  -1.307  53.723  1.00  0.00    -0.205 F 
HETATM   20  C15 UNL     1      22.968   0.309  52.636  1.00  0.00     0.083 C 
HETATM   21 CL2  UNL     1      21.536   0.416  51.668  1.00  0.00    -0.083 Cl
ENDBRANCH  11  12
ENDBRANCH   5  11
BRANCH   1  22
HETATM   22  C3  UNL     1      28.926   6.055  48.054  1.00  0.00     0.018 C 
HETATM   23  C2  UNL     1      30.092   5.482  48.198  1.00  0.00     0.075 C 
BRANCH  23  24
HETATM   24  C1  UNL     1      31.265   6.027  47.559  1.00  0.00     0.238 C 
HETATM   25  N1  UNL     1      32.231   6.783  46.938  1.00  0.00    -0.367 N 
HETATM   26  H1  UNL     1      32.955   7.357  47.434  1.00  0.00     0.159 HD
HETATM   27  H2  UNL     1      32.320   6.855  45.876  1.00  0.00     0.159 HD
HETATM   28  O1  UNL     1      32.074   5.019  47.542  1.00  0.00    -0.269 OA
ENDBRANCH  23  24
ENDBRANCH   1  22
TORSDOF 4
ENDMDL
MODEL 2
REMARK VINA RESULT:      -8.5      4.755      9.268
REMARK  4 active torsions:
REMARK  status: ('A' for Active; 'I' for Inactive)
REMARK       I    between atoms: N1_1  and  C1_2 
REMARK    1  A    between atoms: C1_2  and  C2_4 
REMARK    2  A    between atoms: C3_5  and  C4_6 
REMARK    3  A    between atoms: C8_10  and  O2_11 
REMARK    4  A    between atoms: O2_11  and  C9_12 
ROOT
HETATM    1  C4  UNL     1      25.837   4.490  49.456  1.00  0.00    -0.018 A 
HETATM    2  C5  UNL     1      27.152   4.339  49.004  1.00  0.00     0.026 A 
HETATM    3  C6  UNL     1      27.753   5.489  48.552  1.00  0.00    -0.004 A 
HETATM    4  C7  UNL     1      29.065   5.321  48.096  1.00  0.00     0.050 A 
HETATM    5  C8  UNL     1      29.838   6.376  47.595  1.00  0.00     0.071 A 
HETATM    6  C16 UNL     1      29.190   7.588  47.592  1.00  0.00     0.039 A 
HETATM    7  C17 UNL     1      27.913   7.840  48.017  1.00  0.00     0.035 A 
HETATM    8  C18 UNL     1      27.212   6.750  48.499  1.00  0.00     0.067 A 
HETATM    9  N2  UNL     1      25.926   6.861  48.949  1.00  0.00    -0.260 NA
HETATM   10  C19 UNL     1      25.272   5.762  49.409  1.00  0.00     0.128 A 
ENDROOT
BRANCH   5  11
HETATM   11  O2  UNL     1      31.117   6.106  47.169  1.00  0.00    -0.336 OA
BRANCH  11  12
HETATM   12  C9  UNL     1      32.185   5.792  47.978  1.00  0.00     0.201 C 
HETATM   13  C10 UNL     1      33.216   6.894  48.022  1.00  0.00     0.035 C 
HETATM   14  C11 UNL     1      34.484   6.991  48.373  1.00  0.00     0.033 C 
HETATM   15 CL1  UNL     1      35.303   8.545  48.247  1.00  0.00    -0.085 Cl
HETATM   16  C12 UNL     1      35.285   5.877  48.873  1.00  0.00     0.026 C 
HETATM   17  C13 UNL     1      35.097   4.588  48.650  1.00  0.00     0.045 C 
HETATM   18  C14 UNL     1      34.040   3.961  47.848  1.00  0.00     0.137 C 
HETATM   19  F1  UNL     1      34.302   2.741  47.324  1.00  0.00    -0.205 F 
HETATM   20  C15 UNL     1      32.841   4.492  47.590  1.00  0.00     0.083 C 
HETATM   21 CL2  UNL     1      31.818   3.491  46.614  1.00  0.00    -0.083 Cl
ENDBRANCH  11  12
ENDBRANCH   5  11
BRANCH   1  22
HETATM   22  C3  UNL     1      24.981   3.435  49.983  1.00  0.00     0.018 C 
HETATM   23  C2  UNL     1      24.770   2.980  51.190  1.00  0.00     0.075 C 
BRANCH  23  24
HETATM   24  C1  UNL     1      23.841   1.900  51.419  1.00  0.00     0.238 C 
HETATM   25  N1  UNL     1      22.775   1.034  51.493  1.00  0.00    -0.367 N 
HETATM   26  H1  UNL     1      22.552   0.295  50.784  1.00  0.00     0.159 HD
HETATM   27  H2  UNL     1      22.068   1.051  52.293  1.00  0.00     0.159 HD
HETATM   28  O1  UNL     1      24.550   1.050  52.085  1.00  0.00    -0.269 OA
ENDBRANCH  23  24
ENDBRANCH   1  22
TORSDOF 4
ENDMDL
MODEL 3
REMARK VINA RESULT:      -8.4      6.074      8.111
REMARK  4 active torsions:
REMARK  status: ('A' for Active; 'I' for Inactive)
REMARK       I    between atoms: N1_1  and  C1_2 
REMARK    1  A    between atoms: C1_2  and  C2_4 
REMARK    2  A    between atoms: C3_5  and  C4_6 
REMARK    3  A    between atoms: C8_10  and  O2_11 
REMARK    4  A    between atoms: O2_11  and  C9_12 
ROOT
HETATM    1  C4  UNL     1      25.199  -0.133  53.767  1.00  0.00    -0.018 A 
HETATM    2  C5  UNL     1      24.232   0.308  52.858  1.00  0.00     0.026 A 
HETATM    3  C6  UNL     1      22.939  -0.046  53.158  1.00  0.00    -0.004 A 
HETATM    4  C7  UNL     1      21.984   0.395  52.235  1.00  0.00     0.050 A 
HETATM    5  C8  UNL     1      20.616   0.129  52.369  1.00  0.00     0.071 A 
HETATM    6  C16 UNL     1      20.298  -0.604  53.487  1.00  0.00     0.039 A 
HETATM    7  C17 UNL     1      21.165  -1.075  54.437  1.00  0.00     0.035 A 
HETATM    8  C18 UNL     1      22.500  -0.773  54.238  1.00  0.00     0.067 A 
HETATM    9  N2  UNL     1      23.471  -1.187  55.106  1.00  0.00    -0.260 NA
HETATM   10  C19 UNL     1      24.772  -0.872  54.868  1.00  0.00     0.128 A 
ENDROOT
BRANCH   5  11
HETATM   11  O2  UNL     1      19.759   0.606  51.406  1.00  0.00    -0.336 OA
BRANCH  11  12
HETATM   12  C9  UNL     1      18.401   0.776  51.550  1.00  0.00     0.201 C 
HETATM   13  C10 UNL     1      17.612  -0.007  50.528  1.00  0.00     0.035 C 
HETATM   14  C11 UNL     1      16.382   0.027  50.054  1.00  0.00     0.033 C 
HETATM   15 CL1  UNL     1      15.895  -1.132  48.821  1.00  0.00    -0.085 Cl
HETATM   16  C12 UNL     1      15.362   0.980  50.483  1.00  0.00     0.026 C 
HETATM   17  C13 UNL     1      15.550   2.177  51.010  1.00  0.00     0.045 C 
HETATM   18  C14 UNL     1      16.828   2.842  51.290  1.00  0.00     0.137 C 
HETATM   19  F1  UNL     1      16.826   4.195  51.329  1.00  0.00    -0.205 F 
HETATM   20  C15 UNL     1      17.994   2.227  51.511  1.00  0.00     0.083 C 
HETATM   21 CL2  UNL     1      19.316   3.302  51.819  1.00  0.00    -0.083 Cl
ENDBRANCH  11  12
ENDBRANCH   5  11
BRANCH   1  22
HETATM   22  C3  UNL     1      26.634   0.106  53.683  1.00  0.00     0.018 C 
HETATM   23  C2  UNL     1      27.560   0.293  54.587  1.00  0.00     0.075 C 
BRANCH  23  24
HETATM   24  C1  UNL     1      28.933   0.509  54.201  1.00  0.00     0.238 C 
HETATM   25  N1  UNL     1      30.208   0.476  53.688  1.00  0.00    -0.367 N 
HETATM   26  H1  UNL     1      30.500   0.900  52.774  1.00  0.00     0.159 HD
HETATM   27  H2  UNL     1      31.023  -0.001  54.188  1.00  0.00     0.159 HD
HETATM   28  O1  UNL     1      29.229   1.611  54.807  1.00  0.00    -0.269 OA
ENDBRANCH  23  24
ENDBRANCH   1  22
TORSDOF 4
ENDMDL
MODEL 4
REMARK VINA RESULT:      -8.4      5.868      7.898
REMARK  4 active torsions:
REMARK  status: ('A' for Active; 'I' for Inactive)
REMARK       I    between atoms: N1_1  and  C1_2 
REMARK    1  A    between atoms: C1_2  and  C2_4 
REMARK    2  A    between atoms: C3_5  and  C4_6 
REMARK    3  A    between atoms: C8_10  and  O2_11 
REMARK    4  A    between atoms: O2_11  and  C9_12 
ROOT
HETATM    1  C4  UNL     1      25.215  -0.035  53.833  1.00  0.00    -0.018 A 
HETATM    2  C5  UNL     1      24.217   0.470  52.994  1.00  0.00     0.026 A 
HETATM    3  C6  UNL     1      22.937   0.068  53.294  1.00  0.00    -0.004 A 
HETATM    4  C7  UNL     1      21.951   0.574  52.441  1.00  0.00     0.050 A 
HETATM    5  C8  UNL     1      20.591   0.273  52.585  1.00  0.00     0.071 A 
HETATM    6  C16 UNL     1      20.316  -0.565  53.640  1.00  0.00     0.039 A 
HETATM    7  C17 UNL     1      21.216  -1.105  54.519  1.00  0.00     0.035 A 
HETATM    8  C18 UNL     1      22.539  -0.762  54.314  1.00  0.00     0.067 A 
HETATM    9  N2  UNL     1      23.540  -1.236  55.115  1.00  0.00    -0.260 NA
HETATM   10  C19 UNL     1      24.829  -0.878  54.873  1.00  0.00     0.128 A 
ENDROOT
BRANCH   5  11
HETATM   11  O2  UNL     1      19.701   0.820  51.693  1.00  0.00    -0.336 OA
BRANCH  11  12
HETATM   12  C9  UNL     1      19.681   2.132  51.278  1.00  0.00     0.201 C 
HETATM   13  C10 UNL     1      18.374   2.817  51.600  1.00  0.00     0.035 C 
HETATM   14  C11 UNL     1      17.749   3.903  51.189  1.00  0.00     0.033 C 
HETATM   15 CL1  UNL     1      16.182   4.315  51.880  1.00  0.00    -0.085 Cl
HETATM   16  C12 UNL     1      18.269   4.818  50.176  1.00  0.00     0.026 C 
HETATM   17  C13 UNL     1      19.131   4.544  49.213  1.00  0.00     0.045 C 
HETATM   18  C14 UNL     1      19.775   3.258  48.925  1.00  0.00     0.137 C 
HETATM   19  F1  UNL     1      20.190   3.044  47.655  1.00  0.00    -0.205 F 
HETATM   20  C15 UNL     1      19.988   2.278  49.809  1.00  0.00     0.083 C 
HETATM   21 CL2  UNL     1      20.780   0.886  49.149  1.00  0.00    -0.083 Cl
ENDBRANCH  11  12
ENDBRANCH   5  11
BRANCH   1  22
HETATM   22  C3  UNL     1      26.643   0.236  53.734  1.00  0.00     0.018 C 
HETATM   23  C2  UNL     1      27.607   0.262  54.616  1.00  0.00     0.075 C 
BRANCH  23  24
HETATM   24  C1  UNL     1      28.960   0.567  54.218  1.00  0.00     0.238 C 
HETATM   25  N1  UNL     1      30.223   0.628  53.678  1.00  0.00    -0.367 N 
HETATM   26  H1  UNL     1      30.475   1.132  52.794  1.00  0.00     0.159 HD
HETATM   27  H2  UNL     1      31.069   0.149  54.121  1.00  0.00     0.159 HD
HETATM   28  O1  UNL     1      29.225   1.630  54.902  1.00  0.00    -0.269 OA
ENDBRANCH  23  24
ENDBRANCH   1  22
TORSDOF 4
ENDMDL
MODEL 5
REMARK VINA RESULT:      -8.4      1.604      2.258
REMARK  4 active torsions:
REMARK  status: ('A' for Active; 'I' for Inactive)
REMARK       I    between atoms: N1_1  and  C1_2 
REMARK    1  A    between atoms: C1_2  and  C2_4 
REMARK    2  A    between atoms: C3_5  and  C4_6 
REMARK    3  A    between atoms: C8_10  and  O2_11 
REMARK    4  A    between atoms: O2_11  and  C9_12 
ROOT
HETATM    1  C4  UNL     1      29.606   6.707  47.833  1.00  0.00    -0.018 A 
HETATM    2  C5  UNL     1      29.037   5.484  48.204  1.00  0.00     0.026 A 
HETATM    3  C6  UNL     1      27.720   5.541  48.590  1.00  0.00    -0.004 A 
HETATM    4  C7  UNL     1      27.167   4.311  48.965  1.00  0.00     0.050 A 
HETATM    5  C8  UNL     1      25.841   4.171  49.391  1.00  0.00     0.071 A 
HETATM    6  C16 UNL     1      25.134   5.349  49.407  1.00  0.00     0.039 A 
HETATM    7  C17 UNL     1      25.594   6.591  49.059  1.00  0.00     0.035 A 
HETATM    8  C18 UNL     1      26.913   6.651  48.648  1.00  0.00     0.067 A 
HETATM    9  N2  UNL     1      27.501   7.829  48.278  1.00  0.00    -0.260 NA
HETATM   10  C19 UNL     1      28.802   7.843  47.887  1.00  0.00     0.128 A 
ENDROOT
BRANCH   5  11
HETATM   11  O2  UNL     1      25.395   2.919  49.741  1.00  0.00    -0.336 OA
BRANCH  11  12
HETATM   12  C9  UNL     1      25.071   2.505  51.012  1.00  0.00     0.201 C 
HETATM   13  C10 UNL     1      26.094   1.554  51.585  1.00  0.00     0.035 C 
HETATM   14  C11 UNL     1      26.125   0.681  52.574  1.00  0.00     0.033 C 
HETATM   15 CL1  UNL     1      27.598  -0.235  52.876  1.00  0.00    -0.085 Cl
HETATM   16  C12 UNL     1      25.000   0.407  53.464  1.00  0.00     0.026 C 
HETATM   17  C13 UNL     1      23.715   0.580  53.211  1.00  0.00     0.045 C 
HETATM   18  C14 UNL     1      23.103   1.088  51.978  1.00  0.00     0.137 C 
HETATM   19  F1  UNL     1      21.828   0.716  51.719  1.00  0.00    -0.205 F 
HETATM   20  C15 UNL     1      23.698   1.888  51.087  1.00  0.00     0.083 C 
HETATM   21 CL2  UNL     1      22.698   2.314  49.738  1.00  0.00    -0.083 Cl
ENDBRANCH  11  12
ENDBRANCH   5  11
BRANCH   1  22
HETATM   22  C3  UNL     1      30.976   6.920  47.387  1.00  0.00     0.018 C 
HETATM   23  C2  UNL     1      32.137   6.582  47.883  1.00  0.00     0.075 C 
BRANCH  23  24
HETATM   24  C1  UNL     1      33.360   6.937  47.204  1.00  0.00     0.238 C 
HETATM   25  N1  UNL     1      34.353   7.347  46.346  1.00  0.00    -0.367 N 
HETATM   26  H1  UNL     1      34.723   8.326  46.280  1.00  0.00     0.159 HD
HETATM   27  H2  UNL     1      34.833   6.688  45.656  1.00  0.00     0.159 HD
HETATM   28  O1  UNL     1      34.265   6.652  48.081  1.00  0.00    -0.269 OA
ENDBRANCH  23  24
ENDBRANCH   1  22
TORSDOF 4
ENDMDL
MODEL 6
REMARK VINA RESULT:      -8.3      4.294      6.032
REMARK  4 active torsions:
REMARK  status: ('A' for Active; 'I' for Inactive)
REMARK       I    between atoms: N1_1  and  C1_2 
REMARK    1  A    between atoms: C1_2  and  C2_4 
REMARK    2  A    between atoms: C3_5  and  C4_6 
REMARK    3  A    between atoms: C8_10  and  O2_11 
REMARK    4  A    between atoms: O2_11  and  C9_12 
ROOT
HETATM    1  C4  UNL     1      26.073   0.982  51.927  1.00  0.00    -0.018 A 
HETATM    2  C5  UNL     1      24.731   1.152  52.281  1.00  0.00     0.026 A 
HETATM    3  C6  UNL     1      24.154   2.323  51.854  1.00  0.00    -0.004 A 
HETATM    4  C7  UNL     1      22.814   2.483  52.223  1.00  0.00     0.050 A 
HETATM    5  C8  UNL     1      22.059   3.612  51.883  1.00  0.00     0.071 A 
HETATM    6  C16 UNL     1      22.754   4.547  51.155  1.00  0.00     0.039 A 
HETATM    7  C17 UNL     1      24.061   4.473  50.753  1.00  0.00     0.035 A 
HETATM    8  C18 UNL     1      24.742   3.329  51.126  1.00  0.00     0.067 A 
HETATM    9  N2  UNL     1      26.054   3.129  50.796  1.00  0.00    -0.260 NA
HETATM   10  C19 UNL     1      26.686   1.992  51.188  1.00  0.00     0.128 A 
ENDROOT
BRANCH   5  11
HETATM   11  O2  UNL     1      20.749   3.673  52.296  1.00  0.00    -0.336 OA
BRANCH  11  12
HETATM   12  C9  UNL     1      19.921   2.595  52.506  1.00  0.00     0.201 C 
HETATM   13  C10 UNL     1      20.566   1.532  53.363  1.00  0.00     0.035 C 
HETATM   14  C11 UNL     1      20.350   0.254  53.608  1.00  0.00     0.033 C 
HETATM   15 CL1  UNL     1      21.407  -0.605  54.724  1.00  0.00    -0.085 Cl
HETATM   16  C12 UNL     1      19.272  -0.527  53.008  1.00  0.00     0.026 C 
HETATM   17  C13 UNL     1      18.654  -0.297  51.863  1.00  0.00     0.045 C 
HETATM   18  C14 UNL     1      18.899   0.796  50.915  1.00  0.00     0.137 C 
HETATM   19  F1  UNL     1      18.562   0.582  49.622  1.00  0.00    -0.205 F 
HETATM   20  C15 UNL     1      19.427   1.986  51.219  1.00  0.00     0.083 C 
HETATM   21 CL2  UNL     1      19.579   3.061  49.869  1.00  0.00    -0.083 Cl
ENDBRANCH  11  12
ENDBRANCH   5  11
BRANCH   1  22
HETATM   22  C3  UNL     1      26.912  -0.163  52.252  1.00  0.00     0.018 C 
HETATM   23  C2  UNL     1      26.668  -1.310  52.829  1.00  0.00     0.075 C 
BRANCH  23  24
HETATM   24  C1  UNL     1      27.722  -2.277  53.023  1.00  0.00     0.238 C 
HETATM   25  N1  UNL     1      28.558  -3.368  53.056  1.00  0.00    -0.367 N 
HETATM   26  H1  UNL     1      29.294  -3.583  52.341  1.00  0.00     0.159 HD
HETATM   27  H2  UNL     1      28.520  -4.105  53.828  1.00  0.00     0.159 HD
HETATM   28  O1  UNL     1      28.589  -1.618  53.718  1.00  0.00    -0.269 OA
ENDBRANCH  23  24
ENDBRANCH   1  22
TORSDOF 4
ENDMDL
MODEL 7
REMARK VINA RESULT:      -8.2      5.005      7.439
REMARK  4 active torsions:
REMARK  status: ('A' for Active; 'I' for Inactive)
REMARK       I    between atoms: N1_1  and  C1_2 
REMARK    1  A    between atoms: C1_2  and  C2_4 
REMARK    2  A    between atoms: C3_5  and  C4_6 
REMARK    3  A    between atoms: C8_10  and  O2_11 
REMARK    4  A    between atoms: O2_11  and  C9_12 
ROOT
HETATM    1  C4  UNL     1      25.381   0.646  52.786  1.00  0.00    -0.018 A 
HETATM    2  C5  UNL     1      23.994   0.503  52.883  1.00  0.00     0.026 A 
HETATM    3  C6  UNL     1      23.265   1.636  52.613  1.00  0.00    -0.004 A 
HETATM    4  C7  UNL     1      21.879   1.479  52.722  1.00  0.00     0.050 A 
HETATM    5  C8  UNL     1      20.974   2.522  52.490  1.00  0.00     0.071 A 
HETATM    6  C16 UNL     1      21.571   3.711  52.146  1.00  0.00     0.039 A 
HETATM    7  C17 UNL     1      22.913   3.952  52.019  1.00  0.00     0.035 A 
HETATM    8  C18 UNL     1      23.745   2.875  52.263  1.00  0.00     0.067 A 
HETATM    9  N2  UNL     1      25.105   2.979  52.177  1.00  0.00    -0.260 NA
HETATM   10  C19 UNL     1      25.886   1.896  52.432  1.00  0.00     0.128 A 
ENDROOT
BRANCH   5  11
HETATM   11  O2  UNL     1      19.630   2.265  52.625  1.00  0.00    -0.336 OA
BRANCH  11  12
HETATM   12  C9  UNL     1      18.783   1.860  51.620  1.00  0.00     0.201 C 
HETATM   13  C10 UNL     1      17.658   2.839  51.387  1.00  0.00     0.035 C 
HETATM   14  C11 UNL     1      16.480   2.804  50.795  1.00  0.00     0.033 C 
HETATM   15 CL1  UNL     1      15.476   4.250  50.774  1.00  0.00    -0.085 Cl
HETATM   16  C12 UNL     1      15.926   1.624  50.136  1.00  0.00     0.026 C 
HETATM   17  C13 UNL     1      16.217   0.358  50.378  1.00  0.00     0.045 C 
HETATM   18  C14 UNL     1      17.165  -0.173  51.364  1.00  0.00     0.137 C 
HETATM   19  F1  UNL     1      16.952  -1.431  51.814  1.00  0.00    -0.205 F 
HETATM   20  C15 UNL     1      18.222   0.481  51.858  1.00  0.00     0.083 C 
HETATM   21 CL2  UNL     1      19.147  -0.430  53.005  1.00  0.00    -0.083 Cl
ENDBRANCH  11  12
ENDBRANCH   5  11
BRANCH   1  22
HETATM   22  C3  UNL     1      26.374  -0.394  53.019  1.00  0.00     0.018 C 
HETATM   23  C2  UNL     1      26.658  -1.508  52.397  1.00  0.00     0.075 C 
BRANCH  23  24
HETATM   24  C1  UNL     1      27.722  -2.362  52.865  1.00  0.00     0.238 C 
HETATM   25  N1  UNL     1      28.605  -3.375  53.161  1.00  0.00    -0.367 N 
HETATM   26  H1  UNL     1      29.452  -3.619  52.593  1.00  0.00     0.159 HD
HETATM   27  H2  UNL     1      28.491  -4.015  54.008  1.00  0.00     0.159 HD
HETATM   28  O1  UNL     1      28.434  -1.561  53.586  1.00  0.00    -0.269 OA
ENDBRANCH  23  24
ENDBRANCH   1  22
TORSDOF 4
ENDMDL
MODEL 8
REMARK VINA RESULT:      -8.1      3.295      4.605
REMARK  4 active torsions:
REMARK  status: ('A' for Active; 'I' for Inactive)
REMARK       I    between atoms: N1_1  and  C1_2 
REMARK    1  A    between atoms: C1_2  and  C2_4 
REMARK    2  A    between atoms: C3_5  and  C4_6 
REMARK    3  A    between atoms: C8_10  and  O2_11 
REMARK    4  A    between atoms: O2_11  and  C9_12 
ROOT
HETATM    1  C4  UNL     1      30.401   5.926  47.848  1.00  0.00    -0.018 A 
HETATM    2  C5  UNL     1      29.179   5.470  48.351  1.00  0.00     0.026 A 
HETATM    3  C6  UNL     1      28.092   6.258  48.061  1.00  0.00    -0.004 A 
HETATM    4  C7  UNL     1      26.878   5.793  48.578  1.00  0.00     0.050 A 
HETATM    5  C8  UNL     1      25.663   6.463  48.390  1.00  0.00     0.071 A 
HETATM    6  C16 UNL     1      25.773   7.618  47.652  1.00  0.00     0.039 A 
HETATM    7  C17 UNL     1      26.916   8.144  47.112  1.00  0.00     0.035 A 
HETATM    8  C18 UNL     1      28.076   7.427  47.339  1.00  0.00     0.067 A 
HETATM    9  N2  UNL     1      29.287   7.843  46.861  1.00  0.00    -0.260 NA
HETATM   10  C19 UNL     1      30.404   7.110  47.114  1.00  0.00     0.128 A 
ENDROOT
BRANCH   5  11
HETATM   11  O2  UNL     1      24.525   5.924  48.941  1.00  0.00    -0.336 OA
BRANCH  11  12
HETATM   12  C9  UNL     1      24.462   4.773  49.691  1.00  0.00     0.201 C 
HETATM   13  C10 UNL     1      23.612   3.708  49.040  1.00  0.00     0.035 C 
HETATM   14  C11 UNL     1      23.011   2.604  49.437  1.00  0.00     0.033 C 
HETATM   15 CL1  UNL     1      22.096   1.648  48.275  1.00  0.00    -0.085 Cl
HETATM   16  C12 UNL     1      23.044   2.096  50.806  1.00  0.00     0.026 C 
HETATM   17  C13 UNL     1      23.239   2.787  51.915  1.00  0.00     0.045 C 
HETATM   18  C14 UNL     1      23.469   4.231  52.044  1.00  0.00     0.137 C 
HETATM   19  F1  UNL     1      23.135   4.809  53.221  1.00  0.00    -0.205 F 
HETATM   20  C15 UNL     1      23.980   5.025  51.097  1.00  0.00     0.083 C 
HETATM   21 CL2  UNL     1      24.129   6.685  51.568  1.00  0.00    -0.083 Cl
ENDBRANCH  11  12
ENDBRANCH   5  11
BRANCH   1  22
HETATM   22  C3  UNL     1      31.696   5.280  48.012  1.00  0.00     0.018 C 
HETATM   23  C2  UNL     1      32.305   4.327  47.356  1.00  0.00     0.075 C 
BRANCH  23  24
HETATM   24  C1  UNL     1      33.617   3.880  47.755  1.00  0.00     0.238 C 
HETATM   25  N1  UNL     1      34.726   3.269  48.292  1.00  0.00    -0.367 N 
HETATM   26  H1  UNL     1      35.211   2.435  47.880  1.00  0.00     0.159 HD
HETATM   27  H2  UNL     1      35.188   3.596  49.197  1.00  0.00     0.159 HD
HETATM   28  O1  UNL     1      34.399   4.665  47.091  1.00  0.00    -0.269 OA
ENDBRANCH  23  24
ENDBRANCH   1  22
TORSDOF 4
ENDMDL
MODEL 9
REMARK VINA RESULT:      -8.1      4.952      9.739
REMARK  4 active torsions:
REMARK  status: ('A' for Active; 'I' for Inactive)
REMARK       I    between atoms: N1_1  and  C1_2 
REMARK    1  A    between atoms: C1_2  and  C2_4 
REMARK    2  A    between atoms: C3_5  and  C4_6 
REMARK    3  A    between atoms: C8_10  and  O2_11 
REMARK    4  A    between atoms: O2_11  and  C9_12 
ROOT
HETATM    1  C4  UNL     1      21.032  -0.138  52.989  1.00  0.00    -0.018 A 
HETATM    2  C5  UNL     1      21.442   0.886  52.130  1.00  0.00     0.026 A 
HETATM    3  C6  UNL     1      22.792   1.145  52.124  1.00  0.00    -0.004 A 
HETATM    4  C7  UNL     1      23.184   2.178  51.266  1.00  0.00     0.050 A 
HETATM    5  C8  UNL     1      24.516   2.588  51.128  1.00  0.00     0.071 A 
HETATM    6  C16 UNL     1      25.399   1.884  51.911  1.00  0.00     0.039 A 
HETATM    7  C17 UNL     1      25.102   0.864  52.774  1.00  0.00     0.035 A 
HETATM    8  C18 UNL     1      23.766   0.515  52.858  1.00  0.00     0.067 A 
HETATM    9  N2  UNL     1      23.332  -0.482  53.686  1.00  0.00    -0.260 NA
HETATM   10  C19 UNL     1      22.008  -0.789  53.741  1.00  0.00     0.128 A 
ENDROOT
BRANCH   5  11
HETATM   11  O2  UNL     1      24.798   3.615  50.259  1.00  0.00    -0.336 OA
BRANCH  11  12
HETATM   12  C9  UNL     1      24.960   4.938  50.602  1.00  0.00     0.201 C 
HETATM   13  C10 UNL     1      23.651   5.691  50.623  1.00  0.00     0.035 C 
HETATM   14  C11 UNL     1      23.289   6.959  50.593  1.00  0.00     0.033 C 
HETATM   15 CL1  UNL     1      21.578   7.373  50.639  1.00  0.00    -0.085 Cl
HETATM   16  C12 UNL     1      24.223   8.079  50.523  1.00  0.00     0.026 C 
HETATM   17  C13 UNL     1      25.452   8.072  50.038  1.00  0.00     0.045 C 
HETATM   18  C14 UNL     1      26.179   6.940  49.453  1.00  0.00     0.137 C 
HETATM   19  F1  UNL     1      27.168   7.226  48.576  1.00  0.00    -0.205 F 
HETATM   20  C15 UNL     1      25.947   5.649  49.711  1.00  0.00     0.083 C 
HETATM   21 CL2  UNL     1      26.987   4.557  48.859  1.00  0.00    -0.083 Cl
ENDBRANCH  11  12
ENDBRANCH   5  11
BRANCH   1  22
HETATM   22  C3  UNL     1      19.667  -0.608  53.181  1.00  0.00     0.018 C 
HETATM   23  C2  UNL     1      18.581  -0.505  52.462  1.00  0.00     0.075 C 
BRANCH  23  24
HETATM   24  C1  UNL     1      17.340  -1.085  52.915  1.00  0.00     0.238 C 
HETATM   25  N1  UNL     1      16.039  -1.430  53.195  1.00  0.00    -0.367 N 
HETATM   26  H1  UNL     1      15.452  -2.082  52.620  1.00  0.00     0.159 HD
HETATM   27  H2  UNL     1      15.505  -1.048  54.038  1.00  0.00     0.159 HD
HETATM   28  O1  UNL     1      17.737  -2.079  53.638  1.00  0.00    -0.269 OA
ENDBRANCH  23  24
ENDBRANCH   1  22
TORSDOF 4
ENDMDL
