MODEL 1
REMARK VINA RESULT:      -7.7      0.000      0.000
REMARK  6 active torsions:
REMARK  status: ('A' for Active; 'I' for Inactive)
REMARK    1  A    between atoms: C6_8  and  N1_9 
REMARK    2  A    between atoms: N1_9  and  C8_11 
REMARK    3  A    between atoms: C8_11  and  C9_12 
REMARK    4  A    between atoms: C15_20  and  O1_21 
REMARK    5  A    between atoms: O1_21  and  C16_22 
REMARK    6  A    between atoms: C16_22  and  O2_23 
ROOT
HETATM    1  C9  UNL     1      23.405   2.509  52.187  1.00  0.00     0.086 A 
HETATM    2  N2  UNL     1      22.083   2.730  52.187  1.00  0.00    -0.240 NA
HETATM    3  C10 UNL     1      21.235   1.809  52.680  1.00  0.00     0.234 A 
HETATM    4  N3  UNL     1      21.747   0.663  53.172  1.00  0.00    -0.241 NA
HETATM    5  C11 UNL     1      23.061   0.451  53.169  1.00  0.00     0.074 A 
HETATM    6  C12 UNL     1      23.988   1.365  52.672  1.00  0.00     0.032 A 
HETATM    7  C13 UNL     1      25.219   0.948  52.771  1.00  0.00    -0.013 A 
HETATM    8  C14 UNL     1      26.405   1.687  52.335  1.00  0.00     0.052 C 
HETATM    9  C15 UNL     1      25.117  -0.386  53.398  1.00  0.00     0.080 A 
HETATM   10  C18 UNL     1      23.840  -0.704  53.643  1.00  0.00     0.070 A 
ENDROOT
BRANCH   1  11
HETATM   11  C8  UNL     1      24.107   3.500  51.674  1.00  0.00     0.123 C 
BRANCH  11  12
HETATM   12  N1  UNL     1      24.266   3.682  50.273  1.00  0.00    -0.356 N 
HETATM   13  C7  UNL     1      23.569   3.075  49.128  1.00  0.00     0.156 C 
BRANCH  12  14
HETATM   14  C6  UNL     1      25.227   4.577  49.727  1.00  0.00     0.084 A 
HETATM   15  C2  UNL     1      25.250   6.016  49.486  1.00  0.00    -0.014 A 
HETATM   16  C1  UNL     1      24.216   6.781  49.795  1.00  0.00     0.026 C 
HETATM   17  C3  UNL     1      26.510   6.418  48.895  1.00  0.00     0.040 A 
HETATM   18  C4  UNL     1      27.166   5.265  48.808  1.00  0.00     0.075 A 
HETATM   19 CL1  UNL     1      28.802   5.227  48.131  1.00  0.00    -0.081 Cl
HETATM   20  C5  UNL     1      26.404   4.128  49.309  1.00  0.00     0.165 A 
HETATM   21  F1  UNL     1      26.872   2.856  49.318  1.00  0.00    -0.202 F 
ENDBRANCH  12  14
ENDBRANCH  11  12
ENDBRANCH   1  11
BRANCH   9  22
HETATM   22  O1  UNL     1      26.234  -1.171  53.675  1.00  0.00    -0.326 OA
BRANCH  22  23
HETATM   23  C16 UNL     1      26.966  -1.889  52.714  1.00  0.00     0.344 C 
BRANCH  23  24
HETATM   24  O2  UNL     1      28.148  -2.425  53.243  1.00  0.00    -0.371 OA
HETATM   25  C17 UNL     1      29.052  -1.362  53.332  1.00  0.00     0.204 C 
ENDBRANCH  23  24
ENDBRANCH  22  23
ENDBRANCH   9  22
TORSDOF 6
ENDMDL
MODEL 2
REMARK VINA RESULT:      -7.7      3.657      5.871
REMARK  6 active torsions:
REMARK  status: ('A' for Active; 'I' for Inactive)
REMARK    1  A    between atoms: C6_8  and  N1_9 
REMARK    2  A    between atoms: N1_9  and  C8_11 
REMARK    3  A    between atoms: C8_11  and  C9_12 
REMARK    4  A    between atoms: C15_20  and  O1_21 
REMARK    5  A    between atoms: O1_21  and  C16_22 
REMARK    6  A    between atoms: C16_22  and  O2_23 
ROOT
HETATM    1  C9  UNL     1      24.060   2.636  52.872  1.00  0.00     0.086 A 
HETATM    2  N2  UNL     1      24.159   3.933  52.552  1.00  0.00    -0.240 NA
HETATM    3  C10 UNL     1      23.090   4.609  52.093  1.00  0.00     0.234 A 
HETATM    4  N3  UNL     1      21.920   3.951  51.966  1.00  0.00    -0.241 NA
HETATM    5  C11 UNL     1      21.829   2.662  52.287  1.00  0.00     0.074 A 
HETATM    6  C12 UNL     1      22.899   1.910  52.765  1.00  0.00     0.032 A 
HETATM    7  C13 UNL     1      22.582   0.670  53.014  1.00  0.00    -0.013 A 
HETATM    8  C14 UNL     1      23.492  -0.356  53.524  1.00  0.00     0.052 C 
HETATM    9  C15 UNL     1      21.148   0.572  52.669  1.00  0.00     0.080 A 
HETATM   10  C18 UNL     1      20.678   1.746  52.232  1.00  0.00     0.070 A 
ENDROOT
BRANCH   1  11
HETATM   11  C8  UNL     1      25.188   2.110  53.306  1.00  0.00     0.123 C 
BRANCH  11  12
HETATM   12  N1  UNL     1      26.256   1.761  52.436  1.00  0.00    -0.356 N 
HETATM   13  C7  UNL     1      26.511   2.096  51.026  1.00  0.00     0.156 C 
BRANCH  12  14
HETATM   14  C6  UNL     1      27.346   0.950  52.857  1.00  0.00     0.084 A 
HETATM   15  C2  UNL     1      28.622   1.227  53.509  1.00  0.00    -0.014 A 
HETATM   16  C1  UNL     1      28.974   2.460  53.836  1.00  0.00     0.026 C 
HETATM   17  C3  UNL     1      29.371   0.004  53.713  1.00  0.00     0.040 A 
HETATM   18  C4  UNL     1      28.559  -0.917  53.204  1.00  0.00     0.075 A 
HETATM   19 CL1  UNL     1      29.037  -2.622  53.216  1.00  0.00    -0.081 Cl
HETATM   20  C5  UNL     1      27.318  -0.364  52.676  1.00  0.00     0.165 A 
HETATM   21  F1  UNL     1      26.343  -1.115  52.108  1.00  0.00    -0.202 F 
ENDBRANCH  12  14
ENDBRANCH  11  12
ENDBRANCH   1  11
BRANCH   9  22
HETATM   22  O1  UNL     1      20.425  -0.612  52.797  1.00  0.00    -0.326 OA
BRANCH  22  23
HETATM   23  C16 UNL     1      19.245  -0.751  53.548  1.00  0.00     0.344 C 
BRANCH  23  24
HETATM   24  O2  UNL     1      18.232  -1.397  52.823  1.00  0.00    -0.371 OA
HETATM   25  C17 UNL     1      17.828  -2.484  53.604  1.00  0.00     0.204 C 
ENDBRANCH  23  24
ENDBRANCH  22  23
ENDBRANCH   9  22
TORSDOF 6
ENDMDL
MODEL 3
REMARK VINA RESULT:      -7.6      4.000      6.079
REMARK  6 active torsions:
REMARK  status: ('A' for Active; 'I' for Inactive)
REMARK    1  A    between atoms: C6_8  and  N1_9 
REMARK    2  A    between atoms: N1_9  and  C8_11 
REMARK    3  A    between atoms: C8_11  and  C9_12 
REMARK    4  A    between atoms: C15_20  and  O1_21 
REMARK    5  A    between atoms: O1_21  and  C16_22 
REMARK    6  A    between atoms: C16_22  and  O2_23 
ROOT
HETATM    1  C9  UNL     1      23.831   1.130  53.106  1.00  0.00     0.086 A 
HETATM    2  N2  UNL     1      23.765  -0.189  53.335  1.00  0.00    -0.240 NA
HETATM    3  C10 UNL     1      22.624  -0.866  53.115  1.00  0.00     0.234 A 
HETATM    4  N3  UNL     1      21.552  -0.186  52.659  1.00  0.00    -0.241 NA
HETATM    5  C11 UNL     1      21.625   1.124  52.434  1.00  0.00     0.074 A 
HETATM    6  C12 UNL     1      22.777   1.878  52.643  1.00  0.00     0.032 A 
HETATM    7  C13 UNL     1      22.620   3.140  52.356  1.00  0.00    -0.013 A 
HETATM    8  C14 UNL     1      23.649   4.174  52.475  1.00  0.00     0.052 C 
HETATM    9  C15 UNL     1      21.217   3.253  51.906  1.00  0.00     0.080 A 
HETATM   10  C18 UNL     1      20.604   2.064  51.945  1.00  0.00     0.070 A 
ENDROOT
BRANCH   1  11
HETATM   11  C8  UNL     1      25.012   1.655  53.367  1.00  0.00     0.123 C 
BRANCH  11  12
HETATM   12  N1  UNL     1      26.130   1.496  52.503  1.00  0.00    -0.356 N 
HETATM   13  C7  UNL     1      26.365   1.951  51.124  1.00  0.00     0.156 C 
BRANCH  12  14
HETATM   14  C6  UNL     1      27.304   0.798  52.899  1.00  0.00     0.084 A 
HETATM   15  C2  UNL     1      28.582   1.208  53.470  1.00  0.00    -0.014 A 
HETATM   16  C1  UNL     1      28.844   2.479  53.728  1.00  0.00     0.026 C 
HETATM   17  C3  UNL     1      29.441   0.061  53.685  1.00  0.00     0.040 A 
HETATM   18  C4  UNL     1      28.686  -0.946  53.257  1.00  0.00     0.075 A 
HETATM   19 CL1  UNL     1      29.306  -2.603  53.313  1.00  0.00    -0.081 Cl
HETATM   20  C5  UNL     1      27.378  -0.521  52.773  1.00  0.00     0.165 A 
HETATM   21  F1  UNL     1      26.442  -1.375  52.289  1.00  0.00    -0.202 F 
ENDBRANCH  12  14
ENDBRANCH  11  12
ENDBRANCH   1  11
BRANCH   9  22
HETATM   22  O1  UNL     1      20.653   4.462  51.505  1.00  0.00    -0.326 OA
BRANCH  22  23
HETATM   23  C16 UNL     1      20.824   5.043  50.237  1.00  0.00     0.344 C 
BRANCH  23  24
HETATM   24  O2  UNL     1      21.376   4.143  49.314  1.00  0.00    -0.371 OA
HETATM   25  C17 UNL     1      22.485   4.787  48.757  1.00  0.00     0.204 C 
ENDBRANCH  23  24
ENDBRANCH  22  23
ENDBRANCH   9  22
TORSDOF 6
ENDMDL
MODEL 4
REMARK VINA RESULT:      -7.6      2.185      3.191
REMARK  6 active torsions:
REMARK  status: ('A' for Active; 'I' for Inactive)
REMARK    1  A    between atoms: C6_8  and  N1_9 
REMARK    2  A    between atoms: N1_9  and  C8_11 
REMARK    3  A    between atoms: C8_11  and  C9_12 
REMARK    4  A    between atoms: C15_20  and  O1_21 
REMARK    5  A    between atoms: O1_21  and  C16_22 
REMARK    6  A    between atoms: C16_22  and  O2_23 
ROOT
HETATM    1  C9  UNL     1      22.439   0.099  52.840  1.00  0.00     0.086 A 
HETATM    2  N2  UNL     1      21.252  -0.226  53.370  1.00  0.00    -0.240 NA
HETATM    3  C10 UNL     1      21.181  -0.874  54.547  1.00  0.00     0.234 A 
HETATM    4  N3  UNL     1      22.332  -1.186  55.178  1.00  0.00    -0.241 NA
HETATM    5  C11 UNL     1      23.507  -0.860  54.645  1.00  0.00     0.074 A 
HETATM    6  C12 UNL     1      23.644  -0.191  53.431  1.00  0.00     0.032 A 
HETATM    7  C13 UNL     1      24.888   0.025  53.104  1.00  0.00    -0.013 A 
HETATM    8  C14 UNL     1      25.343   0.703  51.890  1.00  0.00     0.052 C 
HETATM    9  C15 UNL     1      25.675  -0.558  54.210  1.00  0.00     0.080 A 
HETATM   10  C18 UNL     1      24.874  -1.092  55.140  1.00  0.00     0.070 A 
ENDROOT
BRANCH   1  11
HETATM   11  C8  UNL     1      22.349   0.729  51.686  1.00  0.00     0.123 C 
BRANCH  11  12
HETATM   12  N1  UNL     1      22.044   2.115  51.590  1.00  0.00    -0.356 N 
HETATM   13  C7  UNL     1      21.005   2.928  52.240  1.00  0.00     0.156 C 
BRANCH  12  14
HETATM   14  C6  UNL     1      22.786   3.001  50.761  1.00  0.00     0.084 A 
HETATM   15  C2  UNL     1      22.906   3.176  49.317  1.00  0.00    -0.014 A 
HETATM   16  C1  UNL     1      22.233   2.410  48.474  1.00  0.00     0.026 C 
HETATM   17  C3  UNL     1      23.821   4.254  49.004  1.00  0.00     0.040 A 
HETATM   18  C4  UNL     1      24.199   4.667  50.209  1.00  0.00     0.075 A 
HETATM   19 CL1  UNL     1      25.347   6.006  50.366  1.00  0.00    -0.081 Cl
HETATM   20  C5  UNL     1      23.581   3.918  51.297  1.00  0.00     0.165 A 
HETATM   21  F1  UNL     1      23.819   4.165  52.609  1.00  0.00    -0.202 F 
ENDBRANCH  12  14
ENDBRANCH  11  12
ENDBRANCH   1  11
BRANCH   9  22
HETATM   22  O1  UNL     1      27.068  -0.532  54.235  1.00  0.00    -0.326 OA
BRANCH  22  23
HETATM   23  C16 UNL     1      27.837   0.458  54.871  1.00  0.00     0.344 C 
BRANCH  23  24
HETATM   24  O2  UNL     1      27.487   1.749  54.453  1.00  0.00    -0.371 OA
HETATM   25  C17 UNL     1      28.510   2.174  53.601  1.00  0.00     0.204 C 
ENDBRANCH  23  24
ENDBRANCH  22  23
ENDBRANCH   9  22
TORSDOF 6
ENDMDL
MODEL 5
REMARK VINA RESULT:      -7.4      2.272      2.776
REMARK  6 active torsions:
REMARK  status: ('A' for Active; 'I' for Inactive)
REMARK    1  A    between atoms: C6_8  and  N1_9 
REMARK    2  A    between atoms: N1_9  and  C8_11 
REMARK    3  A    between atoms: C8_11  and  C9_12 
REMARK    4  A    between atoms: C15_20  and  O1_21 
REMARK    5  A    between atoms: O1_21  and  C16_22 
REMARK    6  A    between atoms: C16_22  and  O2_23 
ROOT
HETATM    1  C9  UNL     1      23.396   1.101  52.137  1.00  0.00     0.086 A 
HETATM    2  N2  UNL     1      22.088   0.927  52.377  1.00  0.00    -0.240 NA
HETATM    3  C10 UNL     1      21.675   0.096  53.350  1.00  0.00     0.234 A 
HETATM    4  N3  UNL     1      22.606  -0.556  54.076  1.00  0.00    -0.241 NA
HETATM    5  C11 UNL     1      23.903  -0.378  53.833  1.00  0.00     0.074 A 
HETATM    6  C12 UNL     1      24.391   0.468  52.840  1.00  0.00     0.032 A 
HETATM    7  C13 UNL     1      25.693   0.487  52.780  1.00  0.00    -0.013 A 
HETATM    8  C14 UNL     1      26.490   1.278  51.842  1.00  0.00     0.052 C 
HETATM    9  C15 UNL     1      26.133  -0.442  53.842  1.00  0.00     0.080 A 
HETATM   10  C18 UNL     1      25.083  -0.970  54.482  1.00  0.00     0.070 A 
ENDROOT
BRANCH   1  11
HETATM   11  C8  UNL     1      23.647   1.944  51.156  1.00  0.00     0.123 C 
BRANCH  11  12
HETATM   12  N1  UNL     1      23.702   3.352  51.349  1.00  0.00    -0.356 N 
HETATM   13  C7  UNL     1      23.680   4.166  52.573  1.00  0.00     0.156 C 
BRANCH  12  14
HETATM   14  C6  UNL     1      23.796   4.265  50.262  1.00  0.00     0.084 A 
HETATM   15  C2  UNL     1      24.900   4.754  49.443  1.00  0.00    -0.014 A 
HETATM   16  C1  UNL     1      26.141   4.343  49.645  1.00  0.00     0.026 C 
HETATM   17  C3  UNL     1      24.425   5.696  48.450  1.00  0.00     0.040 A 
HETATM   18  C4  UNL     1      23.119   5.736  48.695  1.00  0.00     0.075 A 
HETATM   19 CL1  UNL     1      22.067   6.774  47.720  1.00  0.00    -0.081 Cl
HETATM   20  C5  UNL     1      22.712   4.872  49.796  1.00  0.00     0.165 A 
HETATM   21  F1  UNL     1      21.431   4.752  50.223  1.00  0.00    -0.202 F 
ENDBRANCH  12  14
ENDBRANCH  11  12
ENDBRANCH   1  11
BRANCH   9  22
HETATM   22  O1  UNL     1      27.476  -0.701  54.102  1.00  0.00    -0.326 OA
BRANCH  22  23
HETATM   23  C16 UNL     1      28.338   0.165  54.796  1.00  0.00     0.344 C 
BRANCH  23  24
HETATM   24  O2  UNL     1      29.518   0.420  54.082  1.00  0.00    -0.371 OA
HETATM   25  C17 UNL     1      29.914  -0.804  53.534  1.00  0.00     0.204 C 
ENDBRANCH  23  24
ENDBRANCH  22  23
ENDBRANCH   9  22
TORSDOF 6
ENDMDL
MODEL 6
REMARK VINA RESULT:      -7.4      3.294      4.983
REMARK  6 active torsions:
REMARK  status: ('A' for Active; 'I' for Inactive)
REMARK    1  A    between atoms: C6_8  and  N1_9 
REMARK    2  A    between atoms: N1_9  and  C8_11 
REMARK    3  A    between atoms: C8_11  and  C9_12 
REMARK    4  A    between atoms: C15_20  and  O1_21 
REMARK    5  A    between atoms: O1_21  and  C16_22 
REMARK    6  A    between atoms: C16_22  and  O2_23 
ROOT
HETATM    1  C9  UNL     1      24.470   4.012  51.055  1.00  0.00     0.086 A 
HETATM    2  N2  UNL     1      25.035   4.855  50.178  1.00  0.00    -0.240 NA
HETATM    3  C10 UNL     1      26.239   4.582  49.644  1.00  0.00     0.234 A 
HETATM    4  N3  UNL     1      26.861   3.442  50.011  1.00  0.00    -0.241 NA
HETATM    5  C11 UNL     1      26.293   2.610  50.882  1.00  0.00     0.074 A 
HETATM    6  C12 UNL     1      25.051   2.839  51.469  1.00  0.00     0.032 A 
HETATM    7  C13 UNL     1      24.692   1.892  52.290  1.00  0.00    -0.013 A 
HETATM    8  C14 UNL     1      23.443   1.855  53.052  1.00  0.00     0.052 C 
HETATM    9  C15 UNL     1      25.806   0.922  52.257  1.00  0.00     0.080 A 
HETATM   10  C18 UNL     1      26.772   1.329  51.425  1.00  0.00     0.070 A 
ENDROOT
BRANCH   1  11
HETATM   11  C8  UNL     1      23.292   4.413  51.491  1.00  0.00     0.123 C 
BRANCH  11  12
HETATM   12  N1  UNL     1      22.121   4.369  50.687  1.00  0.00    -0.356 N 
HETATM   13  C7  UNL     1      21.298   5.441  50.109  1.00  0.00     0.156 C 
BRANCH  12  14
HETATM   14  C6  UNL     1      21.519   3.143  50.288  1.00  0.00     0.084 A 
HETATM   15  C2  UNL     1      21.753   2.209  49.192  1.00  0.00    -0.014 A 
HETATM   16  C1  UNL     1      22.702   2.425  48.295  1.00  0.00     0.026 C 
HETATM   17  C3  UNL     1      20.830   1.095  49.260  1.00  0.00     0.040 A 
HETATM   18  C4  UNL     1      20.112   1.384  50.340  1.00  0.00     0.075 A 
HETATM   19 CL1  UNL     1      18.815   0.295  50.859  1.00  0.00    -0.081 Cl
HETATM   20  C5  UNL     1      20.514   2.628  50.985  1.00  0.00     0.165 A 
HETATM   21  F1  UNL     1      19.922   3.122  52.100  1.00  0.00    -0.202 F 
ENDBRANCH  12  14
ENDBRANCH  11  12
ENDBRANCH   1  11
BRANCH   9  22
HETATM   22  O1  UNL     1      25.804  -0.248  53.013  1.00  0.00    -0.326 OA
BRANCH  22  23
HETATM   23  C16 UNL     1      26.344  -0.367  54.305  1.00  0.00     0.344 C 
BRANCH  23  24
HETATM   24  O2  UNL     1      27.676  -0.805  54.282  1.00  0.00    -0.371 OA
HETATM   25  C17 UNL     1      28.436   0.228  54.840  1.00  0.00     0.204 C 
ENDBRANCH  23  24
ENDBRANCH  22  23
ENDBRANCH   9  22
TORSDOF 6
ENDMDL
MODEL 7
REMARK VINA RESULT:      -7.3      3.994      6.280
REMARK  6 active torsions:
REMARK  status: ('A' for Active; 'I' for Inactive)
REMARK    1  A    between atoms: C6_8  and  N1_9 
REMARK    2  A    between atoms: N1_9  and  C8_11 
REMARK    3  A    between atoms: C8_11  and  C9_12 
REMARK    4  A    between atoms: C15_20  and  O1_21 
REMARK    5  A    between atoms: O1_21  and  C16_22 
REMARK    6  A    between atoms: C16_22  and  O2_23 
ROOT
HETATM    1  C9  UNL     1      23.354   1.677  51.159  1.00  0.00     0.086 A 
HETATM    2  N2  UNL     1      23.340   2.473  50.081  1.00  0.00    -0.240 NA
HETATM    3  C10 UNL     1      24.369   3.302  49.828  1.00  0.00     0.234 A 
HETATM    4  N3  UNL     1      25.411   3.312  50.684  1.00  0.00    -0.241 NA
HETATM    5  C11 UNL     1      25.418   2.517  51.753  1.00  0.00     0.074 A 
HETATM    6  C12 UNL     1      24.383   1.640  52.067  1.00  0.00     0.032 A 
HETATM    7  C13 UNL     1      24.603   0.961  53.158  1.00  0.00    -0.013 A 
HETATM    8  C14 UNL     1      23.700  -0.034  53.738  1.00  0.00     0.052 C 
HETATM    9  C15 UNL     1      25.923   1.427  53.632  1.00  0.00     0.080 A 
HETATM   10  C18 UNL     1      26.427   2.356  52.811  1.00  0.00     0.070 A 
ENDROOT
BRANCH   1  11
HETATM   11  C8  UNL     1      22.279   0.922  51.274  1.00  0.00     0.123 C 
BRANCH  11  12
HETATM   12  N1  UNL     1      21.078   1.384  51.877  1.00  0.00    -0.356 N 
HETATM   13  C7  UNL     1      20.752   2.652  52.548  1.00  0.00     0.156 C 
BRANCH  12  14
HETATM   14  C6  UNL     1      19.895   0.595  51.917  1.00  0.00     0.084 A 
HETATM   15  C2  UNL     1      18.734   0.465  51.043  1.00  0.00    -0.014 A 
HETATM   16  C1  UNL     1      18.624   1.179  49.934  1.00  0.00     0.026 C 
HETATM   17  C3  UNL     1      17.800  -0.509  51.571  1.00  0.00     0.040 A 
HETATM   18  C4  UNL     1      18.404  -0.909  52.685  1.00  0.00     0.075 A 
HETATM   19 CL1  UNL     1      17.640  -2.130  53.716  1.00  0.00    -0.081 Cl
HETATM   20  C5  UNL     1      19.683  -0.250  52.918  1.00  0.00     0.165 A 
HETATM   21  F1  UNL     1      20.473  -0.500  53.991  1.00  0.00    -0.202 F 
ENDBRANCH  12  14
ENDBRANCH  11  12
ENDBRANCH   1  11
BRANCH   9  22
HETATM   22  O1  UNL     1      26.520   0.934  54.790  1.00  0.00    -0.326 OA
BRANCH  22  23
HETATM   23  C16 UNL     1      27.536  -0.037  54.815  1.00  0.00     0.344 C 
BRANCH  23  24
HETATM   24  O2  UNL     1      28.815   0.538  54.817  1.00  0.00    -0.371 OA
HETATM   25  C17 UNL     1      29.524  -0.083  53.784  1.00  0.00     0.204 C 
ENDBRANCH  23  24
ENDBRANCH  22  23
ENDBRANCH   9  22
TORSDOF 6
ENDMDL
MODEL 8
REMARK VINA RESULT:      -7.3      3.988      6.882
REMARK  6 active torsions:
REMARK  status: ('A' for Active; 'I' for Inactive)
REMARK    1  A    between atoms: C6_8  and  N1_9 
REMARK    2  A    between atoms: N1_9  and  C8_11 
REMARK    3  A    between atoms: C8_11  and  C9_12 
REMARK    4  A    between atoms: C15_20  and  O1_21 
REMARK    5  A    between atoms: O1_21  and  C16_22 
REMARK    6  A    between atoms: C16_22  and  O2_23 
ROOT
HETATM    1  C9  UNL     1      23.810   4.022  50.101  1.00  0.00     0.086 A 
HETATM    2  N2  UNL     1      22.691   4.757  50.041  1.00  0.00    -0.240 NA
HETATM    3  C10 UNL     1      22.703   5.979  49.478  1.00  0.00     0.234 A 
HETATM    4  N3  UNL     1      23.866   6.443  48.977  1.00  0.00    -0.241 NA
HETATM    5  C11 UNL     1      24.974   5.707  49.041  1.00  0.00     0.074 A 
HETATM    6  C12 UNL     1      25.023   4.438  49.611  1.00  0.00     0.032 A 
HETATM    7  C13 UNL     1      26.211   3.902  49.562  1.00  0.00    -0.013 A 
HETATM    8  C14 UNL     1      26.571   2.581  50.079  1.00  0.00     0.052 C 
HETATM    9  C15 UNL     1      27.053   4.913  48.890  1.00  0.00     0.080 A 
HETATM   10  C18 UNL     1      26.338   5.998  48.571  1.00  0.00     0.070 A 
ENDROOT
BRANCH   1  11
HETATM   11  C8  UNL     1      23.643   2.849  50.679  1.00  0.00     0.123 C 
BRANCH  11  12
HETATM   12  N1  UNL     1      23.759   2.663  52.084  1.00  0.00    -0.356 N 
HETATM   13  C7  UNL     1      24.109   3.599  53.163  1.00  0.00     0.156 C 
BRANCH  12  14
HETATM   14  C6  UNL     1      23.527   1.404  52.705  1.00  0.00     0.084 A 
HETATM   15  C2  UNL     1      24.380   0.269  53.044  1.00  0.00    -0.014 A 
HETATM   16  C1  UNL     1      25.674   0.275  52.769  1.00  0.00     0.026 C 
HETATM   17  C3  UNL     1      23.610  -0.779  53.683  1.00  0.00     0.040 A 
HETATM   18  C4  UNL     1      22.386  -0.261  53.706  1.00  0.00     0.075 A 
HETATM   19 CL1  UNL     1      21.048  -1.184  54.407  1.00  0.00    -0.081 Cl
HETATM   20  C5  UNL     1      22.311   1.069  53.115  1.00  0.00     0.165 A 
HETATM   21  F1  UNL     1      21.165   1.789  53.028  1.00  0.00    -0.202 F 
ENDBRANCH  12  14
ENDBRANCH  11  12
ENDBRANCH   1  11
BRANCH   9  22
HETATM   22  O1  UNL     1      28.410   4.716  48.646  1.00  0.00    -0.326 OA
BRANCH  22  23
HETATM   23  C16 UNL     1      29.307   5.725  48.252  1.00  0.00     0.344 C 
BRANCH  23  24
HETATM   24  O2  UNL     1      30.622   5.448  48.654  1.00  0.00    -0.371 OA
HETATM   25  C17 UNL     1      31.209   6.684  48.942  1.00  0.00     0.204 C 
ENDBRANCH  23  24
ENDBRANCH  22  23
ENDBRANCH   9  22
TORSDOF 6
ENDMDL
MODEL 9
REMARK VINA RESULT:      -7.2      3.962      6.490
REMARK  6 active torsions:
REMARK  status: ('A' for Active; 'I' for Inactive)
REMARK    1  A    between atoms: C6_8  and  N1_9 
REMARK    2  A    between atoms: N1_9  and  C8_11 
REMARK    3  A    between atoms: C8_11  and  C9_12 
REMARK    4  A    between atoms: C15_20  and  O1_21 
REMARK    5  A    between atoms: O1_21  and  C16_22 
REMARK    6  A    between atoms: C16_22  and  O2_23 
ROOT
HETATM    1  C9  UNL     1      23.057   1.414  51.218  1.00  0.00     0.086 A 
HETATM    2  N2  UNL     1      22.969   2.266  50.187  1.00  0.00    -0.240 NA
HETATM    3  C10 UNL     1      23.982   3.103  49.902  1.00  0.00     0.234 A 
HETATM    4  N3  UNL     1      25.085   3.064  50.677  1.00  0.00    -0.241 NA
HETATM    5  C11 UNL     1      25.165   2.214  51.699  1.00  0.00     0.074 A 
HETATM    6  C12 UNL     1      24.150   1.325  52.044  1.00  0.00     0.032 A 
HETATM    7  C13 UNL     1      24.445   0.589  53.079  1.00  0.00    -0.013 A 
HETATM    8  C14 UNL     1      23.580  -0.431  53.671  1.00  0.00     0.052 C 
HETATM    9  C15 UNL     1      25.800   1.025  53.477  1.00  0.00     0.080 A 
HETATM   10  C18 UNL     1      26.250   1.993  52.670  1.00  0.00     0.070 A 
ENDROOT
BRANCH   1  11
HETATM   11  C8  UNL     1      21.988   0.658  51.373  1.00  0.00     0.123 C 
BRANCH  11  12
HETATM   12  N1  UNL     1      20.810   1.118  52.023  1.00  0.00    -0.356 N 
HETATM   13  C7  UNL     1      20.468   2.426  52.603  1.00  0.00     0.156 C 
BRANCH  12  14
HETATM   14  C6  UNL     1      19.676   0.283  52.223  1.00  0.00     0.084 A 
HETATM   15  C2  UNL     1      19.327  -0.732  53.211  1.00  0.00    -0.014 A 
HETATM   16  C1  UNL     1      20.154  -1.047  54.195  1.00  0.00     0.026 C 
HETATM   17  C3  UNL     1      18.016  -1.285  52.939  1.00  0.00     0.040 A 
HETATM   18  C4  UNL     1      17.644  -0.616  51.852  1.00  0.00     0.075 A 
HETATM   19 CL1  UNL     1      16.070  -0.941  51.110  1.00  0.00    -0.081 Cl
HETATM   20  C5  UNL     1      18.640   0.346  51.397  1.00  0.00     0.165 A 
HETATM   21  F1  UNL     1      18.476   1.139  50.309  1.00  0.00    -0.202 F 
ENDBRANCH  12  14
ENDBRANCH  11  12
ENDBRANCH   1  11
BRANCH   9  22
HETATM   22  O1  UNL     1      26.478   0.469  54.560  1.00  0.00    -0.326 OA
BRANCH  22  23
HETATM   23  C16 UNL     1      27.864   0.241  54.604  1.00  0.00     0.344 C 
BRANCH  23  24
HETATM   24  O2  UNL     1      28.227  -0.937  53.935  1.00  0.00    -0.371 OA
HETATM   25  C17 UNL     1      29.615  -0.882  53.774  1.00  0.00     0.204 C 
ENDBRANCH  23  24
ENDBRANCH  22  23
ENDBRANCH   9  22
TORSDOF 6
ENDMDL
