MODEL 1
REMARK VINA RESULT:      -7.6      0.000      0.000
REMARK  0 active torsions:
REMARK  status: ('A' for Active; 'I' for Inactive)
ROOT
HETATM    1  C1  UNL     1      26.254   0.025  54.047  1.00  0.00     0.036 C 
HETATM    2  C2  UNL     1      26.677   0.816  52.858  1.00  0.00    -0.018 C 
HETATM    3  C3  UNL     1      25.805   1.602  52.250  1.00  0.00     0.007 C 
HETATM    4  C4  UNL     1      25.862   2.488  51.105  1.00  0.00     0.138 C 
HETATM    5  N1  UNL     1      26.837   3.142  50.575  1.00  0.00    -0.224 NA
HETATM    6  C5  UNL     1      26.768   3.980  49.454  1.00  0.00     0.231 C 
HETATM    7  N2  UNL     1      26.187   4.943  48.901  1.00  0.00    -0.257 NA
HETATM    8  C6  UNL     1      25.089   5.746  49.337  1.00  0.00     0.317 C 
HETATM    9  O1  UNL     1      25.279   6.193  50.619  1.00  0.00    -0.369 OA
HETATM   10  C7  UNL     1      24.280   7.040  51.065  1.00  0.00     0.189 C 
HETATM   11  C8  UNL     1      22.905   6.462  51.109  1.00  0.00     0.146 C 
HETATM   12  N3  UNL     1      22.730   5.343  52.000  1.00  0.00    -0.389 N 
HETATM   13  C9  UNL     1      23.157   4.003  52.158  1.00  0.00     0.041 C 
HETATM   14  C10 UNL     1      22.431   3.255  51.294  1.00  0.00     0.117 C 
HETATM   15  O2  UNL     1      21.061   3.447  51.196  1.00  0.00    -0.347 OA
HETATM   16  C11 UNL     1      20.332   2.321  50.691  1.00  0.00     0.201 C 
HETATM   17  C12 UNL     1      21.125   1.104  50.449  1.00  0.00     0.197 C 
HETATM   18  O3  UNL     1      22.441   1.058  50.808  1.00  0.00    -0.358 OA
HETATM   19  C13 UNL     1      23.092   2.177  50.402  1.00  0.00     0.285 C 
HETATM   20  N4  UNL     1      24.465   2.288  50.925  1.00  0.00    -0.324 N 
HETATM   21  C14 UNL     1      24.399   1.992  52.382  1.00  0.00     0.131 C 
HETATM   22  C15 UNL     1      24.200   3.371  53.062  1.00  0.00     0.089 C 
HETATM   23  H12 UNL     1      22.155   5.134  52.876  1.00  0.00     0.159 HD
ENDROOT
TORSDOF 0
ENDMDL
MODEL 2
REMARK VINA RESULT:      -7.0      7.609     10.811
REMARK  0 active torsions:
REMARK  status: ('A' for Active; 'I' for Inactive)
ROOT
HETATM    1  C1  UNL     1      27.830   6.633  48.504  1.00  0.00     0.036 C 
HETATM    2  C2  UNL     1      28.811   5.571  48.144  1.00  0.00    -0.018 C 
HETATM    3  C3  UNL     1      30.042   5.907  47.799  1.00  0.00     0.007 C 
HETATM    4  C4  UNL     1      31.223   5.167  47.401  1.00  0.00     0.138 C 
HETATM    5  N1  UNL     1      31.612   3.967  47.664  1.00  0.00    -0.224 NA
HETATM    6  C5  UNL     1      32.791   3.355  47.218  1.00  0.00     0.231 C 
HETATM    7  N2  UNL     1      34.036   3.438  47.107  1.00  0.00    -0.257 NA
HETATM    8  C6  UNL     1      34.942   4.467  47.506  1.00  0.00     0.317 C 
HETATM    9  O1  UNL     1      34.720   4.848  48.804  1.00  0.00    -0.369 OA
HETATM   10  C7  UNL     1      35.622   5.790  49.268  1.00  0.00     0.189 C 
HETATM   11  C8  UNL     1      35.646   7.089  48.534  1.00  0.00     0.146 C 
HETATM   12  N3  UNL     1      34.420   7.846  48.570  1.00  0.00    -0.389 N 
HETATM   13  C9  UNL     1      33.080   7.766  48.121  1.00  0.00     0.041 C 
HETATM   14  C10 UNL     1      33.086   8.095  46.808  1.00  0.00     0.117 C 
HETATM   15  O2  UNL     1      33.805   9.199  46.375  1.00  0.00    -0.347 OA
HETATM   16  C11 UNL     1      33.351   9.763  45.138  1.00  0.00     0.201 C 
HETATM   17  C12 UNL     1      32.138   9.156  44.567  1.00  0.00     0.197 C 
HETATM   18  O3  UNL     1      31.454   8.201  45.262  1.00  0.00    -0.358 OA
HETATM   19  C13 UNL     1      32.302   7.267  45.761  1.00  0.00     0.285 C 
HETATM   20  N4  UNL     1      31.660   6.317  46.686  1.00  0.00    -0.324 N 
HETATM   21  C14 UNL     1      30.846   7.121  47.639  1.00  0.00     0.131 C 
HETATM   22  C15 UNL     1      31.791   7.401  48.836  1.00  0.00     0.089 C 
HETATM   23  H12 UNL     1      34.108   8.795  48.946  1.00  0.00     0.159 HD
ENDROOT
TORSDOF 0
ENDMDL
MODEL 3
REMARK VINA RESULT:      -6.7      1.439      1.597
REMARK  0 active torsions:
REMARK  status: ('A' for Active; 'I' for Inactive)
ROOT
HETATM    1  C1  UNL     1      23.263  -0.323  53.873  1.00  0.00     0.036 C 
HETATM    2  C2  UNL     1      24.301   0.336  53.032  1.00  0.00    -0.018 C 
HETATM    3  C3  UNL     1      23.949   1.287  52.184  1.00  0.00     0.007 C 
HETATM    4  C4  UNL     1      24.664   2.122  51.239  1.00  0.00     0.138 C 
HETATM    5  N1  UNL     1      25.884   2.535  51.213  1.00  0.00    -0.224 NA
HETATM    6  C5  UNL     1      26.468   3.351  50.235  1.00  0.00     0.231 C 
HETATM    7  N2  UNL     1      26.387   4.410  49.570  1.00  0.00    -0.257 NA
HETATM    8  C6  UNL     1      25.401   5.443  49.577  1.00  0.00     0.317 C 
HETATM    9  O1  UNL     1      25.122   5.856  50.855  1.00  0.00    -0.369 OA
HETATM   10  C7  UNL     1      24.228   6.910  50.915  1.00  0.00     0.189 C 
HETATM   11  C8  UNL     1      22.875   6.653  50.341  1.00  0.00     0.146 C 
HETATM   12  N3  UNL     1      22.114   5.614  50.987  1.00  0.00    -0.389 N 
HETATM   13  C9  UNL     1      22.147   4.214  51.199  1.00  0.00     0.041 C 
HETATM   14  C10 UNL     1      21.713   3.634  50.055  1.00  0.00     0.117 C 
HETATM   15  O2  UNL     1      20.584   4.123  49.416  1.00  0.00    -0.347 OA
HETATM   16  C11 UNL     1      19.919   3.180  48.567  1.00  0.00     0.201 C 
HETATM   17  C12 UNL     1      20.469   1.814  48.577  1.00  0.00     0.197 C 
HETATM   18  O3  UNL     1      21.471   1.482  49.442  1.00  0.00    -0.358 OA
HETATM   19  C13 UNL     1      22.448   2.422  49.432  1.00  0.00     0.285 C 
HETATM   20  N4  UNL     1      23.465   2.234  50.483  1.00  0.00    -0.324 N 
HETATM   21  C14 UNL     1      22.733   1.981  51.754  1.00  0.00     0.131 C 
HETATM   22  C15 UNL     1      22.557   3.381  52.399  1.00  0.00     0.089 C 
HETATM   23  H12 UNL     1      21.194   5.550  51.527  1.00  0.00     0.159 HD
ENDROOT
TORSDOF 0
ENDMDL
MODEL 4
REMARK VINA RESULT:      -6.5      2.141      4.846
REMARK  0 active torsions:
REMARK  status: ('A' for Active; 'I' for Inactive)
ROOT
HETATM    1  C1  UNL     1      27.171   4.358  48.956  1.00  0.00     0.036 C 
HETATM    2  C2  UNL     1      26.518   3.591  50.053  1.00  0.00    -0.018 C 
HETATM    3  C3  UNL     1      25.212   3.691  50.234  1.00  0.00     0.007 C 
HETATM    4  C4  UNL     1      24.269   3.110  51.168  1.00  0.00     0.138 C 
HETATM    5  N1  UNL     1      24.287   2.002  51.827  1.00  0.00    -0.224 NA
HETATM    6  C5  UNL     1      23.302   1.541  52.711  1.00  0.00     0.231 C 
HETATM    7  N2  UNL     1      22.084   1.308  52.893  1.00  0.00    -0.257 NA
HETATM    8  C6  UNL     1      20.962   1.475  52.024  1.00  0.00     0.317 C 
HETATM    9  O1  UNL     1      21.203   0.928  50.790  1.00  0.00    -0.369 OA
HETATM   10  C7  UNL     1      20.119   0.993  49.933  1.00  0.00     0.189 C 
HETATM   11  C8  UNL     1      19.628   2.363  49.604  1.00  0.00     0.146 C 
HETATM   12  N3  UNL     1      20.569   3.212  48.917  1.00  0.00    -0.389 N 
HETATM   13  C9  UNL     1      21.814   3.851  49.133  1.00  0.00     0.041 C 
HETATM   14  C10 UNL     1      21.565   4.956  49.875  1.00  0.00     0.117 C 
HETATM   15  O2  UNL     1      20.506   5.788  49.542  1.00  0.00    -0.347 OA
HETATM   16  C11 UNL     1      20.631   7.136  50.014  1.00  0.00     0.201 C 
HETATM   17  C12 UNL     1      21.899   7.461  50.688  1.00  0.00     0.197 C 
HETATM   18  O3  UNL     1      22.909   6.544  50.733  1.00  0.00    -0.358 OA
HETATM   19  C13 UNL     1      22.439   5.325  51.098  1.00  0.00     0.285 C 
HETATM   20  N4  UNL     1      23.433   4.244  50.977  1.00  0.00    -0.324 N 
HETATM   21  C14 UNL     1      24.071   4.389  49.640  1.00  0.00     0.131 C 
HETATM   22  C15 UNL     1      23.224   3.499  48.693  1.00  0.00     0.089 C 
HETATM   23  H12 UNL     1      20.624   3.697  47.968  1.00  0.00     0.159 HD
ENDROOT
TORSDOF 0
ENDMDL
MODEL 5
REMARK VINA RESULT:      -6.5      2.198      4.871
REMARK  0 active torsions:
REMARK  status: ('A' for Active; 'I' for Inactive)
ROOT
HETATM    1  C1  UNL     1      26.281   1.255  51.756  1.00  0.00     0.036 C 
HETATM    2  C2  UNL     1      24.888   1.341  52.275  1.00  0.00    -0.018 C 
HETATM    3  C3  UNL     1      24.061   2.248  51.783  1.00  0.00     0.007 C 
HETATM    4  C4  UNL     1      22.681   2.610  52.038  1.00  0.00     0.138 C 
HETATM    5  N1  UNL     1      21.683   1.925  52.481  1.00  0.00    -0.224 NA
HETATM    6  C5  UNL     1      20.378   2.390  52.686  1.00  0.00     0.231 C 
HETATM    7  N2  UNL     1      19.392   2.991  52.200  1.00  0.00    -0.257 NA
HETATM    8  C6  UNL     1      19.198   3.575  50.911  1.00  0.00     0.317 C 
HETATM    9  O1  UNL     1      19.555   2.706  49.913  1.00  0.00    -0.369 OA
HETATM   10  C7  UNL     1      19.314   3.193  48.640  1.00  0.00     0.189 C 
HETATM   11  C8  UNL     1      20.038   4.445  48.272  1.00  0.00     0.146 C 
HETATM   12  N3  UNL     1      21.476   4.350  48.259  1.00  0.00    -0.389 N 
HETATM   13  C9  UNL     1      22.559   4.139  49.146  1.00  0.00     0.041 C 
HETATM   14  C10 UNL     1      22.777   5.313  49.785  1.00  0.00     0.117 C 
HETATM   15  O2  UNL     1      22.806   6.497  49.064  1.00  0.00    -0.347 OA
HETATM   16  C11 UNL     1      23.534   7.562  49.689  1.00  0.00     0.201 C 
HETATM   17  C12 UNL     1      24.222   7.214  50.943  1.00  0.00     0.197 C 
HETATM   18  O3  UNL     1      24.240   5.923  51.383  1.00  0.00    -0.358 OA
HETATM   19  C13 UNL     1      23.001   5.374  51.315  1.00  0.00     0.285 C 
HETATM   20  N4  UNL     1      22.978   3.925  51.586  1.00  0.00    -0.324 N 
HETATM   21  C14 UNL     1      24.072   3.316  50.781  1.00  0.00     0.131 C 
HETATM   22  C15 UNL     1      23.405   2.913  49.440  1.00  0.00     0.089 C 
HETATM   23  H12 UNL     1      22.251   4.447  47.531  1.00  0.00     0.159 HD
ENDROOT
TORSDOF 0
ENDMDL
MODEL 6
REMARK VINA RESULT:      -6.5      4.749      7.348
REMARK  0 active torsions:
REMARK  status: ('A' for Active; 'I' for Inactive)
ROOT
HETATM    1  C1  UNL     1      24.698   4.670  49.806  1.00  0.00     0.036 C 
HETATM    2  C2  UNL     1      26.102   4.612  49.312  1.00  0.00    -0.018 C 
HETATM    3  C3  UNL     1      26.675   5.705  48.837  1.00  0.00     0.007 C 
HETATM    4  C4  UNL     1      27.981   6.011  48.290  1.00  0.00     0.138 C 
HETATM    5  N1  UNL     1      29.138   5.475  48.480  1.00  0.00    -0.224 NA
HETATM    6  C5  UNL     1      30.346   5.865  47.888  1.00  0.00     0.231 C 
HETATM    7  N2  UNL     1      31.133   6.808  47.637  1.00  0.00    -0.257 NA
HETATM    8  C6  UNL     1      31.053   8.199  47.953  1.00  0.00     0.317 C 
HETATM    9  O1  UNL     1      30.750   8.391  49.276  1.00  0.00    -0.369 OA
HETATM   10  C7  UNL     1      30.737   9.722  49.655  1.00  0.00     0.189 C 
HETATM   11  C8  UNL     1      29.748  10.591  48.952  1.00  0.00     0.146 C 
HETATM   12  N3  UNL     1      28.364  10.240  49.146  1.00  0.00    -0.389 N 
HETATM   13  C9  UNL     1      27.457   9.194  48.851  1.00  0.00     0.041 C 
HETATM   14  C10 UNL     1      27.099   9.339  47.553  1.00  0.00     0.117 C 
HETATM   15  O2  UNL     1      26.758  10.592  47.066  1.00  0.00    -0.347 OA
HETATM   16  C11 UNL     1      25.922  10.575  45.902  1.00  0.00     0.201 C 
HETATM   17  C12 UNL     1      25.470   9.246  45.460  1.00  0.00     0.197 C 
HETATM   18  O3  UNL     1      25.753   8.139  46.207  1.00  0.00    -0.358 OA
HETATM   19  C13 UNL     1      27.056   8.133  46.584  1.00  0.00     0.285 C 
HETATM   20  N4  UNL     1      27.387   7.075  47.556  1.00  0.00    -0.324 N 
HETATM   21  C14 UNL     1      26.339   7.113  48.612  1.00  0.00     0.131 C 
HETATM   22  C15 UNL     1      26.902   8.065  49.700  1.00  0.00     0.089 C 
HETATM   23  H12 UNL     1      27.502  10.701  49.576  1.00  0.00     0.159 HD
ENDROOT
TORSDOF 0
ENDMDL
MODEL 7
REMARK VINA RESULT:      -6.4      4.043      4.892
REMARK  0 active torsions:
REMARK  status: ('A' for Active; 'I' for Inactive)
ROOT
HETATM    1  C1  UNL     1      22.620  -0.513  54.130  1.00  0.00     0.036 C 
HETATM    2  C2  UNL     1      22.688  -0.196  52.676  1.00  0.00    -0.018 C 
HETATM    3  C3  UNL     1      21.644   0.348  52.075  1.00  0.00     0.007 C 
HETATM    4  C4  UNL     1      21.361   0.778  50.721  1.00  0.00     0.138 C 
HETATM    5  N1  UNL     1      22.132   1.184  49.771  1.00  0.00    -0.224 NA
HETATM    6  C5  UNL     1      21.737   1.580  48.487  1.00  0.00     0.231 C 
HETATM    7  N2  UNL     1      20.976   2.302  47.801  1.00  0.00    -0.257 NA
HETATM    8  C6  UNL     1      19.966   3.231  48.196  1.00  0.00     0.317 C 
HETATM    9  O1  UNL     1      20.431   4.093  49.156  1.00  0.00    -0.369 OA
HETATM   10  C7  UNL     1      19.516   5.065  49.520  1.00  0.00     0.189 C 
HETATM   11  C8  UNL     1      18.234   4.570  50.103  1.00  0.00     0.146 C 
HETATM   12  N3  UNL     1      18.356   3.836  51.337  1.00  0.00    -0.389 N 
HETATM   13  C9  UNL     1      18.897   2.626  51.832  1.00  0.00     0.041 C 
HETATM   14  C10 UNL     1      18.035   1.640  51.489  1.00  0.00     0.117 C 
HETATM   15  O2  UNL     1      16.672   1.817  51.678  1.00  0.00    -0.347 OA
HETATM   16  C11 UNL     1      15.920   0.602  51.790  1.00  0.00     0.201 C 
HETATM   17  C12 UNL     1      16.711  -0.640  51.789  1.00  0.00     0.197 C 
HETATM   18  O3  UNL     1      18.074  -0.588  51.800  1.00  0.00    -0.358 OA
HETATM   19  C13 UNL     1      18.530   0.304  50.885  1.00  0.00     0.285 C 
HETATM   20  N4  UNL     1      19.979   0.559  50.976  1.00  0.00    -0.324 N 
HETATM   21  C14 UNL     1      20.289   0.792  52.413  1.00  0.00     0.131 C 
HETATM   22  C15 UNL     1      20.169   2.326  52.606  1.00  0.00     0.089 C 
HETATM   23  H12 UNL     1      18.026   3.958  52.346  1.00  0.00     0.159 HD
ENDROOT
TORSDOF 0
ENDMDL
MODEL 8
REMARK VINA RESULT:      -6.4      2.088      5.030
REMARK  0 active torsions:
REMARK  status: ('A' for Active; 'I' for Inactive)
ROOT
HETATM    1  C1  UNL     1      24.545   7.389  50.840  1.00  0.00     0.036 C 
HETATM    2  C2  UNL     1      24.044   6.394  49.851  1.00  0.00    -0.018 C 
HETATM    3  C3  UNL     1      23.890   5.132  50.212  1.00  0.00     0.007 C 
HETATM    4  C4  UNL     1      23.439   3.931  49.539  1.00  0.00     0.138 C 
HETATM    5  N1  UNL     1      22.641   3.755  48.542  1.00  0.00    -0.224 NA
HETATM    6  C5  UNL     1      22.274   2.527  47.974  1.00  0.00     0.231 C 
HETATM    7  N2  UNL     1      21.835   1.371  48.173  1.00  0.00    -0.257 NA
HETATM    8  C6  UNL     1      21.444   0.716  49.381  1.00  0.00     0.317 C 
HETATM    9  O1  UNL     1      20.600   1.502  50.121  1.00  0.00    -0.369 OA
HETATM   10  C7  UNL     1      20.129   0.884  51.266  1.00  0.00     0.189 C 
HETATM   11  C8  UNL     1      21.164   0.472  52.259  1.00  0.00     0.146 C 
HETATM   12  N3  UNL     1      21.939   1.545  52.829  1.00  0.00    -0.389 N 
HETATM   13  C9  UNL     1      22.886   2.524  52.443  1.00  0.00     0.041 C 
HETATM   14  C10 UNL     1      24.081   1.896  52.339  1.00  0.00     0.117 C 
HETATM   15  O2  UNL     1      24.489   1.017  53.332  1.00  0.00    -0.347 OA
HETATM   16  C11 UNL     1      25.906   0.822  53.414  1.00  0.00     0.201 C 
HETATM   17  C12 UNL     1      26.719   1.653  52.510  1.00  0.00     0.197 C 
HETATM   18  O3  UNL     1      26.129   2.617  51.746  1.00  0.00    -0.358 OA
HETATM   19  C13 UNL     1      25.020   2.134  51.132  1.00  0.00     0.285 C 
HETATM   20  N4  UNL     1      24.222   3.168  50.449  1.00  0.00    -0.324 N 
HETATM   21  C14 UNL     1      24.071   4.300  51.404  1.00  0.00     0.131 C 
HETATM   22  C15 UNL     1      22.750   4.010  52.164  1.00  0.00     0.089 C 
HETATM   23  H12 UNL     1      22.090   1.959  53.801  1.00  0.00     0.159 HD
ENDROOT
TORSDOF 0
ENDMDL
MODEL 9
REMARK VINA RESULT:      -6.4      2.472      4.238
REMARK  0 active torsions:
REMARK  status: ('A' for Active; 'I' for Inactive)
ROOT
HETATM    1  C1  UNL     1      18.275  -0.890  53.203  1.00  0.00     0.036 C 
HETATM    2  C2  UNL     1      19.764  -0.922  53.236  1.00  0.00    -0.018 C 
HETATM    3  C3  UNL     1      20.452   0.033  52.634  1.00  0.00     0.007 C 
HETATM    4  C4  UNL     1      21.864   0.317  52.467  1.00  0.00     0.138 C 
HETATM    5  N1  UNL     1      22.890   0.015  53.186  1.00  0.00    -0.224 NA
HETATM    6  C5  UNL     1      24.224   0.351  52.919  1.00  0.00     0.231 C 
HETATM    7  N2  UNL     1      25.037   1.261  52.636  1.00  0.00    -0.257 NA
HETATM    8  C6  UNL     1      24.838   2.660  52.427  1.00  0.00     0.317 C 
HETATM    9  O1  UNL     1      24.094   3.212  53.438  1.00  0.00    -0.369 OA
HETATM   10  C7  UNL     1      23.936   4.582  53.326  1.00  0.00     0.189 C 
HETATM   11  C8  UNL     1      23.241   5.061  52.096  1.00  0.00     0.146 C 
HETATM   12  N3  UNL     1      21.878   4.616  51.940  1.00  0.00    -0.389 N 
HETATM   13  C9  UNL     1      21.141   3.425  51.735  1.00  0.00     0.041 C 
HETATM   14  C10 UNL     1      21.250   3.116  50.422  1.00  0.00     0.117 C 
HETATM   15  O2  UNL     1      21.083   4.104  49.463  1.00  0.00    -0.347 OA
HETATM   16  C11 UNL     1      20.700   3.624  48.168  1.00  0.00     0.201 C 
HETATM   17  C12 UNL     1      20.444   2.177  48.074  1.00  0.00     0.197 C 
HETATM   18  O3  UNL     1      20.465   1.400  49.196  1.00  0.00    -0.358 OA
HETATM   19  C13 UNL     1      21.558   1.674  49.951  1.00  0.00     0.285 C 
HETATM   20  N4  UNL     1      21.546   1.018  51.271  1.00  0.00    -0.324 N 
HETATM   21  C14 UNL     1      20.198   1.249  51.859  1.00  0.00     0.131 C 
HETATM   22  C15 UNL     1      20.340   2.553  52.686  1.00  0.00     0.089 C 
HETATM   23  H12 UNL     1      20.916   5.075  51.890  1.00  0.00     0.159 HD
ENDROOT
TORSDOF 0
ENDMDL
