MODEL 1
REMARK VINA RESULT:      -9.3      0.000      0.000
REMARK  6 active torsions:
REMARK  status: ('A' for Active; 'I' for Inactive)
REMARK    1  A    between atoms: O1_2  and  C2_3 
REMARK    2  A    between atoms: C7_8  and  N1_9 
REMARK    3  A    between atoms: C11_14  and  C12_15 
REMARK       I    between atoms: C12_15  and  N2_17 
REMARK    4  A    between atoms: N2_17  and  C13_18 
REMARK    5  A    between atoms: C16_21  and  C17_22 
REMARK    6  A    between atoms: C17_22  and  N3_23 
ROOT
HETATM    1  C12 UNL     1      23.839   2.207  50.843  1.00  0.00     0.260 C 
HETATM    2  O3  UNL     1      24.707   2.588  51.716  1.00  0.00    -0.267 OA
HETATM    3  N2  UNL     1      23.866   2.677  49.565  1.00  0.00    -0.323 N 
HETATM    4  H10 UNL     1      23.057   2.185  49.144  1.00  0.00     0.169 HD
ENDROOT
BRANCH   1   5
HETATM    5  C11 UNL     1      23.468   1.513  51.985  1.00  0.00     0.084 A 
HETATM    6  C10 UNL     1      23.117   0.855  53.071  1.00  0.00     0.125 A 
HETATM    7  C9  UNL     1      23.462  -0.003  54.059  1.00  0.00     0.058 A 
HETATM    8  O2  UNL     1      21.934   1.395  52.958  1.00  0.00    -0.191 OA
HETATM    9  C8  UNL     1      24.766  -0.426  53.945  1.00  0.00     0.099 A 
HETATM   10  N1  UNL     1      25.485   0.070  52.884  1.00  0.00    -0.329 N 
HETATM   11  C25 UNL     1      24.864   0.959  52.001  1.00  0.00     0.116 A 
BRANCH  10  12
HETATM   12  C7  UNL     1      26.796  -0.538  53.003  1.00  0.00     0.071 A 
HETATM   13  C2  UNL     1      27.874   0.217  53.407  1.00  0.00     0.095 A 
HETATM   14  C3  UNL     1      29.088  -0.432  53.475  1.00  0.00     0.039 A 
HETATM   15  C4  UNL     1      29.101  -1.768  53.133  1.00  0.00     0.003 A 
HETATM   16  C5  UNL     1      28.018  -2.519  52.730  1.00  0.00     0.002 A 
HETATM   17  C6  UNL     1      26.807  -1.865  52.664  1.00  0.00     0.033 A 
BRANCH  13  18
HETATM   18  O1  UNL     1      27.701   1.565  53.720  1.00  0.00    -0.354 OA
HETATM   19  C1  UNL     1      28.738   2.501  53.695  1.00  0.00     0.210 C 
ENDBRANCH  13  18
ENDBRANCH  10  12
ENDBRANCH   1   5
BRANCH   3  20
HETATM   20  C13 UNL     1      24.958   3.611  49.352  1.00  0.00     0.035 A 
HETATM   21  C14 UNL     1      24.435   4.871  49.086  1.00  0.00     0.030 A 
HETATM   22  C15 UNL     1      25.322   5.911  48.839  1.00  0.00     0.011 A 
HETATM   23  C16 UNL     1      26.670   5.639  48.871  1.00  0.00    -0.030 A 
HETATM   24  C23 UNL     1      27.149   4.358  49.144  1.00  0.00     0.011 A 
HETATM   25  C24 UNL     1      26.300   3.309  49.392  1.00  0.00     0.030 A 
BRANCH  23  26
HETATM   26  C17 UNL     1      27.688   6.668  48.607  1.00  0.00     0.311 C 
BRANCH  26  27
HETATM   27  N3  UNL     1      27.116   7.989  48.442  1.00  0.00     0.096 N 
HETATM   28  C18 UNL     1      27.374   8.455  47.091  1.00  0.00     0.303 C 
HETATM   29  C19 UNL     1      27.216   9.968  47.025  1.00  0.00     0.302 C 
HETATM   30  N4  UNL     1      28.264  10.600  47.807  1.00  0.00     0.087 N 
HETATM   31  C20 UNL     1      27.789  11.794  48.483  1.00  0.00     0.310 C 
HETATM   32  C21 UNL     1      28.779   9.679  48.809  1.00  0.00     0.302 C 
HETATM   33  C22 UNL     1      27.653   8.911  49.428  1.00  0.00     0.303 C 
ENDBRANCH  26  27
ENDBRANCH  23  26
ENDBRANCH   3  20
TORSDOF 6
ENDMDL
MODEL 2
REMARK VINA RESULT:      -8.6      2.719      4.046
REMARK  6 active torsions:
REMARK  status: ('A' for Active; 'I' for Inactive)
REMARK    1  A    between atoms: O1_2  and  C2_3 
REMARK    2  A    between atoms: C7_8  and  N1_9 
REMARK    3  A    between atoms: C11_14  and  C12_15 
REMARK       I    between atoms: C12_15  and  N2_17 
REMARK    4  A    between atoms: N2_17  and  C13_18 
REMARK    5  A    between atoms: C16_21  and  C17_22 
REMARK    6  A    between atoms: C17_22  and  N3_23 
ROOT
HETATM    1  C12 UNL     1      23.571   3.647  50.214  1.00  0.00     0.260 C 
HETATM    2  O3  UNL     1      23.952   3.063  49.130  1.00  0.00    -0.267 OA
HETATM    3  N2  UNL     1      24.315   4.634  50.787  1.00  0.00    -0.323 N 
HETATM    4  H10 UNL     1      23.741   4.875  51.615  1.00  0.00     0.169 HD
ENDROOT
BRANCH   1   5
HETATM    5  C11 UNL     1      22.559   2.729  49.974  1.00  0.00     0.084 A 
HETATM    6  C10 UNL     1      21.599   1.857  49.746  1.00  0.00     0.125 A 
HETATM    7  C9  UNL     1      20.935   0.746  50.141  1.00  0.00     0.058 A 
HETATM    8  O2  UNL     1      21.311   2.528  48.664  1.00  0.00    -0.191 OA
HETATM    9  C8  UNL     1      21.439   0.232  51.314  1.00  0.00     0.099 A 
HETATM   10  N1  UNL     1      22.498   0.904  51.877  1.00  0.00    -0.329 N 
HETATM   11  C25 UNL     1      22.991   2.046  51.240  1.00  0.00     0.116 A 
BRANCH  10  12
HETATM   12  C7  UNL     1      22.824   0.152  53.074  1.00  0.00     0.071 A 
HETATM   13  C2  UNL     1      24.135  -0.159  53.359  1.00  0.00     0.095 A 
HETATM   14  C3  UNL     1      24.357  -0.892  54.505  1.00  0.00     0.039 A 
HETATM   15  C4  UNL     1      23.248  -1.239  55.248  1.00  0.00     0.003 A 
HETATM   16  C5  UNL     1      21.938  -0.924  54.957  1.00  0.00     0.002 A 
HETATM   17  C6  UNL     1      21.722  -0.190  53.812  1.00  0.00     0.033 A 
BRANCH  13  18
HETATM   18  O1  UNL     1      25.152   0.265  52.504  1.00  0.00    -0.354 OA
HETATM   19  C1  UNL     1      26.467  -0.202  52.581  1.00  0.00     0.210 C 
ENDBRANCH  13  18
ENDBRANCH  10  12
ENDBRANCH   1   5
BRANCH   3  20
HETATM   20  C13 UNL     1      25.525   4.910  50.031  1.00  0.00     0.035 A 
HETATM   21  C14 UNL     1      25.548   6.256  49.686  1.00  0.00     0.030 A 
HETATM   22  C15 UNL     1      26.626   6.724  48.942  1.00  0.00     0.011 A 
HETATM   23  C16 UNL     1      27.609   5.831  48.587  1.00  0.00    -0.030 A 
HETATM   24  C23 UNL     1      27.542   4.488  48.958  1.00  0.00     0.011 A 
HETATM   25  C24 UNL     1      26.494   3.994  49.692  1.00  0.00     0.030 A 
BRANCH  23  26
HETATM   26  C17 UNL     1      28.780   6.225  47.788  1.00  0.00     0.311 C 
BRANCH  26  27
HETATM   27  N3  UNL     1      30.012   6.184  48.547  1.00  0.00     0.096 N 
HETATM   28  C18 UNL     1      30.478   7.540  48.774  1.00  0.00     0.303 C 
HETATM   29  C19 UNL     1      31.957   7.528  49.138  1.00  0.00     0.302 C 
HETATM   30  N4  UNL     1      32.734   7.091  47.992  1.00  0.00     0.087 N 
HETATM   31  C20 UNL     1      33.872   6.280  48.388  1.00  0.00     0.310 C 
HETATM   32  C21 UNL     1      31.909   6.310  47.083  1.00  0.00     0.302 C 
HETATM   33  C22 UNL     1      31.017   5.392  47.859  1.00  0.00     0.303 C 
ENDBRANCH  26  27
ENDBRANCH  23  26
ENDBRANCH   3  20
TORSDOF 6
ENDMDL
MODEL 3
REMARK VINA RESULT:      -8.5      2.228      3.848
REMARK  6 active torsions:
REMARK  status: ('A' for Active; 'I' for Inactive)
REMARK    1  A    between atoms: O1_2  and  C2_3 
REMARK    2  A    between atoms: C7_8  and  N1_9 
REMARK    3  A    between atoms: C11_14  and  C12_15 
REMARK       I    between atoms: C12_15  and  N2_17 
REMARK    4  A    between atoms: N2_17  and  C13_18 
REMARK    5  A    between atoms: C16_21  and  C17_22 
REMARK    6  A    between atoms: C17_22  and  N3_23 
ROOT
HETATM    1  C12 UNL     1      21.747   0.003  52.510  1.00  0.00     0.260 C 
HETATM    2  O3  UNL     1      22.323   0.955  53.160  1.00  0.00    -0.267 OA
HETATM    3  N2  UNL     1      21.168   0.222  51.297  1.00  0.00    -0.323 N 
HETATM    4  H10 UNL     1      20.809  -0.721  51.062  1.00  0.00     0.169 HD
ENDROOT
BRANCH   1   5
HETATM    5  C11 UNL     1      22.192  -0.623  53.665  1.00  0.00     0.084 A 
HETATM    6  C10 UNL     1      22.616  -1.217  54.761  1.00  0.00     0.125 A 
HETATM    7  C9  UNL     1      23.643  -1.493  55.598  1.00  0.00     0.058 A 
HETATM    8  O2  UNL     1      21.396  -1.644  54.945  1.00  0.00    -0.191 OA
HETATM    9  C8  UNL     1      24.822  -0.926  55.173  1.00  0.00     0.099 A 
HETATM   10  N1  UNL     1      24.772  -0.196  54.009  1.00  0.00    -0.329 N 
HETATM   11  C25 UNL     1      23.551  -0.074  53.339  1.00  0.00     0.116 A 
BRANCH  10  12
HETATM   12  C7  UNL     1      26.130   0.268  53.800  1.00  0.00     0.071 A 
HETATM   13  C2  UNL     1      26.393   1.616  53.706  1.00  0.00     0.095 A 
HETATM   14  C3  UNL     1      27.706   1.973  53.487  1.00  0.00     0.039 A 
HETATM   15  C4  UNL     1      28.622   0.947  53.383  1.00  0.00     0.003 A 
HETATM   16  C5  UNL     1      28.352  -0.401  53.479  1.00  0.00     0.002 A 
HETATM   17  C6  UNL     1      27.039  -0.752  53.699  1.00  0.00     0.033 A 
BRANCH  13  18
HETATM   18  O1  UNL     1      25.353   2.538  53.831  1.00  0.00    -0.354 OA
HETATM   19  C1  UNL     1      24.782   3.206  52.746  1.00  0.00     0.210 C 
ENDBRANCH  13  18
ENDBRANCH  10  12
ENDBRANCH   1   5
BRANCH   3  20
HETATM   20  C13 UNL     1      21.299   1.607  50.875  1.00  0.00     0.035 A 
HETATM   21  C14 UNL     1      22.450   1.742  50.108  1.00  0.00     0.030 A 
HETATM   22  C15 UNL     1      22.765   3.004  49.615  1.00  0.00     0.011 A 
HETATM   23  C16 UNL     1      21.922   4.048  49.913  1.00  0.00    -0.030 A 
HETATM   24  C23 UNL     1      20.776   3.863  50.687  1.00  0.00     0.011 A 
HETATM   25  C24 UNL     1      20.436   2.632  51.188  1.00  0.00     0.030 A 
BRANCH  23  26
HETATM   26  C17 UNL     1      22.177   5.422  49.452  1.00  0.00     0.311 C 
BRANCH  26  27
HETATM   27  N3  UNL     1      23.589   5.742  49.406  1.00  0.00     0.096 N 
HETATM   28  C18 UNL     1      23.969   6.403  50.641  1.00  0.00     0.303 C 
HETATM   29  C19 UNL     1      25.280   7.153  50.446  1.00  0.00     0.302 C 
HETATM   30  N4  UNL     1      25.076   8.254  49.522  1.00  0.00     0.087 N 
HETATM   31  C20 UNL     1      26.231   8.463  48.667  1.00  0.00     0.310 C 
HETATM   32  C21 UNL     1      23.918   8.003  48.677  1.00  0.00     0.302 C 
HETATM   33  C22 UNL     1      23.894   6.568  48.251  1.00  0.00     0.303 C 
ENDBRANCH  26  27
ENDBRANCH  23  26
ENDBRANCH   3  20
TORSDOF 6
ENDMDL
MODEL 4
REMARK VINA RESULT:      -8.4      1.511      3.939
REMARK  6 active torsions:
REMARK  status: ('A' for Active; 'I' for Inactive)
REMARK    1  A    between atoms: O1_2  and  C2_3 
REMARK    2  A    between atoms: C7_8  and  N1_9 
REMARK    3  A    between atoms: C11_14  and  C12_15 
REMARK       I    between atoms: C12_15  and  N2_17 
REMARK    4  A    between atoms: N2_17  and  C13_18 
REMARK    5  A    between atoms: C16_21  and  C17_22 
REMARK    6  A    between atoms: C17_22  and  N3_23 
ROOT
HETATM    1  C12 UNL     1      26.615   2.018  51.045  1.00  0.00     0.260 C 
HETATM    2  O3  UNL     1      26.563   2.866  52.014  1.00  0.00    -0.267 OA
HETATM    3  N2  UNL     1      26.435   2.407  49.752  1.00  0.00    -0.323 N 
HETATM    4  H10 UNL     1      26.535   1.508  49.247  1.00  0.00     0.169 HD
ENDROOT
BRANCH   1   5
HETATM    5  C11 UNL     1      26.842   1.236  52.167  1.00  0.00     0.084 A 
HETATM    6  C10 UNL     1      27.057   0.492  53.233  1.00  0.00     0.125 A 
HETATM    7  C9  UNL     1      26.546  -0.275  54.224  1.00  0.00     0.058 A 
HETATM    8  O2  UNL     1      28.332   0.734  53.086  1.00  0.00    -0.191 OA
HETATM    9  C8  UNL     1      25.176  -0.367  54.153  1.00  0.00     0.099 A 
HETATM   10  N1  UNL     1      24.565   0.310  53.123  1.00  0.00    -0.329 N 
HETATM   11  C25 UNL     1      25.355   1.037  52.228  1.00  0.00     0.116 A 
BRANCH  10  12
HETATM   12  C7  UNL     1      23.148   0.050  53.293  1.00  0.00     0.071 A 
HETATM   13  C2  UNL     1      22.226   0.699  52.503  1.00  0.00     0.095 A 
HETATM   14  C3  UNL     1      20.900   0.410  52.742  1.00  0.00     0.039 A 
HETATM   15  C4  UNL     1      20.630  -0.497  53.745  1.00  0.00     0.003 A 
HETATM   16  C5  UNL     1      21.558  -1.145  54.532  1.00  0.00     0.002 A 
HETATM   17  C6  UNL     1      22.882  -0.853  54.289  1.00  0.00     0.033 A 
BRANCH  13  18
HETATM   18  O1  UNL     1      22.657   1.595  51.525  1.00  0.00    -0.354 OA
HETATM   19  C1  UNL     1      22.295   1.500  50.180  1.00  0.00     0.210 C 
ENDBRANCH  13  18
ENDBRANCH  10  12
ENDBRANCH   1   5
BRANCH   3  20
HETATM   20  C13 UNL     1      26.196   3.836  49.643  1.00  0.00     0.035 A 
HETATM   21  C14 UNL     1      27.235   4.418  48.925  1.00  0.00     0.030 A 
HETATM   22  C15 UNL     1      27.201   5.792  48.720  1.00  0.00     0.011 A 
HETATM   23  C16 UNL     1      26.144   6.502  49.237  1.00  0.00    -0.030 A 
HETATM   24  C23 UNL     1      25.123   5.874  49.951  1.00  0.00     0.011 A 
HETATM   25  C24 UNL     1      25.125   4.520  50.171  1.00  0.00     0.030 A 
BRANCH  23  26
HETATM   26  C17 UNL     1      26.026   7.961  49.087  1.00  0.00     0.311 C 
BRANCH  26  27
HETATM   27  N3  UNL     1      27.244   8.571  48.596  1.00  0.00     0.096 N 
HETATM   28  C18 UNL     1      27.914   9.248  49.692  1.00  0.00     0.303 C 
HETATM   29  C19 UNL     1      28.908  10.264  49.145  1.00  0.00     0.302 C 
HETATM   30  N4  UNL     1      28.190  11.333  48.476  1.00  0.00     0.087 N 
HETATM   31  C20 UNL     1      28.903  11.814  47.306  1.00  0.00     0.310 C 
HETATM   32  C21 UNL     1      26.872  10.879  48.057  1.00  0.00     0.302 C 
HETATM   33  C22 UNL     1      26.959   9.490  47.507  1.00  0.00     0.303 C 
ENDBRANCH  26  27
ENDBRANCH  23  26
ENDBRANCH   3  20
TORSDOF 6
ENDMDL
MODEL 5
REMARK VINA RESULT:      -8.4      2.285      3.394
REMARK  6 active torsions:
REMARK  status: ('A' for Active; 'I' for Inactive)
REMARK    1  A    between atoms: O1_2  and  C2_3 
REMARK    2  A    between atoms: C7_8  and  N1_9 
REMARK    3  A    between atoms: C11_14  and  C12_15 
REMARK       I    between atoms: C12_15  and  N2_17 
REMARK    4  A    between atoms: N2_17  and  C13_18 
REMARK    5  A    between atoms: C16_21  and  C17_22 
REMARK    6  A    between atoms: C17_22  and  N3_23 
ROOT
HETATM    1  C12 UNL     1      21.806   5.060  51.676  1.00  0.00     0.260 C 
HETATM    2  O3  UNL     1      22.370   4.179  50.923  1.00  0.00    -0.267 OA
HETATM    3  N2  UNL     1      22.126   6.381  51.584  1.00  0.00    -0.323 N 
HETATM    4  H10 UNL     1      21.511   6.796  52.307  1.00  0.00     0.169 HD
ENDROOT
BRANCH   1   5
HETATM    5  C11 UNL     1      21.216   3.871  52.078  1.00  0.00     0.084 A 
HETATM    6  C10 UNL     1      20.656   2.742  52.460  1.00  0.00     0.125 A 
HETATM    7  C9  UNL     1      20.806   1.442  52.806  1.00  0.00     0.058 A 
HETATM    8  O2  UNL     1      19.504   3.355  52.422  1.00  0.00    -0.191 OA
HETATM    9  C8  UNL     1      22.122   1.043  52.762  1.00  0.00     0.099 A 
HETATM   10  N1  UNL     1      23.042   1.993  52.387  1.00  0.00    -0.329 N 
HETATM   11  C25 UNL     1      22.598   3.282  52.079  1.00  0.00     0.116 A 
BRANCH  10  12
HETATM   12  C7  UNL     1      24.321   1.309  52.419  1.00  0.00     0.071 A 
HETATM   13  C2  UNL     1      25.419   1.867  51.805  1.00  0.00     0.095 A 
HETATM   14  C3  UNL     1      26.591   1.143  51.865  1.00  0.00     0.039 A 
HETATM   15  C4  UNL     1      26.545  -0.064  52.530  1.00  0.00     0.003 A 
HETATM   16  C5  UNL     1      25.442  -0.617  53.144  1.00  0.00     0.002 A 
HETATM   17  C6  UNL     1      24.274   0.111  53.082  1.00  0.00     0.033 A 
BRANCH  13  18
HETATM   18  O1  UNL     1      25.306   3.102  51.168  1.00  0.00    -0.354 OA
HETATM   19  C1  UNL     1      25.747   3.339  49.863  1.00  0.00     0.210 C 
ENDBRANCH  13  18
ENDBRANCH  10  12
ENDBRANCH   1   5
BRANCH   3  20
HETATM   20  C13 UNL     1      23.134   6.626  50.566  1.00  0.00     0.035 A 
HETATM   21  C14 UNL     1      24.368   6.803  51.180  1.00  0.00     0.030 A 
HETATM   22  C15 UNL     1      25.470   7.064  50.375  1.00  0.00     0.011 A 
HETATM   23  C16 UNL     1      25.281   7.135  49.015  1.00  0.00    -0.030 A 
HETATM   24  C23 UNL     1      24.022   6.949  48.443  1.00  0.00     0.011 A 
HETATM   25  C24 UNL     1      22.914   6.689  49.209  1.00  0.00     0.030 A 
BRANCH  23  26
HETATM   26  C17 UNL     1      26.380   7.422  48.080  1.00  0.00     0.311 C 
BRANCH  26  27
HETATM   27  N3  UNL     1      27.677   7.414  48.725  1.00  0.00     0.096 N 
HETATM   28  C18 UNL     1      28.228   8.757  48.706  1.00  0.00     0.303 C 
HETATM   29  C19 UNL     1      29.732   8.705  48.935  1.00  0.00     0.302 C 
HETATM   30  N4  UNL     1      30.373   8.060  47.803  1.00  0.00     0.087 N 
HETATM   31  C20 UNL     1      31.504   7.246  48.213  1.00  0.00     0.310 C 
HETATM   32  C21 UNL     1      29.427   7.210  47.097  1.00  0.00     0.302 C 
HETATM   33  C22 UNL     1      28.571   6.470  48.076  1.00  0.00     0.303 C 
ENDBRANCH  26  27
ENDBRANCH  23  26
ENDBRANCH   3  20
TORSDOF 6
ENDMDL
MODEL 6
REMARK VINA RESULT:      -8.3      5.718      9.208
REMARK  6 active torsions:
REMARK  status: ('A' for Active; 'I' for Inactive)
REMARK    1  A    between atoms: O1_2  and  C2_3 
REMARK    2  A    between atoms: C7_8  and  N1_9 
REMARK    3  A    between atoms: C11_14  and  C12_15 
REMARK       I    between atoms: C12_15  and  N2_17 
REMARK    4  A    between atoms: N2_17  and  C13_18 
REMARK    5  A    between atoms: C16_21  and  C17_22 
REMARK    6  A    between atoms: C17_22  and  N3_23 
ROOT
HETATM    1  C12 UNL     1      21.173  -0.146  52.767  1.00  0.00     0.260 C 
HETATM    2  O3  UNL     1      20.400   0.095  53.769  1.00  0.00    -0.267 OA
HETATM    3  N2  UNL     1      20.879   0.313  51.518  1.00  0.00    -0.323 N 
HETATM    4  H10 UNL     1      21.679  -0.048  50.968  1.00  0.00     0.169 HD
ENDROOT
BRANCH   1   5
HETATM    5  C11 UNL     1      21.816  -0.774  53.823  1.00  0.00     0.084 A 
HETATM    6  C10 UNL     1      22.427  -1.370  54.826  1.00  0.00     0.125 A 
HETATM    7  C9  UNL     1      23.573  -1.581  55.514  1.00  0.00     0.058 A 
HETATM    8  O2  UNL     1      21.283  -1.917  55.137  1.00  0.00    -0.191 OA
HETATM    9  C8  UNL     1      24.634  -0.888  54.978  1.00  0.00     0.099 A 
HETATM   10  N1  UNL     1      24.371  -0.119  53.869  1.00  0.00    -0.329 N 
HETATM   11  C25 UNL     1      23.069  -0.086  53.361  1.00  0.00     0.116 A 
BRANCH  10  12
HETATM   12  C7  UNL     1      25.644   0.480  53.518  1.00  0.00     0.071 A 
HETATM   13  C2  UNL     1      25.744   1.842  53.349  1.00  0.00     0.095 A 
HETATM   14  C3  UNL     1      26.984   2.329  52.997  1.00  0.00     0.039 A 
HETATM   15  C4  UNL     1      27.998   1.405  52.850  1.00  0.00     0.003 A 
HETATM   16  C5  UNL     1      27.892   0.042  53.022  1.00  0.00     0.002 A 
HETATM   17  C6  UNL     1      26.650  -0.439  53.374  1.00  0.00     0.033 A 
BRANCH  13  18
HETATM   18  O1  UNL     1      24.622   2.650  53.534  1.00  0.00    -0.354 OA
HETATM   19  C1  UNL     1      24.048   3.416  52.516  1.00  0.00     0.210 C 
ENDBRANCH  13  18
ENDBRANCH  10  12
ENDBRANCH   1   5
BRANCH   3  20
HETATM   20  C13 UNL     1      19.640   1.072  51.497  1.00  0.00     0.035 A 
HETATM   21  C14 UNL     1      18.580   0.206  51.252  1.00  0.00     0.030 A 
HETATM   22  C15 UNL     1      17.299   0.742  51.179  1.00  0.00     0.011 A 
HETATM   23  C16 UNL     1      17.150   2.097  51.352  1.00  0.00    -0.030 A 
HETATM   24  C23 UNL     1      18.245   2.927  51.596  1.00  0.00     0.011 A 
HETATM   25  C24 UNL     1      19.521   2.431  51.675  1.00  0.00     0.030 A 
BRANCH  23  26
HETATM   26  C17 UNL     1      15.839   2.761  51.276  1.00  0.00     0.311 C 
BRANCH  26  27
HETATM   27  N3  UNL     1      15.089   2.657  52.511  1.00  0.00     0.096 N 
HETATM   28  C18 UNL     1      13.920   1.825  52.290  1.00  0.00     0.303 C 
HETATM   29  C19 UNL     1      12.894   2.070  53.388  1.00  0.00     0.302 C 
HETATM   30  N4  UNL     1      12.374   3.421  53.273  1.00  0.00     0.087 N 
HETATM   31  C20 UNL     1      12.116   4.013  54.574  1.00  0.00     0.310 C 
HETATM   32  C21 UNL     1      13.315   4.271  52.559  1.00  0.00     0.302 C 
HETATM   33  C22 UNL     1      14.714   3.972  53.001  1.00  0.00     0.303 C 
ENDBRANCH  26  27
ENDBRANCH  23  26
ENDBRANCH   3  20
TORSDOF 6
ENDMDL
MODEL 7
REMARK VINA RESULT:      -8.3      2.094      3.412
REMARK  6 active torsions:
REMARK  status: ('A' for Active; 'I' for Inactive)
REMARK    1  A    between atoms: O1_2  and  C2_3 
REMARK    2  A    between atoms: C7_8  and  N1_9 
REMARK    3  A    between atoms: C11_14  and  C12_15 
REMARK       I    between atoms: C12_15  and  N2_17 
REMARK    4  A    between atoms: N2_17  and  C13_18 
REMARK    5  A    between atoms: C16_21  and  C17_22 
REMARK    6  A    between atoms: C17_22  and  N3_23 
ROOT
HETATM    1  C12 UNL     1      23.986   3.466  50.152  1.00  0.00     0.260 C 
HETATM    2  O3  UNL     1      24.089   3.311  48.877  1.00  0.00    -0.267 OA
HETATM    3  N2  UNL     1      24.867   4.241  50.845  1.00  0.00    -0.323 N 
HETATM    4  H10 UNL     1      24.508   4.151  51.813  1.00  0.00     0.169 HD
ENDROOT
BRANCH   1   5
HETATM    5  C11 UNL     1      22.925   2.628  49.846  1.00  0.00     0.084 A 
HETATM    6  C10 UNL     1      21.917   1.831  49.556  1.00  0.00     0.125 A 
HETATM    7  C9  UNL     1      21.132   0.790  49.917  1.00  0.00     0.058 A 
HETATM    8  O2  UNL     1      21.778   2.492  48.439  1.00  0.00    -0.191 OA
HETATM    9  C8  UNL     1      21.491   0.271  51.139  1.00  0.00     0.099 A 
HETATM   10  N1  UNL     1      22.552   0.870  51.777  1.00  0.00    -0.329 N 
HETATM   11  C25 UNL     1      23.190   1.949  51.159  1.00  0.00     0.116 A 
BRANCH  10  12
HETATM   12  C7  UNL     1      22.713   0.129  53.013  1.00  0.00     0.071 A 
HETATM   13  C2  UNL     1      23.968  -0.247  53.436  1.00  0.00     0.095 A 
HETATM   14  C3  UNL     1      24.031  -0.965  54.610  1.00  0.00     0.039 A 
HETATM   15  C4  UNL     1      22.835  -1.234  55.242  1.00  0.00     0.003 A 
HETATM   16  C5  UNL     1      21.582  -0.854  54.815  1.00  0.00     0.002 A 
HETATM   17  C6  UNL     1      21.524  -0.136  53.641  1.00  0.00     0.033 A 
BRANCH  13  18
HETATM   18  O1  UNL     1      25.088   0.102  52.682  1.00  0.00    -0.354 OA
HETATM   19  C1  UNL     1      26.322   0.438  53.246  1.00  0.00     0.210 C 
ENDBRANCH  13  18
ENDBRANCH  10  12
ENDBRANCH   1   5
BRANCH   3  20
HETATM   20  C13 UNL     1      25.873   4.829  49.978  1.00  0.00     0.035 A 
HETATM   21  C14 UNL     1      25.602   6.183  49.820  1.00  0.00     0.030 A 
HETATM   22  C15 UNL     1      26.447   6.931  49.008  1.00  0.00     0.011 A 
HETATM   23  C16 UNL     1      27.505   6.292  48.405  1.00  0.00    -0.030 A 
HETATM   24  C23 UNL     1      27.737   4.929  48.594  1.00  0.00     0.011 A 
HETATM   25  C24 UNL     1      26.923   4.163  49.388  1.00  0.00     0.030 A 
BRANCH  23  26
HETATM   26  C17 UNL     1      28.445   6.992  47.516  1.00  0.00     0.311 C 
BRANCH  26  27
HETATM   27  N3  UNL     1      28.599   8.391  47.858  1.00  0.00     0.096 N 
HETATM   28  C18 UNL     1      28.690   9.173  46.638  1.00  0.00     0.303 C 
HETATM   29  C19 UNL     1      29.308  10.532  46.937  1.00  0.00     0.302 C 
HETATM   30  N4  UNL     1      30.694  10.359  47.332  1.00  0.00     0.087 N 
HETATM   31  C20 UNL     1      31.086  11.306  48.361  1.00  0.00     0.310 C 
HETATM   32  C21 UNL     1      30.916   9.013  47.839  1.00  0.00     0.302 C 
HETATM   33  C22 UNL     1      29.766   8.592  48.699  1.00  0.00     0.303 C 
ENDBRANCH  26  27
ENDBRANCH  23  26
ENDBRANCH   3  20
TORSDOF 6
ENDMDL
MODEL 8
REMARK VINA RESULT:      -8.3      2.079      4.340
REMARK  6 active torsions:
REMARK  status: ('A' for Active; 'I' for Inactive)
REMARK    1  A    between atoms: O1_2  and  C2_3 
REMARK    2  A    between atoms: C7_8  and  N1_9 
REMARK    3  A    between atoms: C11_14  and  C12_15 
REMARK       I    between atoms: C12_15  and  N2_17 
REMARK    4  A    between atoms: N2_17  and  C13_18 
REMARK    5  A    between atoms: C16_21  and  C17_22 
REMARK    6  A    between atoms: C17_22  and  N3_23 
ROOT
HETATM    1  C12 UNL     1      25.922   2.528  51.128  1.00  0.00     0.260 C 
HETATM    2  O3  UNL     1      27.108   2.923  51.442  1.00  0.00    -0.267 OA
HETATM    3  N2  UNL     1      25.165   3.209  50.223  1.00  0.00    -0.323 N 
HETATM    4  H10 UNL     1      24.298   2.642  50.206  1.00  0.00     0.169 HD
ENDROOT
BRANCH   1   5
HETATM    5  C11 UNL     1      26.337   1.585  52.056  1.00  0.00     0.084 A 
HETATM    6  C10 UNL     1      26.731   0.688  52.937  1.00  0.00     0.125 A 
HETATM    7  C9  UNL     1      26.398  -0.290  53.812  1.00  0.00     0.058 A 
HETATM    8  O2  UNL     1      27.957   1.078  52.716  1.00  0.00    -0.191 OA
HETATM    9  C8  UNL     1      25.040  -0.504  53.857  1.00  0.00     0.099 A 
HETATM   10  N1  UNL     1      24.264   0.281  53.037  1.00  0.00    -0.329 N 
HETATM   11  C25 UNL     1      24.887   1.231  52.222  1.00  0.00     0.116 A 
BRANCH  10  12
HETATM   12  C7  UNL     1      22.901  -0.144  53.290  1.00  0.00     0.071 A 
HETATM   13  C2  UNL     1      21.870   0.343  52.520  1.00  0.00     0.095 A 
HETATM   14  C3  UNL     1      20.603  -0.097  52.840  1.00  0.00     0.039 A 
HETATM   15  C4  UNL     1      20.497  -0.978  53.895  1.00  0.00     0.003 A 
HETATM   16  C5  UNL     1      21.533  -1.463  54.662  1.00  0.00     0.002 A 
HETATM   17  C6  UNL     1      22.797  -1.021  54.338  1.00  0.00     0.033 A 
BRANCH  13  18
HETATM   18  O1  UNL     1      22.139   1.234  51.482  1.00  0.00    -0.354 OA
HETATM   19  C1  UNL     1      21.767   1.005  50.155  1.00  0.00     0.210 C 
ENDBRANCH  13  18
ENDBRANCH  10  12
ENDBRANCH   1   5
BRANCH   3  20
HETATM   20  C13 UNL     1      25.860   4.371  49.698  1.00  0.00     0.035 A 
HETATM   21  C14 UNL     1      27.002   3.953  49.024  1.00  0.00     0.030 A 
HETATM   22  C15 UNL     1      27.820   4.922  48.454  1.00  0.00     0.011 A 
HETATM   23  C16 UNL     1      27.457   6.241  48.588  1.00  0.00    -0.030 A 
HETATM   24  C23 UNL     1      26.300   6.613  49.274  1.00  0.00     0.011 A 
HETATM   25  C24 UNL     1      25.471   5.683  49.847  1.00  0.00     0.030 A 
BRANCH  23  26
HETATM   26  C17 UNL     1      28.264   7.340  48.036  1.00  0.00     0.311 C 
BRANCH  26  27
HETATM   27  N3  UNL     1      29.602   7.382  48.588  1.00  0.00     0.096 N 
HETATM   28  C18 UNL     1      29.844   8.697  49.154  1.00  0.00     0.303 C 
HETATM   29  C19 UNL     1      31.342   8.927  49.310  1.00  0.00     0.302 C 
HETATM   30  N4  UNL     1      31.960   9.003  47.998  1.00  0.00     0.087 N 
HETATM   31  C20 UNL     1      33.281   8.400  47.988  1.00  0.00     0.310 C 
HETATM   32  C21 UNL     1      31.138   8.326  47.006  1.00  0.00     0.302 C 
HETATM   33  C22 UNL     1      30.590   7.055  47.575  1.00  0.00     0.303 C 
ENDBRANCH  26  27
ENDBRANCH  23  26
ENDBRANCH   3  20
TORSDOF 6
ENDMDL
MODEL 9
REMARK VINA RESULT:      -8.1      3.403      9.337
REMARK  6 active torsions:
REMARK  status: ('A' for Active; 'I' for Inactive)
REMARK    1  A    between atoms: O1_2  and  C2_3 
REMARK    2  A    between atoms: C7_8  and  N1_9 
REMARK    3  A    between atoms: C11_14  and  C12_15 
REMARK       I    between atoms: C12_15  and  N2_17 
REMARK    4  A    between atoms: N2_17  and  C13_18 
REMARK    5  A    between atoms: C16_21  and  C17_22 
REMARK    6  A    between atoms: C17_22  and  N3_23 
ROOT
HETATM    1  C12 UNL     1      26.396   7.686  48.728  1.00  0.00     0.260 C 
HETATM    2  O3  UNL     1      26.726   7.661  49.973  1.00  0.00    -0.267 OA
HETATM    3  N2  UNL     1      25.758   6.634  48.143  1.00  0.00    -0.323 N 
HETATM    4  H10 UNL     1      25.645   6.971  47.170  1.00  0.00     0.169 HD
ENDROOT
BRANCH   1   5
HETATM    5  C11 UNL     1      27.008   8.915  48.919  1.00  0.00     0.084 A 
HETATM    6  C10 UNL     1      27.591  10.082  49.101  1.00  0.00     0.125 A 
HETATM    7  C9  UNL     1      28.727  10.817  49.084  1.00  0.00     0.058 A 
HETATM    8  O2  UNL     1      26.420  10.564  49.419  1.00  0.00    -0.191 OA
HETATM    9  C8  UNL     1      29.822  10.068  48.718  1.00  0.00     0.099 A 
HETATM   10  N1  UNL     1      29.596   8.741  48.437  1.00  0.00    -0.329 N 
HETATM   11  C25 UNL     1      28.295   8.240  48.538  1.00  0.00     0.116 A 
BRANCH  10  12
HETATM   12  C7  UNL     1      30.899   8.204  48.095  1.00  0.00     0.071 A 
HETATM   13  C2  UNL     1      31.206   7.919  46.784  1.00  0.00     0.095 A 
HETATM   14  C3  UNL     1      32.458   7.393  46.546  1.00  0.00     0.039 A 
HETATM   15  C4  UNL     1      33.273   7.205  47.642  1.00  0.00     0.003 A 
HETATM   16  C5  UNL     1      32.960   7.492  48.953  1.00  0.00     0.002 A 
HETATM   17  C6  UNL     1      31.708   8.019  49.185  1.00  0.00     0.033 A 
BRANCH  13  18
HETATM   18  O1  UNL     1      30.269   8.166  45.781  1.00  0.00    -0.354 OA
HETATM   19  C1  UNL     1      30.377   9.219  44.868  1.00  0.00     0.210 C 
ENDBRANCH  13  18
ENDBRANCH  10  12
ENDBRANCH   1   5
BRANCH   3  20
HETATM   20  C13 UNL     1      25.519   5.552  49.083  1.00  0.00     0.035 A 
HETATM   21  C14 UNL     1      26.559   4.635  48.996  1.00  0.00     0.030 A 
HETATM   22  C15 UNL     1      26.512   3.510  49.811  1.00  0.00     0.011 A 
HETATM   23  C16 UNL     1      25.441   3.365  50.660  1.00  0.00    -0.030 A 
HETATM   24  C23 UNL     1      24.419   4.314  50.714  1.00  0.00     0.011 A 
HETATM   25  C24 UNL     1      24.435   5.435  49.923  1.00  0.00     0.030 A 
BRANCH  23  26
HETATM   26  C17 UNL     1      25.292   2.203  51.550  1.00  0.00     0.311 C 
BRANCH  26  27
HETATM   27  N3  UNL     1      26.564   1.630  51.936  1.00  0.00     0.096 N 
HETATM   28  C18 UNL     1      26.458   0.182  51.926  1.00  0.00     0.303 C 
HETATM   29  C19 UNL     1      27.583  -0.427  52.754  1.00  0.00     0.302 C 
HETATM   30  N4  UNL     1      27.395  -0.084  54.152  1.00  0.00     0.087 N 
HETATM   31  C20 UNL     1      28.661   0.149  54.825  1.00  0.00     0.310 C 
HETATM   32  C21 UNL     1      26.580   1.114  54.279  1.00  0.00     0.302 C 
HETATM   33  C22 UNL     1      26.975   2.118  53.242  1.00  0.00     0.303 C 
ENDBRANCH  26  27
ENDBRANCH  23  26
ENDBRANCH   3  20
TORSDOF 6
ENDMDL
