MODEL 1
REMARK VINA RESULT:      -9.1      0.000      0.000
REMARK  6 active torsions:
REMARK  status: ('A' for Active; 'I' for Inactive)
REMARK    1  A    between atoms: C1_2  and  O2_3 
REMARK    2  A    between atoms: C1_2  and  C2_4 
REMARK    3  A    between atoms: C2_4  and  C3_5 
REMARK    4  A    between atoms: C3_5  and  C4_6 
REMARK    5  A    between atoms: C14_19  and  C15_20 
REMARK    6  A    between atoms: C15_20  and  O5_22 
ROOT
HETATM    1  C4  UNL     1      22.818   3.030  50.857  1.00  0.00    -0.022 A 
HETATM    2  C5  UNL     1      24.071   3.226  50.274  1.00  0.00    -0.026 A 
HETATM    3  C6  UNL     1      25.088   2.579  50.991  1.00  0.00     0.024 A 
HETATM    4  N1  UNL     1      24.389   1.996  52.018  1.00  0.00    -0.312 N 
HETATM    5  C7  UNL     1      23.070   2.239  51.959  1.00  0.00     0.047 A 
HETATM    6  C8  UNL     1      21.939   1.749  52.775  1.00  0.00     0.036 C 
HETATM    7  C9  UNL     1      21.790   0.601  53.453  1.00  0.00     0.076 C 
HETATM    8  C10 UNL     1      22.622  -0.601  53.677  1.00  0.00     0.245 C 
HETATM    9  O3  UNL     1      21.973  -1.642  53.931  1.00  0.00    -0.268 OA
HETATM   10  N2  UNL     1      24.038  -0.895  53.677  1.00  0.00    -0.322 N 
HETATM   11  C11 UNL     1      25.134   0.046  53.552  1.00  0.00     0.062 A 
HETATM   12  C12 UNL     1      26.168  -0.455  54.308  1.00  0.00     0.033 A 
HETATM   13  C13 UNL     1      27.306   0.307  54.393  1.00  0.00     0.021 A 
HETATM   14  C14 UNL     1      27.417   1.538  53.747  1.00  0.00     0.040 A 
HETATM   15  C16 UNL     1      26.378   2.076  52.968  1.00  0.00     0.050 A 
HETATM   16  C17 UNL     1      25.258   1.266  52.912  1.00  0.00     0.067 A 
HETATM   17  C18 UNL     1      26.416   2.666  50.426  1.00  0.00     0.058 C 
HETATM   18  C19 UNL     1      26.731   4.071  49.961  1.00  0.00     0.006 C 
HETATM   19  C20 UNL     1      25.709   4.674  49.088  1.00  0.00     0.005 C 
HETATM   20  C21 UNL     1      24.374   3.991  49.057  1.00  0.00     0.041 C 
HETATM   21  H8  UNL     1      24.379  -1.860  53.786  1.00  0.00     0.169 HD
ENDROOT
BRANCH   1  22
HETATM   22  C3  UNL     1      21.511   3.486  50.469  1.00  0.00     0.052 C 
BRANCH  22  23
HETATM   23  C2  UNL     1      20.949   4.697  51.120  1.00  0.00     0.115 C 
BRANCH  23  24
HETATM   24  C1  UNL     1      21.561   5.922  50.549  1.00  0.00     0.139 C 
HETATM   25  O1  UNL     1      21.903   6.518  49.519  1.00  0.00    -0.650 OA
BRANCH  24  26
HETATM   26  O2  UNL     1      21.896   6.760  51.583  1.00  0.00    -0.776 OA
HETATM   27  H1  UNL     1      22.654   7.390  51.662  1.00  0.00     0.167 HD
ENDBRANCH  24  26
ENDBRANCH  23  24
ENDBRANCH  22  23
ENDBRANCH   1  22
BRANCH  14  28
HETATM   28  C15 UNL     1      28.648   2.309  53.871  1.00  0.00     0.176 C 
HETATM   29  O4  UNL     1      29.383   2.204  54.885  1.00  0.00    -0.646 OA
BRANCH  28  30
HETATM   30  O5  UNL     1      29.025   3.178  52.856  1.00  0.00    -0.773 OA
HETATM   31  H11 UNL     1      30.005   3.359  52.635  1.00  0.00     0.167 HD
ENDBRANCH  28  30
ENDBRANCH  14  28
TORSDOF 6
ENDMDL
MODEL 2
REMARK VINA RESULT:      -9.1      2.270      5.297
REMARK  6 active torsions:
REMARK  status: ('A' for Active; 'I' for Inactive)
REMARK    1  A    between atoms: C1_2  and  O2_3 
REMARK    2  A    between atoms: C1_2  and  C2_4 
REMARK    3  A    between atoms: C2_4  and  C3_5 
REMARK    4  A    between atoms: C3_5  and  C4_6 
REMARK    5  A    between atoms: C14_19  and  C15_20 
REMARK    6  A    between atoms: C15_20  and  O5_22 
ROOT
HETATM    1  C4  UNL     1      25.302   2.607  50.920  1.00  0.00    -0.022 A 
HETATM    2  C5  UNL     1      24.044   3.124  51.232  1.00  0.00    -0.026 A 
HETATM    3  C6  UNL     1      23.365   2.321  52.160  1.00  0.00     0.024 A 
HETATM    4  N1  UNL     1      24.267   1.313  52.382  1.00  0.00    -0.312 N 
HETATM    5  C7  UNL     1      25.401   1.458  51.678  1.00  0.00     0.047 A 
HETATM    6  C8  UNL     1      26.663   0.689  51.669  1.00  0.00     0.036 C 
HETATM    7  C9  UNL     1      27.250  -0.028  52.639  1.00  0.00     0.076 C 
HETATM    8  C10 UNL     1      26.928  -0.353  54.045  1.00  0.00     0.245 C 
HETATM    9  O3  UNL     1      27.923  -0.614  54.760  1.00  0.00    -0.268 OA
HETATM   10  N2  UNL     1      25.720  -0.448  54.836  1.00  0.00    -0.322 N 
HETATM   11  C11 UNL     1      24.351  -0.346  54.371  1.00  0.00     0.062 A 
HETATM   12  C12 UNL     1      23.604  -1.182  55.166  1.00  0.00     0.033 A 
HETATM   13  C13 UNL     1      22.269  -1.300  54.869  1.00  0.00     0.021 A 
HETATM   14  C14 UNL     1      21.688  -0.608  53.806  1.00  0.00     0.040 A 
HETATM   15  C16 UNL     1      22.426   0.253  52.975  1.00  0.00     0.050 A 
HETATM   16  C17 UNL     1      23.762   0.338  53.322  1.00  0.00     0.067 A 
HETATM   17  C18 UNL     1      22.077   2.812  52.600  1.00  0.00     0.058 C 
HETATM   18  C19 UNL     1      21.250   3.319  51.438  1.00  0.00     0.006 C 
HETATM   19  C20 UNL     1      21.944   4.275  50.559  1.00  0.00     0.005 C 
HETATM   20  C21 UNL     1      23.434   4.355  50.707  1.00  0.00     0.041 C 
HETATM   21  H8  UNL     1      25.762  -0.619  55.850  1.00  0.00     0.169 HD
ENDROOT
BRANCH   1  22
HETATM   22  C3  UNL     1      26.333   3.091  50.043  1.00  0.00     0.052 C 
BRANCH  22  23
HETATM   23  C2  UNL     1      26.149   4.402  49.369  1.00  0.00     0.115 C 
BRANCH  23  24
HETATM   24  C1  UNL     1      27.456   4.940  48.921  1.00  0.00     0.139 C 
HETATM   25  O1  UNL     1      28.547   4.687  48.393  1.00  0.00    -0.650 OA
BRANCH  24  26
HETATM   26  O2  UNL     1      27.488   6.284  49.197  1.00  0.00    -0.776 OA
HETATM   27  H1  UNL     1      28.125   6.975  48.889  1.00  0.00     0.167 HD
ENDBRANCH  24  26
ENDBRANCH  23  24
ENDBRANCH  22  23
ENDBRANCH   1  22
BRANCH  14  28
HETATM   28  C15 UNL     1      20.265  -0.769  53.532  1.00  0.00     0.176 C 
HETATM   29  O4  UNL     1      19.647   0.040  52.796  1.00  0.00    -0.646 OA
BRANCH  28  30
HETATM   30  O5  UNL     1      19.571  -1.834  54.092  1.00  0.00    -0.773 OA
HETATM   31  H11 UNL     1      18.609  -2.051  53.827  1.00  0.00     0.167 HD
ENDBRANCH  28  30
ENDBRANCH  14  28
TORSDOF 6
ENDMDL
MODEL 3
REMARK VINA RESULT:      -9.0      2.349      4.836
REMARK  6 active torsions:
REMARK  status: ('A' for Active; 'I' for Inactive)
REMARK    1  A    between atoms: C1_2  and  O2_3 
REMARK    2  A    between atoms: C1_2  and  C2_4 
REMARK    3  A    between atoms: C2_4  and  C3_5 
REMARK    4  A    between atoms: C3_5  and  C4_6 
REMARK    5  A    between atoms: C14_19  and  C15_20 
REMARK    6  A    between atoms: C15_20  and  O5_22 
ROOT
HETATM    1  C4  UNL     1      21.025   0.633  51.214  1.00  0.00    -0.022 A 
HETATM    2  C5  UNL     1      21.341   0.200  52.503  1.00  0.00    -0.026 A 
HETATM    3  C6  UNL     1      22.690   0.425  52.814  1.00  0.00     0.024 A 
HETATM    4  N1  UNL     1      23.157   1.005  51.662  1.00  0.00    -0.312 N 
HETATM    5  C7  UNL     1      22.210   1.141  50.721  1.00  0.00     0.047 A 
HETATM    6  C8  UNL     1      22.226   1.783  49.390  1.00  0.00     0.036 C 
HETATM    7  C9  UNL     1      22.961   2.807  48.928  1.00  0.00     0.076 C 
HETATM    8  C10 UNL     1      24.006   3.686  49.493  1.00  0.00     0.245 C 
HETATM    9  O3  UNL     1      24.091   4.810  48.946  1.00  0.00    -0.268 OA
HETATM   10  N2  UNL     1      24.989   3.582  50.549  1.00  0.00    -0.322 N 
HETATM   11  C11 UNL     1      25.310   2.411  51.342  1.00  0.00     0.062 A 
HETATM   12  C12 UNL     1      26.653   2.487  51.626  1.00  0.00     0.033 A 
HETATM   13  C13 UNL     1      27.204   1.440  52.323  1.00  0.00     0.021 A 
HETATM   14  C14 UNL     1      26.443   0.344  52.729  1.00  0.00     0.040 A 
HETATM   15  C16 UNL     1      25.069   0.239  52.453  1.00  0.00     0.050 A 
HETATM   16  C17 UNL     1      24.565   1.321  51.754  1.00  0.00     0.067 A 
HETATM   17  C18 UNL     1      23.097   0.072  54.156  1.00  0.00     0.058 C 
HETATM   18  C19 UNL     1      22.543  -1.274  54.569  1.00  0.00     0.006 C 
HETATM   19  C20 UNL     1      21.092  -1.431  54.364  1.00  0.00     0.005 C 
HETATM   20  C21 UNL     1      20.432  -0.416  53.480  1.00  0.00     0.041 C 
HETATM   21  H8  UNL     1      25.571   4.388  50.813  1.00  0.00     0.169 HD
ENDROOT
BRANCH   1  22
HETATM   22  C3  UNL     1      19.786   0.616  50.486  1.00  0.00     0.052 C 
BRANCH  22  23
HETATM   23  C2  UNL     1      18.627   1.378  51.019  1.00  0.00     0.115 C 
BRANCH  23  24
HETATM   24  C1  UNL     1      19.033   2.763  51.360  1.00  0.00     0.139 C 
HETATM   25  O1  UNL     1      19.329   3.556  52.263  1.00  0.00    -0.650 OA
BRANCH  24  26
HETATM   26  O2  UNL     1      19.126   3.484  50.196  1.00  0.00    -0.776 OA
HETATM   27  H1  UNL     1      19.499   4.387  50.044  1.00  0.00     0.167 HD
ENDBRANCH  24  26
ENDBRANCH  23  24
ENDBRANCH  22  23
ENDBRANCH   1  22
BRANCH  14  28
HETATM   28  C15 UNL     1      27.078  -0.741  53.467  1.00  0.00     0.176 C 
HETATM   29  O4  UNL     1      26.972  -1.935  53.089  1.00  0.00    -0.646 OA
BRANCH  28  30
HETATM   30  O5  UNL     1      27.815  -0.460  54.610  1.00  0.00    -0.773 OA
HETATM   31  H11 UNL     1      27.738  -1.027  55.455  1.00  0.00     0.167 HD
ENDBRANCH  28  30
ENDBRANCH  14  28
TORSDOF 6
ENDMDL
MODEL 4
REMARK VINA RESULT:      -8.9      2.848      6.590
REMARK  6 active torsions:
REMARK  status: ('A' for Active; 'I' for Inactive)
REMARK    1  A    between atoms: C1_2  and  O2_3 
REMARK    2  A    between atoms: C1_2  and  C2_4 
REMARK    3  A    between atoms: C2_4  and  C3_5 
REMARK    4  A    between atoms: C3_5  and  C4_6 
REMARK    5  A    between atoms: C14_19  and  C15_20 
REMARK    6  A    between atoms: C15_20  and  O5_22 
ROOT
HETATM    1  C4  UNL     1      23.449   2.616  52.513  1.00  0.00    -0.022 A 
HETATM    2  C5  UNL     1      22.387   3.463  52.194  1.00  0.00    -0.026 A 
HETATM    3  C6  UNL     1      21.163   2.778  52.167  1.00  0.00     0.024 A 
HETATM    4  N1  UNL     1      21.543   1.498  52.480  1.00  0.00    -0.312 N 
HETATM    5  C7  UNL     1      22.864   1.378  52.690  1.00  0.00     0.047 A 
HETATM    6  C8  UNL     1      23.694   0.239  53.136  1.00  0.00     0.036 C 
HETATM    7  C9  UNL     1      23.383  -0.810  53.911  1.00  0.00     0.076 C 
HETATM    8  C10 UNL     1      22.168  -1.271  54.616  1.00  0.00     0.245 C 
HETATM    9  O3  UNL     1      22.389  -1.993  55.616  1.00  0.00    -0.268 OA
HETATM   10  N2  UNL     1      20.742  -1.098  54.444  1.00  0.00    -0.322 N 
HETATM   11  C11 UNL     1      20.060  -0.442  53.346  1.00  0.00     0.062 A 
HETATM   12  C12 UNL     1      18.870  -1.108  53.171  1.00  0.00     0.033 A 
HETATM   13  C13 UNL     1      18.071  -0.699  52.132  1.00  0.00     0.021 A 
HETATM   14  C14 UNL     1      18.444   0.344  51.284  1.00  0.00     0.040 A 
HETATM   15  C16 UNL     1      19.654   1.042  51.437  1.00  0.00     0.050 A 
HETATM   16  C17 UNL     1      20.416   0.593  52.500  1.00  0.00     0.067 A 
HETATM   17  C18 UNL     1      19.991   3.586  51.914  1.00  0.00     0.058 C 
HETATM   18  C19 UNL     1      20.223   4.562  50.781  1.00  0.00     0.006 C 
HETATM   19  C20 UNL     1      21.447   5.373  50.909  1.00  0.00     0.005 C 
HETATM   20  C21 UNL     1      22.453   4.904  51.917  1.00  0.00     0.041 C 
HETATM   21  H8  UNL     1      20.076  -1.466  55.136  1.00  0.00     0.169 HD
ENDROOT
BRANCH   1  22
HETATM   22  C3  UNL     1      24.855   2.876  52.663  1.00  0.00     0.052 C 
BRANCH  22  23
HETATM   23  C2  UNL     1      25.782   2.473  51.574  1.00  0.00     0.115 C 
BRANCH  23  24
HETATM   24  C1  UNL     1      26.994   1.831  52.138  1.00  0.00     0.139 C 
HETATM   25  O1  UNL     1      27.520   0.774  52.512  1.00  0.00    -0.650 OA
BRANCH  24  26
HETATM   26  O2  UNL     1      27.945   2.801  52.336  1.00  0.00    -0.776 OA
HETATM   27  H1  UNL     1      28.240   3.525  51.732  1.00  0.00     0.167 HD
ENDBRANCH  24  26
ENDBRANCH  23  24
ENDBRANCH  22  23
ENDBRANCH   1  22
BRANCH  14  28
HETATM   28  C15 UNL     1      17.559   0.737  50.195  1.00  0.00     0.176 C 
HETATM   29  O4  UNL     1      17.251   1.942  50.008  1.00  0.00    -0.646 OA
BRANCH  28  30
HETATM   30  O5  UNL     1      17.041  -0.228  49.341  1.00  0.00    -0.773 OA
HETATM   31  H11 UNL     1      17.127  -0.155  48.327  1.00  0.00     0.167 HD
ENDBRANCH  28  30
ENDBRANCH  14  28
TORSDOF 6
ENDMDL
MODEL 5
REMARK VINA RESULT:      -8.9      2.341      7.244
REMARK  6 active torsions:
REMARK  status: ('A' for Active; 'I' for Inactive)
REMARK    1  A    between atoms: C1_2  and  O2_3 
REMARK    2  A    between atoms: C1_2  and  C2_4 
REMARK    3  A    between atoms: C2_4  and  C3_5 
REMARK    4  A    between atoms: C3_5  and  C4_6 
REMARK    5  A    between atoms: C14_19  and  C15_20 
REMARK    6  A    between atoms: C15_20  and  O5_22 
ROOT
HETATM    1  C4  UNL     1      24.451   1.626  53.025  1.00  0.00    -0.022 A 
HETATM    2  C5  UNL     1      24.033   0.377  53.486  1.00  0.00    -0.026 A 
HETATM    3  C6  UNL     1      22.785   0.016  52.958  1.00  0.00     0.024 A 
HETATM    4  N1  UNL     1      22.482   1.098  52.170  1.00  0.00    -0.312 N 
HETATM    5  C7  UNL     1      23.436   2.043  52.188  1.00  0.00     0.047 A 
HETATM    6  C8  UNL     1      23.586   3.308  51.438  1.00  0.00     0.036 C 
HETATM    7  C9  UNL     1      23.136   3.655  50.223  1.00  0.00     0.076 C 
HETATM    8  C10 UNL     1      22.347   2.988  49.166  1.00  0.00     0.245 C 
HETATM    9  O3  UNL     1      22.552   3.425  48.010  1.00  0.00    -0.268 OA
HETATM   10  N2  UNL     1      21.367   1.925  49.120  1.00  0.00    -0.322 N 
HETATM   11  C11 UNL     1      20.758   1.237  50.241  1.00  0.00     0.062 A 
HETATM   12  C12 UNL     1      19.478   0.919  49.856  1.00  0.00     0.033 A 
HETATM   13  C13 UNL     1      18.677   0.310  50.791  1.00  0.00     0.021 A 
HETATM   14  C14 UNL     1      19.134   0.025  52.078  1.00  0.00     0.040 A 
HETATM   15  C16 UNL     1      20.437   0.340  52.500  1.00  0.00     0.050 A 
HETATM   16  C17 UNL     1      21.201   0.947  51.519  1.00  0.00     0.067 A 
HETATM   17  C18 UNL     1      22.297  -1.296  53.323  1.00  0.00     0.058 C 
HETATM   18  C19 UNL     1      22.491  -1.569  54.799  1.00  0.00     0.006 C 
HETATM   19  C20 UNL     1      23.855  -1.318  55.297  1.00  0.00     0.005 C 
HETATM   20  C21 UNL     1      24.754  -0.518  54.402  1.00  0.00     0.041 C 
HETATM   21  H8  UNL     1      21.008   1.573  48.222  1.00  0.00     0.169 HD
ENDROOT
BRANCH   1  22
HETATM   22  C3  UNL     1      25.647   2.380  53.285  1.00  0.00     0.052 C 
BRANCH  22  23
HETATM   23  C2  UNL     1      26.902   2.002  52.586  1.00  0.00     0.115 C 
BRANCH  23  24
HETATM   24  C1  UNL     1      28.062   2.132  53.500  1.00  0.00     0.139 C 
HETATM   25  O1  UNL     1      28.549   1.822  54.596  1.00  0.00    -0.650 OA
BRANCH  24  26
HETATM   26  O2  UNL     1      29.004   2.926  52.894  1.00  0.00    -0.776 OA
HETATM   27  H1  UNL     1      28.881   3.724  52.323  1.00  0.00     0.167 HD
ENDBRANCH  24  26
ENDBRANCH  23  24
ENDBRANCH  22  23
ENDBRANCH   1  22
BRANCH  14  28
HETATM   28  C15 UNL     1      18.243  -0.622  53.032  1.00  0.00     0.176 C 
HETATM   29  O4  UNL     1      17.006  -0.395  53.027  1.00  0.00    -0.646 OA
BRANCH  28  30
HETATM   30  O5  UNL     1      18.759  -1.506  53.970  1.00  0.00    -0.773 OA
HETATM   31  H11 UNL     1      19.756  -1.718  54.022  1.00  0.00     0.167 HD
ENDBRANCH  28  30
ENDBRANCH  14  28
TORSDOF 6
ENDMDL
MODEL 6
REMARK VINA RESULT:      -8.7      2.211      6.182
REMARK  6 active torsions:
REMARK  status: ('A' for Active; 'I' for Inactive)
REMARK    1  A    between atoms: C1_2  and  O2_3 
REMARK    2  A    between atoms: C1_2  and  C2_4 
REMARK    3  A    between atoms: C2_4  and  C3_5 
REMARK    4  A    between atoms: C3_5  and  C4_6 
REMARK    5  A    between atoms: C14_19  and  C15_20 
REMARK    6  A    between atoms: C15_20  and  O5_22 
ROOT
HETATM    1  C4  UNL     1      25.826   1.499  51.891  1.00  0.00    -0.022 A 
HETATM    2  C5  UNL     1      25.161   2.547  51.254  1.00  0.00    -0.026 A 
HETATM    3  C6  UNL     1      23.770   2.366  51.266  1.00  0.00     0.024 A 
HETATM    4  N1  UNL     1      23.640   1.173  51.931  1.00  0.00    -0.312 N 
HETATM    5  C7  UNL     1      24.819   0.653  52.309  1.00  0.00     0.047 A 
HETATM    6  C8  UNL     1      25.159  -0.538  53.116  1.00  0.00     0.036 C 
HETATM    7  C9  UNL     1      24.471  -1.151  54.092  1.00  0.00     0.076 C 
HETATM    8  C10 UNL     1      23.166  -0.934  54.751  1.00  0.00     0.245 C 
HETATM    9  O3  UNL     1      23.092  -1.382  55.918  1.00  0.00    -0.268 OA
HETATM   10  N2  UNL     1      21.910  -0.317  54.384  1.00  0.00    -0.322 N 
HETATM   11  C11 UNL     1      21.532   0.210  53.088  1.00  0.00     0.062 A 
HETATM   12  C12 UNL     1      20.180  -0.007  52.956  1.00  0.00     0.033 A 
HETATM   13  C13 UNL     1      19.602   0.358  51.766  1.00  0.00     0.021 A 
HETATM   14  C14 UNL     1      20.345   0.922  50.729  1.00  0.00     0.040 A 
HETATM   15  C16 UNL     1      21.727   1.155  50.834  1.00  0.00     0.050 A 
HETATM   16  C17 UNL     1      22.257   0.774  52.053  1.00  0.00     0.067 A 
HETATM   17  C18 UNL     1      22.987   3.436  50.689  1.00  0.00     0.058 C 
HETATM   18  C19 UNL     1      23.578   3.913  49.379  1.00  0.00     0.006 C 
HETATM   19  C20 UNL     1      25.014   4.235  49.433  1.00  0.00     0.005 C 
HETATM   20  C21 UNL     1      25.763   3.734  50.632  1.00  0.00     0.041 C 
HETATM   21  H8  UNL     1      21.148  -0.217  55.068  1.00  0.00     0.169 HD
ENDROOT
BRANCH   1  22
HETATM   22  C3  UNL     1      27.226   1.270  52.126  1.00  0.00     0.052 C 
BRANCH  22  23
HETATM   23  C2  UNL     1      27.846   1.812  53.362  1.00  0.00     0.115 C 
BRANCH  23  24
HETATM   24  C1  UNL     1      28.559   0.739  54.096  1.00  0.00     0.139 C 
HETATM   25  O1  UNL     1      28.464  -0.197  54.901  1.00  0.00    -0.650 OA
BRANCH  24  26
HETATM   26  O2  UNL     1      29.886   0.785  53.747  1.00  0.00    -0.776 OA
HETATM   27  H1  UNL     1      30.331   1.300  53.029  1.00  0.00     0.167 HD
ENDBRANCH  24  26
ENDBRANCH  23  24
ENDBRANCH  22  23
ENDBRANCH   1  22
BRANCH  14  28
HETATM   28  C15 UNL     1      19.681   1.291  49.484  1.00  0.00     0.176 C 
HETATM   29  O4  UNL     1      20.296   1.902  48.574  1.00  0.00    -0.646 OA
BRANCH  28  30
HETATM   30  O5  UNL     1      18.345   0.965  49.291  1.00  0.00    -0.773 OA
HETATM   31  H11 UNL     1      17.591   1.500  49.723  1.00  0.00     0.167 HD
ENDBRANCH  28  30
ENDBRANCH  14  28
TORSDOF 6
ENDMDL
MODEL 7
REMARK VINA RESULT:      -8.1      1.829      5.029
REMARK  6 active torsions:
REMARK  status: ('A' for Active; 'I' for Inactive)
REMARK    1  A    between atoms: C1_2  and  O2_3 
REMARK    2  A    between atoms: C1_2  and  C2_4 
REMARK    3  A    between atoms: C2_4  and  C3_5 
REMARK    4  A    between atoms: C3_5  and  C4_6 
REMARK    5  A    between atoms: C14_19  and  C15_20 
REMARK    6  A    between atoms: C15_20  and  O5_22 
ROOT
HETATM    1  C4  UNL     1      23.452   4.216  50.117  1.00  0.00    -0.022 A 
HETATM    2  C5  UNL     1      22.275   4.190  50.866  1.00  0.00    -0.026 A 
HETATM    3  C6  UNL     1      22.299   3.180  51.840  1.00  0.00     0.024 A 
HETATM    4  N1  UNL     1      23.531   2.612  51.636  1.00  0.00    -0.312 N 
HETATM    5  C7  UNL     1      24.221   3.199  50.644  1.00  0.00     0.047 A 
HETATM    6  C8  UNL     1      25.597   2.993  50.144  1.00  0.00     0.036 C 
HETATM    7  C9  UNL     1      26.697   2.565  50.781  1.00  0.00     0.076 C 
HETATM    8  C10 UNL     1      27.011   2.136  52.160  1.00  0.00     0.245 C 
HETATM    9  O3  UNL     1      28.210   2.289  52.492  1.00  0.00    -0.268 OA
HETATM   10  N2  UNL     1      26.268   1.566  53.263  1.00  0.00    -0.322 N 
HETATM   11  C11 UNL     1      24.889   1.117  53.258  1.00  0.00     0.062 A 
HETATM   12  C12 UNL     1      24.822   0.051  54.124  1.00  0.00     0.033 A 
HETATM   13  C13 UNL     1      23.611  -0.586  54.237  1.00  0.00     0.021 A 
HETATM   14  C14 UNL     1      22.494  -0.178  53.508  1.00  0.00     0.040 A 
HETATM   15  C16 UNL     1      22.533   0.907  52.616  1.00  0.00     0.050 A 
HETATM   16  C17 UNL     1      23.773   1.515  52.544  1.00  0.00     0.067 A 
HETATM   17  C18 UNL     1      21.150   3.118  52.716  1.00  0.00     0.058 C 
HETATM   18  C19 UNL     1      19.855   3.258  51.944  1.00  0.00     0.006 C 
HETATM   19  C20 UNL     1      19.804   4.414  51.033  1.00  0.00     0.005 C 
HETATM   20  C21 UNL     1      21.113   5.078  50.726  1.00  0.00     0.041 C 
HETATM   21  H8  UNL     1      26.708   1.423  54.182  1.00  0.00     0.169 HD
ENDROOT
BRANCH   1  22
HETATM   22  C3  UNL     1      23.870   5.071  49.039  1.00  0.00     0.052 C 
BRANCH  22  23
HETATM   23  C2  UNL     1      24.274   6.468  49.345  1.00  0.00     0.115 C 
BRANCH  23  24
HETATM   24  C1  UNL     1      25.741   6.549  49.541  1.00  0.00     0.139 C 
HETATM   25  O1  UNL     1      26.858   6.328  49.057  1.00  0.00    -0.650 OA
BRANCH  24  26
HETATM   26  O2  UNL     1      25.982   7.103  50.774  1.00  0.00    -0.776 OA
HETATM   27  H1  UNL     1      26.836   7.396  51.176  1.00  0.00     0.167 HD
ENDBRANCH  24  26
ENDBRANCH  23  24
ENDBRANCH  22  23
ENDBRANCH   1  22
BRANCH  14  28
HETATM   28  C15 UNL     1      21.232  -0.891  53.665  1.00  0.00     0.176 C 
HETATM   29  O4  UNL     1      21.108  -1.821  54.501  1.00  0.00    -0.646 OA
BRANCH  28  30
HETATM   30  O5  UNL     1      20.140  -0.544  52.879  1.00  0.00    -0.773 OA
HETATM   31  H11 UNL     1      19.603  -1.242  52.363  1.00  0.00     0.167 HD
ENDBRANCH  28  30
ENDBRANCH  14  28
TORSDOF 6
ENDMDL
MODEL 8
REMARK VINA RESULT:      -8.0      1.896      5.970
REMARK  6 active torsions:
REMARK  status: ('A' for Active; 'I' for Inactive)
REMARK    1  A    between atoms: C1_2  and  O2_3 
REMARK    2  A    between atoms: C1_2  and  C2_4 
REMARK    3  A    between atoms: C2_4  and  C3_5 
REMARK    4  A    between atoms: C3_5  and  C4_6 
REMARK    5  A    between atoms: C14_19  and  C15_20 
REMARK    6  A    between atoms: C15_20  and  O5_22 
ROOT
HETATM    1  C4  UNL     1      25.589   0.899  51.839  1.00  0.00    -0.022 A 
HETATM    2  C5  UNL     1      25.569   2.176  51.277  1.00  0.00    -0.026 A 
HETATM    3  C6  UNL     1      24.265   2.681  51.174  1.00  0.00     0.024 A 
HETATM    4  N1  UNL     1      23.517   1.655  51.694  1.00  0.00    -0.312 N 
HETATM    5  C7  UNL     1      24.263   0.612  52.092  1.00  0.00     0.047 A 
HETATM    6  C8  UNL     1      23.912  -0.646  52.784  1.00  0.00     0.036 C 
HETATM    7  C9  UNL     1      22.913  -0.917  53.638  1.00  0.00     0.076 C 
HETATM    8  C10 UNL     1      21.797  -0.146  54.227  1.00  0.00     0.245 C 
HETATM    9  O3  UNL     1      21.392  -0.578  55.331  1.00  0.00    -0.268 OA
HETATM   10  N2  UNL     1      21.028   1.018  53.845  1.00  0.00    -0.322 N 
HETATM   11  C11 UNL     1      21.089   1.744  52.592  1.00  0.00     0.062 A 
HETATM   12  C12 UNL     1      19.818   2.208  52.346  1.00  0.00     0.033 A 
HETATM   13  C13 UNL     1      19.616   2.880  51.166  1.00  0.00     0.021 A 
HETATM   14  C14 UNL     1      20.647   3.086  50.251  1.00  0.00     0.040 A 
HETATM   15  C16 UNL     1      21.956   2.623  50.474  1.00  0.00     0.050 A 
HETATM   16  C17 UNL     1      22.104   1.958  51.678  1.00  0.00     0.067 A 
HETATM   17  C18 UNL     1      24.146   4.030  50.666  1.00  0.00     0.058 C 
HETATM   18  C19 UNL     1      25.034   4.250  49.460  1.00  0.00     0.006 C 
HETATM   19  C20 UNL     1      26.437   3.842  49.646  1.00  0.00     0.005 C 
HETATM   20  C21 UNL     1      26.724   2.968  50.831  1.00  0.00     0.041 C 
HETATM   21  H8  UNL     1      20.331   1.425  54.483  1.00  0.00     0.169 HD
ENDROOT
BRANCH   1  22
HETATM   22  C3  UNL     1      26.681   0.015  52.142  1.00  0.00     0.052 C 
BRANCH  22  23
HETATM   23  C2  UNL     1      27.593   0.355  53.264  1.00  0.00     0.115 C 
BRANCH  23  24
HETATM   24  C1  UNL     1      26.880   0.244  54.560  1.00  0.00     0.139 C 
HETATM   25  O1  UNL     1      26.474  -0.515  55.449  1.00  0.00    -0.650 OA
BRANCH  24  26
HETATM   26  O2  UNL     1      26.508   1.504  54.958  1.00  0.00    -0.776 OA
HETATM   27  H1  UNL     1      25.869   2.132  54.541  1.00  0.00     0.167 HD
ENDBRANCH  24  26
ENDBRANCH  23  24
ENDBRANCH  22  23
ENDBRANCH   1  22
BRANCH  14  28
HETATM   28  C15 UNL     1      20.378   3.806  49.012  1.00  0.00     0.176 C 
HETATM   29  O4  UNL     1      21.293   4.041  48.182  1.00  0.00    -0.646 OA
BRANCH  28  30
HETATM   30  O5  UNL     1      19.090   4.244  48.733  1.00  0.00    -0.773 OA
HETATM   31  H11 UNL     1      18.375   4.315  49.458  1.00  0.00     0.167 HD
ENDBRANCH  28  30
ENDBRANCH  14  28
TORSDOF 6
ENDMDL
MODEL 9
REMARK VINA RESULT:      -7.9      7.778     11.936
REMARK  6 active torsions:
REMARK  status: ('A' for Active; 'I' for Inactive)
REMARK    1  A    between atoms: C1_2  and  O2_3 
REMARK    2  A    between atoms: C1_2  and  C2_4 
REMARK    3  A    between atoms: C2_4  and  C3_5 
REMARK    4  A    between atoms: C3_5  and  C4_6 
REMARK    5  A    between atoms: C14_19  and  C15_20 
REMARK    6  A    between atoms: C15_20  and  O5_22 
ROOT
HETATM    1  C4  UNL     1      31.745   5.784  48.296  1.00  0.00    -0.022 A 
HETATM    2  C5  UNL     1      30.396   6.054  48.061  1.00  0.00    -0.026 A 
HETATM    3  C6  UNL     1      30.158   7.427  47.903  1.00  0.00     0.024 A 
HETATM    4  N1  UNL     1      31.415   7.956  48.054  1.00  0.00    -0.312 N 
HETATM    5  C7  UNL     1      32.354   7.022  48.278  1.00  0.00     0.047 A 
HETATM    6  C8  UNL     1      33.824   7.110  48.402  1.00  0.00     0.036 C 
HETATM    7  C9  UNL     1      34.690   7.983  47.866  1.00  0.00     0.076 C 
HETATM    8  C10 UNL     1      34.579   9.161  46.979  1.00  0.00     0.245 C 
HETATM    9  O3  UNL     1      35.608   9.405  46.307  1.00  0.00    -0.268 OA
HETATM   10  N2  UNL     1      33.555  10.136  46.675  1.00  0.00    -0.322 N 
HETATM   11  C11 UNL     1      32.265  10.290  47.319  1.00  0.00     0.062 A 
HETATM   12  C12 UNL     1      31.977  11.635  47.301  1.00  0.00     0.033 A 
HETATM   13  C13 UNL     1      30.818  12.033  47.920  1.00  0.00     0.021 A 
HETATM   14  C14 UNL     1      29.965  11.122  48.543  1.00  0.00     0.040 A 
HETATM   15  C16 UNL     1      30.233   9.743  48.578  1.00  0.00     0.050 A 
HETATM   16  C17 UNL     1      31.409   9.396  47.937  1.00  0.00     0.067 A 
HETATM   17  C18 UNL     1      28.798   7.802  47.586  1.00  0.00     0.058 C 
HETATM   18  C19 UNL     1      27.801   7.057  48.447  1.00  0.00     0.006 C 
HETATM   19  C20 UNL     1      27.987   5.596  48.480  1.00  0.00     0.005 C 
HETATM   20  C21 UNL     1      29.299   5.081  47.966  1.00  0.00     0.041 C 
HETATM   21  H8  UNL     1      33.694  10.839  45.937  1.00  0.00     0.169 HD
ENDROOT
BRANCH   1  22
HETATM   22  C3  UNL     1      32.440   4.542  48.502  1.00  0.00     0.052 C 
BRANCH  22  23
HETATM   23  C2  UNL     1      32.788   3.708  47.324  1.00  0.00     0.115 C 
BRANCH  23  24
HETATM   24  C1  UNL     1      34.254   3.493  47.258  1.00  0.00     0.139 C 
HETATM   25  O1  UNL     1      35.228   3.259  46.531  1.00  0.00    -0.650 OA
BRANCH  24  26
HETATM   26  O2  UNL     1      34.763   3.595  48.529  1.00  0.00    -0.776 OA
HETATM   27  H1  UNL     1      35.234   2.917  49.074  1.00  0.00     0.167 HD
ENDBRANCH  24  26
ENDBRANCH  23  24
ENDBRANCH  22  23
ENDBRANCH   1  22
BRANCH  14  28
HETATM   28  C15 UNL     1      28.747  11.599  49.187  1.00  0.00     0.176 C 
HETATM   29  O4  UNL     1      28.493  12.827  49.273  1.00  0.00    -0.646 OA
BRANCH  28  30
HETATM   30  O5  UNL     1      27.844  10.688  49.718  1.00  0.00    -0.773 OA
HETATM   31  H11 UNL     1      28.107   9.723  49.923  1.00  0.00     0.167 HD
ENDBRANCH  28  30
ENDBRANCH  14  28
TORSDOF 6
ENDMDL
