MODEL 1
REMARK VINA RESULT:      -7.8      0.000      0.000
REMARK  4 active torsions:
REMARK  status: ('A' for Active; 'I' for Inactive)
REMARK    1  A    between atoms: C7_7  and  C8_8 
REMARK    2  A    between atoms: C8_8  and  N1_9 
REMARK    3  A    between atoms: C18_21  and  N3_22 
REMARK    4  A    between atoms: C19_23  and  N4_24 
ROOT
HETATM    1  N1  UNL     1      22.687   3.401  52.001  1.00  0.00    -0.342 N 
HETATM    2  C9  UNL     1      22.325   2.733  50.795  1.00  0.00     0.076 A 
HETATM    3  C10 UNL     1      21.380   1.744  51.124  1.00  0.00     0.039 A 
HETATM    4 BR1  UNL     1      20.774   1.528  52.936  1.00  0.00    -0.049 Br
HETATM    5  C11 UNL     1      20.743   0.825  50.269  1.00  0.00     0.021 A 
HETATM    6  C12 UNL     1      21.116   0.924  48.919  1.00  0.00     0.004 A 
HETATM    7  C13 UNL     1      22.064   1.921  48.610  1.00  0.00     0.032 A 
HETATM    8  C14 UNL     1      22.665   2.809  49.491  1.00  0.00     0.060 A 
HETATM    9  N2  UNL     1      23.463   3.531  48.557  1.00  0.00    -0.364 N 
HETATM   10  C15 UNL     1      23.060   4.684  47.835  1.00  0.00     0.085 C 
HETATM   11  C16 UNL     1      22.567   5.703  48.537  1.00  0.00    -0.002 C 
HETATM   12  C17 UNL     1      22.241   6.157  49.921  1.00  0.00     0.143 C 
HETATM   13  C18 UNL     1      22.306   5.685  51.191  1.00  0.00     0.189 C 
HETATM   14  C19 UNL     1      22.563   4.801  52.359  1.00  0.00     0.353 C 
HETATM   15  H13 UNL     1      24.419   3.267  48.277  1.00  0.00     0.165 HD
ENDROOT
BRANCH   1  16
HETATM   16  C8  UNL     1      23.213   2.506  53.035  1.00  0.00     0.164 C 
BRANCH  16  17
HETATM   17  C7  UNL     1      24.481   1.841  52.608  1.00  0.00    -0.034 A 
HETATM   18  C2  UNL     1      24.752   0.502  52.840  1.00  0.00    -0.054 A 
HETATM   19  C1  UNL     1      23.788  -0.394  53.526  1.00  0.00     0.049 C 
HETATM   20  C3  UNL     1      25.919  -0.111  52.469  1.00  0.00     0.007 A 
HETATM   21  C4  UNL     1      26.901   0.617  51.828  1.00  0.00     0.001 A 
HETATM   22  C5  UNL     1      26.747   1.965  51.540  1.00  0.00     0.001 A 
HETATM   23  C6  UNL     1      25.539   2.474  51.957  1.00  0.00     0.009 A 
ENDBRANCH  16  17
ENDBRANCH   1  16
BRANCH  14  24
HETATM   24  N4  UNL     1      23.768   5.293  53.009  1.00  0.00     0.103 N 
HETATM   25  H20 UNL     1      24.129   4.487  53.597  1.00  0.00     0.315 HD
HETATM   26  H21 UNL     1      23.473   6.053  53.687  1.00  0.00     0.315 HD
ENDBRANCH  14  24
BRANCH  13  27
HETATM   27  N3  UNL     1      21.741   6.969  51.578  1.00  0.00     0.088 NA
HETATM   28  H17 UNL     1      21.901   7.972  51.804  1.00  0.00     0.313 HD
HETATM   29  H18 UNL     1      22.006   7.953  51.788  1.00  0.00     0.313 HD
ENDBRANCH  13  27
TORSDOF 4
ENDMDL
MODEL 2
REMARK VINA RESULT:      -7.4      1.834      2.392
REMARK  4 active torsions:
REMARK  status: ('A' for Active; 'I' for Inactive)
REMARK    1  A    between atoms: C7_7  and  C8_8 
REMARK    2  A    between atoms: C8_8  and  N1_9 
REMARK    3  A    between atoms: C18_21  and  N3_22 
REMARK    4  A    between atoms: C19_23  and  N4_24 
ROOT
HETATM    1  N1  UNL     1      22.710   4.132  51.647  1.00  0.00    -0.342 N 
HETATM    2  C9  UNL     1      22.907   3.605  50.336  1.00  0.00     0.076 A 
HETATM    3  C10 UNL     1      21.639   3.316  49.801  1.00  0.00     0.039 A 
HETATM    4 BR1  UNL     1      20.040   3.687  50.802  1.00  0.00    -0.049 Br
HETATM    5  C11 UNL     1      21.327   2.769  48.541  1.00  0.00     0.021 A 
HETATM    6  C12 UNL     1      22.438   2.481  47.734  1.00  0.00     0.004 A 
HETATM    7  C13 UNL     1      23.700   2.779  48.289  1.00  0.00     0.032 A 
HETATM    8  C14 UNL     1      23.959   3.323  49.540  1.00  0.00     0.060 A 
HETATM    9  N2  UNL     1      25.380   3.388  49.456  1.00  0.00    -0.364 N 
HETATM   10  C15 UNL     1      26.134   4.476  48.943  1.00  0.00     0.085 C 
HETATM   11  C16 UNL     1      25.887   5.682  49.453  1.00  0.00    -0.002 C 
HETATM   12  C17 UNL     1      25.051   6.413  50.448  1.00  0.00     0.143 C 
HETATM   13  C18 UNL     1      24.080   6.146  51.357  1.00  0.00     0.189 C 
HETATM   14  C19 UNL     1      23.090   5.419  52.196  1.00  0.00     0.353 C 
HETATM   15  H13 UNL     1      26.018   2.626  49.729  1.00  0.00     0.165 HD
ENDROOT
BRANCH   1  16
HETATM   16  C8  UNL     1      21.966   3.236  52.535  1.00  0.00     0.164 C 
BRANCH  16  17
HETATM   17  C7  UNL     1      22.707   1.966  52.800  1.00  0.00    -0.034 A 
HETATM   18  C2  UNL     1      22.089   0.730  52.891  1.00  0.00    -0.054 A 
HETATM   19  C1  UNL     1      20.625   0.562  52.716  1.00  0.00     0.049 C 
HETATM   20  C3  UNL     1      22.759  -0.436  53.153  1.00  0.00     0.007 A 
HETATM   21  C4  UNL     1      24.125  -0.413  53.343  1.00  0.00     0.001 A 
HETATM   22  C5  UNL     1      24.856   0.764  53.277  1.00  0.00     0.001 A 
HETATM   23  C6  UNL     1      24.082   1.869  53.009  1.00  0.00     0.009 A 
ENDBRANCH  16  17
ENDBRANCH   1  16
BRANCH  14  24
HETATM   24  N4  UNL     1      23.675   5.281  53.521  1.00  0.00     0.103 N 
HETATM   25  H20 UNL     1      24.429   4.540  53.428  1.00  0.00     0.315 HD
HETATM   26  H21 UNL     1      22.929   4.874  54.154  1.00  0.00     0.315 HD
ENDBRANCH  14  24
BRANCH  13  27
HETATM   27  N3  UNL     1      24.111   7.572  51.644  1.00  0.00     0.088 NA
HETATM   28  H17 UNL     1      24.102   8.330  52.358  1.00  0.00     0.313 HD
HETATM   29  H18 UNL     1      24.095   8.252  52.432  1.00  0.00     0.313 HD
ENDBRANCH  13  27
TORSDOF 4
ENDMDL
MODEL 3
REMARK VINA RESULT:      -6.8      5.483      7.193
REMARK  4 active torsions:
REMARK  status: ('A' for Active; 'I' for Inactive)
REMARK    1  A    between atoms: C7_7  and  C8_8 
REMARK    2  A    between atoms: C8_8  and  N1_9 
REMARK    3  A    between atoms: C18_21  and  N3_22 
REMARK    4  A    between atoms: C19_23  and  N4_24 
ROOT
HETATM    1  N1  UNL     1      25.971   7.754  48.437  1.00  0.00    -0.342 N 
HETATM    2  C9  UNL     1      26.713   7.960  47.236  1.00  0.00     0.076 A 
HETATM    3  C10 UNL     1      25.814   8.414  46.255  1.00  0.00     0.039 A 
HETATM    4 BR1  UNL     1      23.958   8.693  46.674  1.00  0.00    -0.049 Br
HETATM    5  C11 UNL     1      26.079   8.739  44.910  1.00  0.00     0.021 A 
HETATM    6  C12 UNL     1      27.418   8.580  44.521  1.00  0.00     0.004 A 
HETATM    7  C13 UNL     1      28.304   8.123  45.520  1.00  0.00     0.032 A 
HETATM    8  C14 UNL     1      27.995   7.817  46.838  1.00  0.00     0.060 A 
HETATM    9  N2  UNL     1      29.299   7.460  47.287  1.00  0.00    -0.364 N 
HETATM   10  C15 UNL     1      30.264   8.349  47.830  1.00  0.00     0.085 C 
HETATM   11  C16 UNL     1      29.881   9.115  48.850  1.00  0.00    -0.002 C 
HETATM   12  C17 UNL     1      28.726   9.440  49.737  1.00  0.00     0.143 C 
HETATM   13  C18 UNL     1      27.434   9.063  49.908  1.00  0.00     0.189 C 
HETATM   14  C19 UNL     1      26.132   8.364  49.742  1.00  0.00     0.353 C 
HETATM   15  H13 UNL     1      29.699   6.512  47.231  1.00  0.00     0.165 HD
ENDROOT
BRANCH   1  16
HETATM   16  C8  UNL     1      24.855   6.818  48.285  1.00  0.00     0.164 C 
BRANCH  16  17
HETATM   17  C7  UNL     1      25.192   5.455  48.795  1.00  0.00    -0.034 A 
HETATM   18  C2  UNL     1      24.238   4.549  49.231  1.00  0.00    -0.054 A 
HETATM   19  C1  UNL     1      22.787   4.857  49.212  1.00  0.00     0.049 C 
HETATM   20  C3  UNL     1      24.540   3.305  49.718  1.00  0.00     0.007 A 
HETATM   21  C4  UNL     1      25.857   2.901  49.794  1.00  0.00     0.001 A 
HETATM   22  C5  UNL     1      26.902   3.718  49.389  1.00  0.00     0.001 A 
HETATM   23  C6  UNL     1      26.482   4.941  48.918  1.00  0.00     0.009 A 
ENDBRANCH  16  17
ENDBRANCH   1  16
BRANCH  14  24
HETATM   24  N4  UNL     1      26.040   7.376  50.807  1.00  0.00     0.103 N 
HETATM   25  H20 UNL     1      26.061   7.927  51.714  1.00  0.00     0.315 HD
HETATM   26  H21 UNL     1      26.930   6.802  50.782  1.00  0.00     0.315 HD
ENDBRANCH  14  24
BRANCH  13  27
HETATM   27  N3  UNL     1      27.412  10.030  50.994  1.00  0.00     0.088 NA
HETATM   28  H17 UNL     1      27.550  11.014  51.304  1.00  0.00     0.313 HD
HETATM   29  H18 UNL     1      27.577  11.037  51.202  1.00  0.00     0.313 HD
ENDBRANCH  13  27
TORSDOF 4
ENDMDL
MODEL 4
REMARK VINA RESULT:      -6.8      9.365     11.636
REMARK  4 active torsions:
REMARK  status: ('A' for Active; 'I' for Inactive)
REMARK    1  A    between atoms: C7_7  and  C8_8 
REMARK    2  A    between atoms: C8_8  and  N1_9 
REMARK    3  A    between atoms: C18_21  and  N3_22 
REMARK    4  A    between atoms: C19_23  and  N4_24 
ROOT
HETATM    1  N1  UNL     1      32.326   7.503  46.658  1.00  0.00    -0.342 N 
HETATM    2  C9  UNL     1      32.661   6.374  45.854  1.00  0.00     0.076 A 
HETATM    3  C10 UNL     1      32.608   6.781  44.508  1.00  0.00     0.039 A 
HETATM    4 BR1  UNL     1      32.188   8.600  44.046  1.00  0.00    -0.049 Br
HETATM    5  C11 UNL     1      32.848   6.011  43.353  1.00  0.00     0.021 A 
HETATM    6  C12 UNL     1      33.178   4.670  43.599  1.00  0.00     0.004 A 
HETATM    7  C13 UNL     1      33.227   4.283  44.955  1.00  0.00     0.032 A 
HETATM    8  C14 UNL     1      32.984   5.081  46.064  1.00  0.00     0.060 A 
HETATM    9  N2  UNL     1      33.221   4.112  47.082  1.00  0.00    -0.364 N 
HETATM   10  C15 UNL     1      34.473   3.832  47.688  1.00  0.00     0.085 C 
HETATM   11  C16 UNL     1      35.145   4.861  48.203  1.00  0.00    -0.002 C 
HETATM   12  C17 UNL     1      35.096   6.337  48.416  1.00  0.00     0.143 C 
HETATM   13  C18 UNL     1      34.268   7.379  48.152  1.00  0.00     0.189 C 
HETATM   14  C19 UNL     1      33.102   8.174  47.683  1.00  0.00     0.353 C 
HETATM   15  H13 UNL     1      32.504   3.478  47.464  1.00  0.00     0.165 HD
ENDROOT
BRANCH   1  16
HETATM   16  C8  UNL     1      31.018   8.082  46.343  1.00  0.00     0.164 C 
BRANCH  16  17
HETATM   17  C7  UNL     1      29.903   7.345  47.011  1.00  0.00    -0.034 A 
HETATM   18  C2  UNL     1      28.596   7.803  47.036  1.00  0.00    -0.054 A 
HETATM   19  C1  UNL     1      28.190   9.072  46.382  1.00  0.00     0.049 C 
HETATM   20  C3  UNL     1      27.573   7.143  47.662  1.00  0.00     0.007 A 
HETATM   21  C4  UNL     1      27.823   5.953  48.314  1.00  0.00     0.001 A 
HETATM   22  C5  UNL     1      29.091   5.393  48.360  1.00  0.00     0.001 A 
HETATM   23  C6  UNL     1      30.038   6.140  47.699  1.00  0.00     0.009 A 
ENDBRANCH  16  17
ENDBRANCH   1  16
BRANCH  14  24
HETATM   24  N4  UNL     1      32.291   8.472  48.854  1.00  0.00     0.103 N 
HETATM   25  H20 UNL     1      32.668   9.386  49.241  1.00  0.00     0.315 HD
HETATM   26  H21 UNL     1      32.499   7.728  49.579  1.00  0.00     0.315 HD
ENDBRANCH  14  24
BRANCH  13  27
HETATM   27  N3  UNL     1      35.272   8.200  48.811  1.00  0.00     0.088 NA
HETATM   28  H17 UNL     1      35.583   8.691  49.674  1.00  0.00     0.313 HD
HETATM   29  H18 UNL     1      35.492   8.656  49.720  1.00  0.00     0.313 HD
ENDBRANCH  13  27
TORSDOF 4
ENDMDL
MODEL 5
REMARK VINA RESULT:      -6.8      2.877      3.993
REMARK  4 active torsions:
REMARK  status: ('A' for Active; 'I' for Inactive)
REMARK    1  A    between atoms: C7_7  and  C8_8 
REMARK    2  A    between atoms: C8_8  and  N1_9 
REMARK    3  A    between atoms: C18_21  and  N3_22 
REMARK    4  A    between atoms: C19_23  and  N4_24 
ROOT
HETATM    1  N1  UNL     1      23.348   5.644  50.086  1.00  0.00    -0.342 N 
HETATM    2  C9  UNL     1      22.917   4.952  48.916  1.00  0.00     0.076 A 
HETATM    3  C10 UNL     1      22.776   3.593  49.254  1.00  0.00     0.039 A 
HETATM    4 BR1  UNL     1      23.106   2.988  51.049  1.00  0.00    -0.049 Br
HETATM    5  C11 UNL     1      22.385   2.523  48.427  1.00  0.00     0.021 A 
HETATM    6  C12 UNL     1      22.107   2.879  47.098  1.00  0.00     0.004 A 
HETATM    7  C13 UNL     1      22.254   4.246  46.779  1.00  0.00     0.032 A 
HETATM    8  C14 UNL     1      22.642   5.269  47.633  1.00  0.00     0.060 A 
HETATM    9  N2  UNL     1      22.561   6.356  46.716  1.00  0.00    -0.364 N 
HETATM   10  C15 UNL     1      21.410   7.146  46.462  1.00  0.00     0.085 C 
HETATM   11  C16 UNL     1      20.805   7.699  47.513  1.00  0.00    -0.002 C 
HETATM   12  C17 UNL     1      20.866   7.830  48.998  1.00  0.00     0.143 C 
HETATM   13  C18 UNL     1      21.637   7.401  50.028  1.00  0.00     0.189 C 
HETATM   14  C19 UNL     1      22.717   6.734  50.804  1.00  0.00     0.353 C 
HETATM   15  H13 UNL     1      23.331   6.665  46.105  1.00  0.00     0.165 HD
ENDROOT
BRANCH   1  16
HETATM   16  C8  UNL     1      24.593   5.120  50.653  1.00  0.00     0.164 C 
BRANCH  16  17
HETATM   17  C7  UNL     1      25.777   5.438  49.799  1.00  0.00    -0.034 A 
HETATM   18  C2  UNL     1      26.663   4.478  49.341  1.00  0.00    -0.054 A 
HETATM   19  C1  UNL     1      26.499   3.036  49.652  1.00  0.00     0.049 C 
HETATM   20  C3  UNL     1      27.761   4.764  48.573  1.00  0.00     0.007 A 
HETATM   21  C4  UNL     1      28.028   6.071  48.221  1.00  0.00     0.001 A 
HETATM   22  C5  UNL     1      27.215   7.121  48.620  1.00  0.00     0.001 A 
HETATM   23  C6  UNL     1      26.145   6.717  49.384  1.00  0.00     0.009 A 
ENDBRANCH  16  17
ENDBRANCH   1  16
BRANCH  14  24
HETATM   24  N4  UNL     1      23.681   7.763  51.164  1.00  0.00     0.103 N 
HETATM   25  H20 UNL     1      23.108   8.581  51.523  1.00  0.00     0.315 HD
HETATM   26  H21 UNL     1      24.144   8.089  50.268  1.00  0.00     0.315 HD
ENDBRANCH  14  24
BRANCH  13  27
HETATM   27  N3  UNL     1      20.726   8.154  50.877  1.00  0.00     0.088 NA
HETATM   28  H17 UNL     1      19.841   8.693  50.962  1.00  0.00     0.313 HD
HETATM   29  H18 UNL     1      19.826   8.675  50.857  1.00  0.00     0.313 HD
ENDBRANCH  13  27
TORSDOF 4
ENDMDL
MODEL 6
REMARK VINA RESULT:      -6.6     10.240     12.477
REMARK  4 active torsions:
REMARK  status: ('A' for Active; 'I' for Inactive)
REMARK    1  A    between atoms: C7_7  and  C8_8 
REMARK    2  A    between atoms: C8_8  and  N1_9 
REMARK    3  A    between atoms: C18_21  and  N3_22 
REMARK    4  A    between atoms: C19_23  and  N4_24 
ROOT
HETATM    1  N1  UNL     1      33.627   6.202  47.020  1.00  0.00    -0.342 N 
HETATM    2  C9  UNL     1      33.571   7.224  46.027  1.00  0.00     0.076 A 
HETATM    3  C10 UNL     1      34.244   8.349  46.538  1.00  0.00     0.039 A 
HETATM    4 BR1  UNL     1      35.071   8.297  48.273  1.00  0.00    -0.049 Br
HETATM    5  C11 UNL     1      34.439   9.603  45.927  1.00  0.00     0.021 A 
HETATM    6  C12 UNL     1      33.880   9.724  44.646  1.00  0.00     0.004 A 
HETATM    7  C13 UNL     1      33.210   8.586  44.151  1.00  0.00     0.032 A 
HETATM    8  C14 UNL     1      33.045   7.366  44.793  1.00  0.00     0.060 A 
HETATM    9  N2  UNL     1      32.331   6.679  43.768  1.00  0.00    -0.364 N 
HETATM   10  C15 UNL     1      32.908   5.927  42.713  1.00  0.00     0.085 C 
HETATM   11  C16 UNL     1      33.782   4.978  43.047  1.00  0.00    -0.002 C 
HETATM   12  C17 UNL     1      34.458   4.327  44.207  1.00  0.00     0.143 C 
HETATM   13  C18 UNL     1      34.485   4.428  45.559  1.00  0.00     0.189 C 
HETATM   14  C19 UNL     1      34.199   4.872  46.950  1.00  0.00     0.353 C 
HETATM   15  H13 UNL     1      31.306   6.687  43.664  1.00  0.00     0.165 HD
ENDROOT
BRANCH   1  16
HETATM   16  C8  UNL     1      33.060   6.604  48.310  1.00  0.00     0.164 C 
BRANCH  16  17
HETATM   17  C7  UNL     1      31.568   6.677  48.268  1.00  0.00    -0.034 A 
HETATM   18  C2  UNL     1      30.860   7.857  48.424  1.00  0.00    -0.054 A 
HETATM   19  C1  UNL     1      31.534   9.162  48.634  1.00  0.00     0.049 C 
HETATM   20  C3  UNL     1      29.493   7.930  48.406  1.00  0.00     0.007 A 
HETATM   21  C4  UNL     1      28.749   6.782  48.225  1.00  0.00     0.001 A 
HETATM   22  C5  UNL     1      29.342   5.540  48.058  1.00  0.00     0.001 A 
HETATM   23  C6  UNL     1      30.717   5.587  48.093  1.00  0.00     0.009 A 
ENDBRANCH  16  17
ENDBRANCH   1  16
BRANCH  14  24
HETATM   24  N4  UNL     1      33.312   3.879  47.539  1.00  0.00     0.103 N 
HETATM   25  H20 UNL     1      32.428   4.404  47.804  1.00  0.00     0.315 HD
HETATM   26  H21 UNL     1      33.756   3.558  48.446  1.00  0.00     0.315 HD
ENDBRANCH  14  24
BRANCH  13  27
HETATM   27  N3  UNL     1      35.445   3.336  45.510  1.00  0.00     0.088 NA
HETATM   28  H17 UNL     1      35.690   2.363  45.783  1.00  0.00     0.313 HD
HETATM   29  H18 UNL     1      35.595   2.359  45.834  1.00  0.00     0.313 HD
ENDBRANCH  13  27
TORSDOF 4
ENDMDL
MODEL 7
REMARK VINA RESULT:      -6.6      2.962      6.263
REMARK  4 active torsions:
REMARK  status: ('A' for Active; 'I' for Inactive)
REMARK    1  A    between atoms: C7_7  and  C8_8 
REMARK    2  A    between atoms: C8_8  and  N1_9 
REMARK    3  A    between atoms: C18_21  and  N3_22 
REMARK    4  A    between atoms: C19_23  and  N4_24 
ROOT
HETATM    1  N1  UNL     1      23.521   5.870  49.787  1.00  0.00    -0.342 N 
HETATM    2  C9  UNL     1      24.827   5.382  49.489  1.00  0.00     0.076 A 
HETATM    3  C10 UNL     1      25.596   6.474  49.046  1.00  0.00     0.039 A 
HETATM    4 BR1  UNL     1      24.844   8.243  48.976  1.00  0.00    -0.049 Br
HETATM    5  C11 UNL     1      26.941   6.483  48.628  1.00  0.00     0.021 A 
HETATM    6  C12 UNL     1      27.575   5.232  48.663  1.00  0.00     0.004 A 
HETATM    7  C13 UNL     1      26.787   4.150  49.111  1.00  0.00     0.032 A 
HETATM    8  C14 UNL     1      25.461   4.191  49.517  1.00  0.00     0.060 A 
HETATM    9  N2  UNL     1      25.297   2.816  49.854  1.00  0.00    -0.364 N 
HETATM   10  C15 UNL     1      25.558   2.235  51.122  1.00  0.00     0.085 C 
HETATM   11  C16 UNL     1      24.973   2.793  52.182  1.00  0.00    -0.002 C 
HETATM   12  C17 UNL     1      24.062   3.896  52.603  1.00  0.00     0.143 C 
HETATM   13  C18 UNL     1      23.363   4.913  52.040  1.00  0.00     0.189 C 
HETATM   14  C19 UNL     1      22.784   5.844  51.035  1.00  0.00     0.353 C 
HETATM   15  H13 UNL     1      25.002   2.083  49.194  1.00  0.00     0.165 HD
ENDROOT
BRANCH   1  16
HETATM   16  C8  UNL     1      22.870   6.536  48.657  1.00  0.00     0.164 C 
BRANCH  16  17
HETATM   17  C7  UNL     1      22.524   5.578  47.564  1.00  0.00    -0.034 A 
HETATM   18  C2  UNL     1      22.427   5.946  46.232  1.00  0.00    -0.054 A 
HETATM   19  C1  UNL     1      22.675   7.336  45.775  1.00  0.00     0.049 C 
HETATM   20  C3  UNL     1      22.092   5.078  45.227  1.00  0.00     0.007 A 
HETATM   21  C4  UNL     1      21.829   3.756  45.524  1.00  0.00     0.001 A 
HETATM   22  C5  UNL     1      21.894   3.266  46.820  1.00  0.00     0.001 A 
HETATM   23  C6  UNL     1      22.239   4.225  47.744  1.00  0.00     0.009 A 
ENDBRANCH  16  17
ENDBRANCH   1  16
BRANCH  14  24
HETATM   24  N4  UNL     1      21.400   5.441  50.829  1.00  0.00     0.103 N 
HETATM   25  H20 UNL     1      20.977   6.176  50.192  1.00  0.00     0.315 HD
HETATM   26  H21 UNL     1      20.904   5.527  51.761  1.00  0.00     0.315 HD
ENDBRANCH  14  24
BRANCH  13  27
HETATM   27  N3  UNL     1      22.926   5.215  53.395  1.00  0.00     0.088 NA
HETATM   28  H17 UNL     1      22.474   5.887  54.048  1.00  0.00     0.313 HD
HETATM   29  H18 UNL     1      22.464   5.954  53.964  1.00  0.00     0.313 HD
ENDBRANCH  13  27
TORSDOF 4
ENDMDL
MODEL 8
REMARK VINA RESULT:      -6.0      9.151     11.271
REMARK  4 active torsions:
REMARK  status: ('A' for Active; 'I' for Inactive)
REMARK    1  A    between atoms: C7_7  and  C8_8 
REMARK    2  A    between atoms: C8_8  and  N1_9 
REMARK    3  A    between atoms: C18_21  and  N3_22 
REMARK    4  A    between atoms: C19_23  and  N4_24 
ROOT
HETATM    1  N1  UNL     1      32.514   7.192  45.759  1.00  0.00    -0.342 N 
HETATM    2  C9  UNL     1      31.957   7.429  47.050  1.00  0.00     0.076 A 
HETATM    3  C10 UNL     1      32.962   8.011  47.845  1.00  0.00     0.039 A 
HETATM    4 BR1  UNL     1      34.700   8.387  47.113  1.00  0.00    -0.049 Br
HETATM    5  C11 UNL     1      32.887   8.409  49.193  1.00  0.00     0.021 A 
HETATM    6  C12 UNL     1      31.643   8.186  49.804  1.00  0.00     0.004 A 
HETATM    7  C13 UNL     1      30.650   7.602  48.990  1.00  0.00     0.032 A 
HETATM    8  C14 UNL     1      30.770   7.227  47.659  1.00  0.00     0.060 A 
HETATM    9  N2  UNL     1      29.443   6.752  47.449  1.00  0.00    -0.364 N 
HETATM   10  C15 UNL     1      28.338   7.533  47.021  1.00  0.00     0.085 C 
HETATM   11  C16 UNL     1      28.493   8.251  45.909  1.00  0.00    -0.002 C 
HETATM   12  C17 UNL     1      29.464   8.592  44.830  1.00  0.00     0.143 C 
HETATM   13  C18 UNL     1      30.738   8.294  44.473  1.00  0.00     0.189 C 
HETATM   14  C19 UNL     1      32.102   7.699  44.464  1.00  0.00     0.353 C 
HETATM   15  H13 UNL     1      29.133   5.785  47.624  1.00  0.00     0.165 HD
ENDROOT
BRANCH   1  16
HETATM   16  C8  UNL     1      33.710   6.348  45.780  1.00  0.00     0.164 C 
BRANCH  16  17
HETATM   17  C7  UNL     1      33.427   4.987  46.327  1.00  0.00    -0.034 A 
HETATM   18  C2  UNL     1      34.137   4.426  47.376  1.00  0.00    -0.054 A 
HETATM   19  C1  UNL     1      35.241   5.145  48.059  1.00  0.00     0.049 C 
HETATM   20  C3  UNL     1      33.896   3.171  47.870  1.00  0.00     0.007 A 
HETATM   21  C4  UNL     1      32.898   2.397  47.315  1.00  0.00     0.001 A 
HETATM   22  C5  UNL     1      32.118   2.848  46.261  1.00  0.00     0.001 A 
HETATM   23  C6  UNL     1      32.448   4.118  45.847  1.00  0.00     0.009 A 
ENDBRANCH  16  17
ENDBRANCH   1  16
BRANCH  14  24
HETATM   24  N4  UNL     1      32.101   6.648  43.457  1.00  0.00     0.103 N 
HETATM   25  H20 UNL     1      32.814   6.946  42.729  1.00  0.00     0.315 HD
HETATM   26  H21 UNL     1      31.155   6.669  42.980  1.00  0.00     0.315 HD
ENDBRANCH  14  24
BRANCH  13  27
HETATM   27  N3  UNL     1      30.512   9.183  43.344  1.00  0.00     0.088 NA
HETATM   28  H17 UNL     1      29.834   9.703  42.751  1.00  0.00     0.313 HD
HETATM   29  H18 UNL     1      29.756   9.661  42.813  1.00  0.00     0.313 HD
ENDBRANCH  13  27
TORSDOF 4
ENDMDL
MODEL 9
REMARK VINA RESULT:      -6.0      7.752      9.432
REMARK  4 active torsions:
REMARK  status: ('A' for Active; 'I' for Inactive)
REMARK    1  A    between atoms: C7_7  and  C8_8 
REMARK    2  A    between atoms: C8_8  and  N1_9 
REMARK    3  A    between atoms: C18_21  and  N3_22 
REMARK    4  A    between atoms: C19_23  and  N4_24 
ROOT
HETATM    1  N1  UNL     1      28.632   9.664  47.963  1.00  0.00    -0.342 N 
HETATM    2  C9  UNL     1      28.177   9.490  46.622  1.00  0.00     0.076 A 
HETATM    3  C10 UNL     1      26.886  10.044  46.537  1.00  0.00     0.039 A 
HETATM    4 BR1  UNL     1      26.075  10.887  48.063  1.00  0.00    -0.049 Br
HETATM    5  C11 UNL     1      26.031  10.098  45.420  1.00  0.00     0.021 A 
HETATM    6  C12 UNL     1      26.552   9.518  44.253  1.00  0.00     0.004 A 
HETATM    7  C13 UNL     1      27.848   8.969  44.359  1.00  0.00     0.032 A 
HETATM    8  C14 UNL     1      28.656   8.941  45.487  1.00  0.00     0.060 A 
HETATM    9  N2  UNL     1      29.793   8.295  44.920  1.00  0.00    -0.364 N 
HETATM   10  C15 UNL     1      30.884   8.941  44.282  1.00  0.00     0.085 C 
HETATM   11  C16 UNL     1      31.497   9.913  44.956  1.00  0.00    -0.002 C 
HETATM   12  C17 UNL     1      31.489  10.665  46.244  1.00  0.00     0.143 C 
HETATM   13  C18 UNL     1      30.787  10.694  47.405  1.00  0.00     0.189 C 
HETATM   14  C19 UNL     1      29.792  10.374  48.463  1.00  0.00     0.353 C 
HETATM   15  H13 UNL     1      29.927   7.274  44.881  1.00  0.00     0.165 HD
ENDROOT
BRANCH   1  16
HETATM   16  C8  UNL     1      27.746   9.069  48.966  1.00  0.00     0.164 C 
BRANCH  16  17
HETATM   17  C7  UNL     1      27.667   7.583  48.833  1.00  0.00    -0.034 A 
HETATM   18  C2  UNL     1      26.521   6.855  49.109  1.00  0.00    -0.054 A 
HETATM   19  C1  UNL     1      25.260   7.501  49.549  1.00  0.00     0.049 C 
HETATM   20  C3  UNL     1      26.446   5.491  49.008  1.00  0.00     0.007 A 
HETATM   21  C4  UNL     1      27.555   4.772  48.613  1.00  0.00     0.001 A 
HETATM   22  C5  UNL     1      28.761   5.387  48.311  1.00  0.00     0.001 A 
HETATM   23  C6  UNL     1      28.720   6.755  48.446  1.00  0.00     0.009 A 
ENDBRANCH  16  17
ENDBRANCH   1  16
BRANCH  14  24
HETATM   24  N4  UNL     1      30.489   9.603  49.483  1.00  0.00     0.103 N 
HETATM   25  H20 UNL     1      29.731   9.120  50.048  1.00  0.00     0.315 HD
HETATM   26  H21 UNL     1      30.958  10.295  50.135  1.00  0.00     0.315 HD
ENDBRANCH  14  24
BRANCH  13  27
HETATM   27  N3  UNL     1      31.691  11.765  47.796  1.00  0.00     0.088 NA
HETATM   28  H17 UNL     1      31.821  12.681  48.271  1.00  0.00     0.313 HD
HETATM   29  H18 UNL     1      31.715  12.679  48.291  1.00  0.00     0.313 HD
ENDBRANCH  13  27
TORSDOF 4
ENDMDL
