MODEL 1
REMARK VINA RESULT:      -7.7      0.000      0.000
REMARK  6 active torsions:
REMARK  status: ('A' for Active; 'I' for Inactive)
REMARK    1  A    between atoms: C2_2  and  C3_3 
REMARK    2  A    between atoms: C3_3  and  O1_4 
REMARK    3  A    between atoms: O1_4  and  N1_5 
REMARK    4  A    between atoms: N1_5  and  C4_6 
REMARK    5  A    between atoms: N1_5  and  C9_11 
REMARK    6  A    between atoms: C13_17  and  O2_18 
ROOT
HETATM    1  C9  UNL     1      24.911  -0.500  53.956  1.00  0.00     0.169 A 
HETATM    2  N2  UNL     1      25.273  -1.029  55.144  1.00  0.00    -0.221 NA
HETATM    3  C10 UNL     1      24.349  -1.472  56.006  1.00  0.00     0.236 A 
HETATM    4  N3  UNL     1      23.043  -1.401  55.713  1.00  0.00    -0.241 NA
HETATM    5  C11 UNL     1      22.574  -0.895  54.561  1.00  0.00     0.074 A 
HETATM    6  C12 UNL     1      21.235  -0.821  54.253  1.00  0.00     0.069 A 
HETATM    7  C13 UNL     1      20.870  -0.282  53.043  1.00  0.00     0.070 A 
HETATM    8  C15 UNL     1      21.840   0.167  52.171  1.00  0.00     0.038 A 
HETATM    9  C16 UNL     1      23.177   0.083  52.499  1.00  0.00     0.020 A 
HETATM   10  C17 UNL     1      23.559  -0.453  53.707  1.00  0.00     0.041 A 
ENDROOT
BRANCH   1  11
HETATM   11  N1  UNL     1      25.919  -0.045  53.074  1.00  0.00    -0.203 N 
BRANCH  11  12
HETATM   12  O1  UNL     1      26.089   0.647  51.935  1.00  0.00    -0.271 OA
BRANCH  12  13
HETATM   13  C3  UNL     1      26.168   2.007  52.100  1.00  0.00     0.201 C 
BRANCH  13  14
HETATM   14  C2  UNL     1      25.415   2.705  50.972  1.00  0.00     0.024 C 
HETATM   15  C1  UNL     1      26.423   3.164  49.937  1.00  0.00     0.007 C 
ENDBRANCH  13  14
ENDBRANCH  12  13
ENDBRANCH  11  12
BRANCH  11  16
HETATM   16  C4  UNL     1      27.281  -0.351  53.365  1.00  0.00     0.061 A 
HETATM   17  C5  UNL     1      28.349   0.128  53.972  1.00  0.00     0.009 A 
HETATM   18  C6  UNL     1      29.534  -0.797  53.878  1.00  0.00     0.056 A 
HETATM   19  C7  UNL     1      28.949  -1.905  53.099  1.00  0.00    -0.021 A 
HETATM   20  C8  UNL     1      27.674  -1.662  52.804  1.00  0.00     0.028 A 
ENDBRANCH  11  16
ENDBRANCH   1  11
BRANCH   7  21
HETATM   21  O2  UNL     1      19.523  -0.182  52.676  1.00  0.00    -0.356 OA
HETATM   22  C14 UNL     1      19.216   0.340  51.379  1.00  0.00     0.210 C 
ENDBRANCH   7  21
TORSDOF 6
ENDMDL
MODEL 2
REMARK VINA RESULT:      -7.4      2.223      6.396
REMARK  6 active torsions:
REMARK  status: ('A' for Active; 'I' for Inactive)
REMARK    1  A    between atoms: C2_2  and  C3_3 
REMARK    2  A    between atoms: C3_3  and  O1_4 
REMARK    3  A    between atoms: O1_4  and  N1_5 
REMARK    4  A    between atoms: N1_5  and  C4_6 
REMARK    5  A    between atoms: N1_5  and  C9_11 
REMARK    6  A    between atoms: C13_17  and  O2_18 
ROOT
HETATM    1  C9  UNL     1      24.167   1.306  52.822  1.00  0.00     0.169 A 
HETATM    2  N2  UNL     1      24.181   2.588  53.245  1.00  0.00    -0.221 NA
HETATM    3  C10 UNL     1      25.281   3.114  53.800  1.00  0.00     0.236 A 
HETATM    4  N3  UNL     1      26.394   2.382  53.950  1.00  0.00    -0.241 NA
HETATM    5  C11 UNL     1      26.488   1.099  53.564  1.00  0.00     0.074 A 
HETATM    6  C12 UNL     1      27.628   0.342  53.714  1.00  0.00     0.069 A 
HETATM    7  C13 UNL     1      27.610  -0.961  53.282  1.00  0.00     0.070 A 
HETATM    8  C15 UNL     1      26.466  -1.480  52.713  1.00  0.00     0.038 A 
HETATM    9  C16 UNL     1      25.334  -0.705  52.572  1.00  0.00     0.020 A 
HETATM   10  C17 UNL     1      25.335   0.603  53.000  1.00  0.00     0.041 A 
ENDROOT
BRANCH   1  11
HETATM   11  N1  UNL     1      22.985   0.791  52.241  1.00  0.00    -0.203 N 
BRANCH  11  12
HETATM   12  O1  UNL     1      21.988  -0.080  52.474  1.00  0.00    -0.271 OA
BRANCH  12  13
HETATM   13  C3  UNL     1      21.497  -0.053  53.756  1.00  0.00     0.201 C 
BRANCH  13  14
HETATM   14  C2  UNL     1      21.717  -1.409  54.418  1.00  0.00     0.024 C 
HETATM   15  C1  UNL     1      22.925  -1.305  55.328  1.00  0.00     0.007 C 
ENDBRANCH  13  14
ENDBRANCH  12  13
ENDBRANCH  11  12
BRANCH  11  16
HETATM   16  C4  UNL     1      22.581   1.266  50.958  1.00  0.00     0.061 A 
HETATM   17  C5  UNL     1      22.898   2.143  50.026  1.00  0.00     0.009 A 
HETATM   18  C6  UNL     1      21.967   2.094  48.843  1.00  0.00     0.056 A 
HETATM   19  C7  UNL     1      21.049   1.020  49.267  1.00  0.00    -0.021 A 
HETATM   20  C8  UNL     1      21.388   0.545  50.463  1.00  0.00     0.028 A 
ENDBRANCH  11  16
ENDBRANCH   1  11
BRANCH   7  21
HETATM   21  O2  UNL     1      28.740  -1.778  53.409  1.00  0.00    -0.356 OA
HETATM   22  C14 UNL     1      29.975  -1.162  53.786  1.00  0.00     0.210 C 
ENDBRANCH   7  21
TORSDOF 6
ENDMDL
MODEL 3
REMARK VINA RESULT:      -7.4      2.788      5.854
REMARK  6 active torsions:
REMARK  status: ('A' for Active; 'I' for Inactive)
REMARK    1  A    between atoms: C2_2  and  C3_3 
REMARK    2  A    between atoms: C3_3  and  O1_4 
REMARK    3  A    between atoms: O1_4  and  N1_5 
REMARK    4  A    between atoms: N1_5  and  C4_6 
REMARK    5  A    between atoms: N1_5  and  C9_11 
REMARK    6  A    between atoms: C13_17  and  O2_18 
ROOT
HETATM    1  C9  UNL     1      23.435   1.248  52.388  1.00  0.00     0.169 A 
HETATM    2  N2  UNL     1      22.325   0.884  53.064  1.00  0.00    -0.221 NA
HETATM    3  C10 UNL     1      22.372  -0.082  53.990  1.00  0.00     0.236 A 
HETATM    4  N3  UNL     1      23.522  -0.711  54.270  1.00  0.00    -0.241 NA
HETATM    5  C11 UNL     1      24.683  -0.428  53.659  1.00  0.00     0.074 A 
HETATM    6  C12 UNL     1      25.868  -1.070  53.942  1.00  0.00     0.069 A 
HETATM    7  C13 UNL     1      26.995  -0.697  53.253  1.00  0.00     0.070 A 
HETATM    8  C15 UNL     1      26.922   0.300  52.303  1.00  0.00     0.038 A 
HETATM    9  C16 UNL     1      25.725   0.931  52.034  1.00  0.00     0.020 A 
HETATM   10  C17 UNL     1      24.586   0.569  52.716  1.00  0.00     0.041 A 
ENDROOT
BRANCH   1  11
HETATM   11  N1  UNL     1      23.341   2.273  51.417  1.00  0.00    -0.203 N 
BRANCH  11  12
HETATM   12  O1  UNL     1      23.665   3.560  51.208  1.00  0.00    -0.271 OA
BRANCH  12  13
HETATM   13  C3  UNL     1      23.552   4.363  52.316  1.00  0.00     0.201 C 
BRANCH  13  14
HETATM   14  C2  UNL     1      22.121   4.877  52.430  1.00  0.00     0.024 C 
HETATM   15  C1  UNL     1      21.750   5.552  51.124  1.00  0.00     0.007 C 
ENDBRANCH  13  14
ENDBRANCH  12  13
ENDBRANCH  11  12
BRANCH  11  16
HETATM   16  C4  UNL     1      22.701   1.991  50.174  1.00  0.00     0.061 A 
HETATM   17  C5  UNL     1      21.753   1.248  49.637  1.00  0.00     0.009 A 
HETATM   18  C6  UNL     1      21.604   1.480  48.156  1.00  0.00     0.056 A 
HETATM   19  C7  UNL     1      22.647   2.500  47.937  1.00  0.00    -0.021 A 
HETATM   20  C8  UNL     1      23.273   2.796  49.074  1.00  0.00     0.028 A 
ENDBRANCH  11  16
ENDBRANCH   1  11
BRANCH   7  21
HETATM   21  O2  UNL     1      28.227  -1.315  53.499  1.00  0.00    -0.356 OA
HETATM   22  C14 UNL     1      29.341  -0.483  53.840  1.00  0.00     0.210 C 
ENDBRANCH   7  21
TORSDOF 6
ENDMDL
MODEL 4
REMARK VINA RESULT:      -7.2      2.738      5.791
REMARK  6 active torsions:
REMARK  status: ('A' for Active; 'I' for Inactive)
REMARK    1  A    between atoms: C2_2  and  C3_3 
REMARK    2  A    between atoms: C3_3  and  O1_4 
REMARK    3  A    between atoms: O1_4  and  N1_5 
REMARK    4  A    between atoms: N1_5  and  C4_6 
REMARK    5  A    between atoms: N1_5  and  C9_11 
REMARK    6  A    between atoms: C13_17  and  O2_18 
ROOT
HETATM    1  C9  UNL     1      22.841   0.723  52.434  1.00  0.00     0.169 A 
HETATM    2  N2  UNL     1      21.745   0.294  53.096  1.00  0.00    -0.221 NA
HETATM    3  C10 UNL     1      21.861  -0.485  54.179  1.00  0.00     0.236 A 
HETATM    4  N3  UNL     1      23.065  -0.858  54.633  1.00  0.00    -0.241 NA
HETATM    5  C11 UNL     1      24.218  -0.488  54.051  1.00  0.00     0.074 A 
HETATM    6  C12 UNL     1      25.458  -0.867  54.513  1.00  0.00     0.069 A 
HETATM    7  C13 UNL     1      26.570  -0.428  53.837  1.00  0.00     0.070 A 
HETATM    8  C15 UNL     1      26.426   0.373  52.724  1.00  0.00     0.038 A 
HETATM    9  C16 UNL     1      25.174   0.742  52.278  1.00  0.00     0.020 A 
HETATM   10  C17 UNL     1      24.049   0.310  52.943  1.00  0.00     0.041 A 
ENDROOT
BRANCH   1  11
HETATM   11  N1  UNL     1      22.673   1.544  51.294  1.00  0.00    -0.203 N 
BRANCH  11  12
HETATM   12  O1  UNL     1      22.649   1.492  49.952  1.00  0.00    -0.271 OA
BRANCH  12  13
HETATM   13  C3  UNL     1      21.464   1.046  49.420  1.00  0.00     0.201 C 
BRANCH  13  14
HETATM   14  C2  UNL     1      21.066   1.929  48.243  1.00  0.00     0.024 C 
HETATM   15  C1  UNL     1      22.327   2.508  47.633  1.00  0.00     0.007 C 
ENDBRANCH  13  14
ENDBRANCH  12  13
ENDBRANCH  11  12
BRANCH  11  16
HETATM   16  C4  UNL     1      22.443   2.940  51.476  1.00  0.00     0.061 A 
HETATM   17  C5  UNL     1      21.551   3.797  51.933  1.00  0.00     0.009 A 
HETATM   18  C6  UNL     1      22.003   5.228  51.803  1.00  0.00     0.056 A 
HETATM   19  C7  UNL     1      23.328   5.037  51.183  1.00  0.00    -0.021 A 
HETATM   20  C8  UNL     1      23.586   3.745  50.994  1.00  0.00     0.028 A 
ENDBRANCH  11  16
ENDBRANCH   1  11
BRANCH   7  21
HETATM   21  O2  UNL     1      27.857  -0.782  54.261  1.00  0.00    -0.356 OA
HETATM   22  C14 UNL     1      28.732   0.263  54.696  1.00  0.00     0.210 C 
ENDBRANCH   7  21
TORSDOF 6
ENDMDL
MODEL 5
REMARK VINA RESULT:      -7.2      1.296      3.469
REMARK  6 active torsions:
REMARK  status: ('A' for Active; 'I' for Inactive)
REMARK    1  A    between atoms: C2_2  and  C3_3 
REMARK    2  A    between atoms: C3_3  and  O1_4 
REMARK    3  A    between atoms: O1_4  and  N1_5 
REMARK    4  A    between atoms: N1_5  and  C4_6 
REMARK    5  A    between atoms: N1_5  and  C9_11 
REMARK    6  A    between atoms: C13_17  and  O2_18 
ROOT
HETATM    1  C9  UNL     1      24.129  -0.274  53.575  1.00  0.00     0.169 A 
HETATM    2  N2  UNL     1      24.670  -0.790  54.699  1.00  0.00    -0.221 NA
HETATM    3  C10 UNL     1      23.899  -1.387  55.618  1.00  0.00     0.236 A 
HETATM    4  N3  UNL     1      22.574  -1.488  55.445  1.00  0.00    -0.241 NA
HETATM    5  C11 UNL     1      21.935  -1.012  54.365  1.00  0.00     0.074 A 
HETATM    6  C12 UNL     1      20.574  -1.113  54.181  1.00  0.00     0.069 A 
HETATM    7  C13 UNL     1      20.028  -0.588  53.035  1.00  0.00     0.070 A 
HETATM    8  C15 UNL     1      20.841   0.023  52.103  1.00  0.00     0.038 A 
HETATM    9  C16 UNL     1      22.203   0.114  52.307  1.00  0.00     0.020 A 
HETATM   10  C17 UNL     1      22.766  -0.406  53.450  1.00  0.00     0.041 A 
ENDROOT
BRANCH   1  11
HETATM   11  N1  UNL     1      24.979   0.349  52.631  1.00  0.00    -0.203 N 
BRANCH  11  12
HETATM   12  O1  UNL     1      26.094   0.133  51.913  1.00  0.00    -0.271 OA
BRANCH  12  13
HETATM   13  C3  UNL     1      27.264   0.331  52.604  1.00  0.00     0.201 C 
BRANCH  13  14
HETATM   14  C2  UNL     1      27.857  -1.016  53.003  1.00  0.00     0.024 C 
HETATM   15  C1  UNL     1      29.234  -0.776  53.589  1.00  0.00     0.007 C 
ENDBRANCH  13  14
ENDBRANCH  12  13
ENDBRANCH  11  12
BRANCH  11  16
HETATM   16  C4  UNL     1      24.674   1.671  52.193  1.00  0.00     0.061 A 
HETATM   17  C5  UNL     1      24.504   2.394  51.103  1.00  0.00     0.009 A 
HETATM   18  C6  UNL     1      24.175   3.832  51.407  1.00  0.00     0.056 A 
HETATM   19  C7  UNL     1      24.187   3.806  52.882  1.00  0.00    -0.021 A 
HETATM   20  C8  UNL     1      24.468   2.587  53.337  1.00  0.00     0.028 A 
ENDBRANCH  11  16
ENDBRANCH   1  11
BRANCH   7  21
HETATM   21  O2  UNL     1      18.651  -0.662  52.794  1.00  0.00    -0.356 OA
HETATM   22  C14 UNL     1      17.918  -1.728  53.406  1.00  0.00     0.210 C 
ENDBRANCH   7  21
TORSDOF 6
ENDMDL
MODEL 6
REMARK VINA RESULT:      -7.1      3.106      5.064
REMARK  6 active torsions:
REMARK  status: ('A' for Active; 'I' for Inactive)
REMARK    1  A    between atoms: C2_2  and  C3_3 
REMARK    2  A    between atoms: C3_3  and  O1_4 
REMARK    3  A    between atoms: O1_4  and  N1_5 
REMARK    4  A    between atoms: N1_5  and  C4_6 
REMARK    5  A    between atoms: N1_5  and  C9_11 
REMARK    6  A    between atoms: C13_17  and  O2_18 
ROOT
HETATM    1  C9  UNL     1      26.151   2.926  51.501  1.00  0.00     0.169 A 
HETATM    2  N2  UNL     1      26.956   3.114  50.434  1.00  0.00    -0.221 NA
HETATM    3  C10 UNL     1      26.522   3.787  49.360  1.00  0.00     0.236 A 
HETATM    4  N3  UNL     1      25.281   4.289  49.317  1.00  0.00    -0.241 NA
HETATM    5  C11 UNL     1      24.400   4.161  50.323  1.00  0.00     0.074 A 
HETATM    6  C12 UNL     1      23.124   4.676  50.285  1.00  0.00     0.069 A 
HETATM    7  C13 UNL     1      22.308   4.482  51.373  1.00  0.00     0.070 A 
HETATM    8  C15 UNL     1      22.777   3.787  52.468  1.00  0.00     0.038 A 
HETATM    9  C16 UNL     1      24.059   3.279  52.485  1.00  0.00     0.020 A 
HETATM   10  C17 UNL     1      24.888   3.463  51.403  1.00  0.00     0.041 A 
ENDROOT
BRANCH   1  11
HETATM   11  N1  UNL     1      26.649   2.210  52.615  1.00  0.00    -0.203 N 
BRANCH  11  12
HETATM   12  O1  UNL     1      27.315   2.385  53.769  1.00  0.00    -0.271 OA
BRANCH  12  13
HETATM   13  C3  UNL     1      28.680   2.439  53.636  1.00  0.00     0.201 C 
BRANCH  13  14
HETATM   14  C2  UNL     1      29.326   1.415  54.562  1.00  0.00     0.024 C 
HETATM   15  C1  UNL     1      29.797   0.243  53.724  1.00  0.00     0.007 C 
ENDBRANCH  13  14
ENDBRANCH  12  13
ENDBRANCH  11  12
BRANCH  11  16
HETATM   16  C4  UNL     1      26.452   0.798  52.673  1.00  0.00     0.061 A 
HETATM   17  C5  UNL     1      26.682  -0.313  52.002  1.00  0.00     0.009 A 
HETATM   18  C6  UNL     1      26.159  -1.536  52.709  1.00  0.00     0.056 A 
HETATM   19  C7  UNL     1      25.582  -0.922  53.919  1.00  0.00    -0.021 A 
HETATM   20  C8  UNL     1      25.743   0.400  53.908  1.00  0.00     0.028 A 
ENDBRANCH  11  16
ENDBRANCH   1  11
BRANCH   7  21
HETATM   21  O2  UNL     1      21.001   4.983  51.392  1.00  0.00    -0.356 OA
HETATM   22  C14 UNL     1      19.923   4.057  51.223  1.00  0.00     0.210 C 
ENDBRANCH   7  21
TORSDOF 6
ENDMDL
MODEL 7
REMARK VINA RESULT:      -7.1      3.675      7.796
REMARK  6 active torsions:
REMARK  status: ('A' for Active; 'I' for Inactive)
REMARK    1  A    between atoms: C2_2  and  C3_3 
REMARK    2  A    between atoms: C3_3  and  O1_4 
REMARK    3  A    between atoms: O1_4  and  N1_5 
REMARK    4  A    between atoms: N1_5  and  C4_6 
REMARK    5  A    between atoms: N1_5  and  C9_11 
REMARK    6  A    between atoms: C13_17  and  O2_18 
ROOT
HETATM    1  C9  UNL     1      24.222   4.301  50.831  1.00  0.00     0.169 A 
HETATM    2  N2  UNL     1      23.347   5.217  51.297  1.00  0.00    -0.221 NA
HETATM    3  C10 UNL     1      23.526   6.521  51.052  1.00  0.00     0.236 A 
HETATM    4  N3  UNL     1      24.577   6.950  50.338  1.00  0.00    -0.241 NA
HETATM    5  C11 UNL     1      25.505   6.125  49.828  1.00  0.00     0.074 A 
HETATM    6  C12 UNL     1      26.586   6.558  49.094  1.00  0.00     0.069 A 
HETATM    7  C13 UNL     1      27.474   5.622  48.622  1.00  0.00     0.070 A 
HETATM    8  C15 UNL     1      27.269   4.285  48.887  1.00  0.00     0.038 A 
HETATM    9  C16 UNL     1      26.179   3.871  49.625  1.00  0.00     0.020 A 
HETATM   10  C17 UNL     1      25.281   4.796  50.106  1.00  0.00     0.041 A 
ENDROOT
BRANCH   1  11
HETATM   11  N1  UNL     1      23.996   2.933  51.114  1.00  0.00    -0.203 N 
BRANCH  11  12
HETATM   12  O1  UNL     1      24.403   1.943  51.927  1.00  0.00    -0.271 OA
BRANCH  12  13
HETATM   13  C3  UNL     1      25.233   2.346  52.943  1.00  0.00     0.201 C 
BRANCH  13  14
HETATM   14  C2  UNL     1      26.653   1.866  52.664  1.00  0.00     0.024 C 
HETATM   15  C1  UNL     1      26.574   0.555  51.906  1.00  0.00     0.007 C 
ENDBRANCH  13  14
ENDBRANCH  12  13
ENDBRANCH  11  12
BRANCH  11  16
HETATM   16  C4  UNL     1      23.024   2.221  50.351  1.00  0.00     0.061 A 
HETATM   17  C5  UNL     1      22.532   2.115  49.132  1.00  0.00     0.009 A 
HETATM   18  C6  UNL     1      21.441   1.081  49.035  1.00  0.00     0.056 A 
HETATM   19  C7  UNL     1      21.393   0.608  50.431  1.00  0.00    -0.021 A 
HETATM   20  C8  UNL     1      22.287   1.247  51.184  1.00  0.00     0.028 A 
ENDBRANCH  11  16
ENDBRANCH   1  11
BRANCH   7  21
HETATM   21  O2  UNL     1      28.591   6.005  47.869  1.00  0.00    -0.356 OA
HETATM   22  C14 UNL     1      28.811   7.403  47.655  1.00  0.00     0.210 C 
ENDBRANCH   7  21
TORSDOF 6
ENDMDL
MODEL 8
REMARK VINA RESULT:      -6.8      3.115      6.712
REMARK  6 active torsions:
REMARK  status: ('A' for Active; 'I' for Inactive)
REMARK    1  A    between atoms: C2_2  and  C3_3 
REMARK    2  A    between atoms: C3_3  and  O1_4 
REMARK    3  A    between atoms: O1_4  and  N1_5 
REMARK    4  A    between atoms: N1_5  and  C4_6 
REMARK    5  A    between atoms: N1_5  and  C9_11 
REMARK    6  A    between atoms: C13_17  and  O2_18 
ROOT
HETATM    1  C9  UNL     1      24.574   3.044  51.168  1.00  0.00     0.169 A 
HETATM    2  N2  UNL     1      25.089   3.602  50.052  1.00  0.00    -0.221 NA
HETATM    3  C10 UNL     1      26.411   3.603  49.835  1.00  0.00     0.236 A 
HETATM    4  N3  UNL     1      27.255   3.052  50.719  1.00  0.00    -0.241 NA
HETATM    5  C11 UNL     1      26.849   2.471  51.859  1.00  0.00     0.074 A 
HETATM    6  C12 UNL     1      27.710   1.903  52.771  1.00  0.00     0.069 A 
HETATM    7  C13 UNL     1      27.181   1.336  53.905  1.00  0.00     0.070 A 
HETATM    8  C15 UNL     1      25.817   1.346  54.107  1.00  0.00     0.038 A 
HETATM    9  C16 UNL     1      24.972   1.921  53.181  1.00  0.00     0.020 A 
HETATM   10  C17 UNL     1      25.485   2.494  52.040  1.00  0.00     0.041 A 
ENDROOT
BRANCH   1  11
HETATM   11  N1  UNL     1      23.172   3.064  51.358  1.00  0.00    -0.203 N 
BRANCH  11  12
HETATM   12  O1  UNL     1      22.219   3.637  52.113  1.00  0.00    -0.271 OA
BRANCH  12  13
HETATM   13  C3  UNL     1      22.455   4.952  52.428  1.00  0.00     0.201 C 
BRANCH  13  14
HETATM   14  C2  UNL     1      22.027   5.842  51.266  1.00  0.00     0.024 C 
HETATM   15  C1  UNL     1      23.215   6.685  50.847  1.00  0.00     0.007 C 
ENDBRANCH  13  14
ENDBRANCH  12  13
ENDBRANCH  11  12
BRANCH  11  16
HETATM   16  C4  UNL     1      22.351   2.239  50.535  1.00  0.00     0.061 A 
HETATM   17  C5  UNL     1      21.884   2.131  49.307  1.00  0.00     0.009 A 
HETATM   18  C6  UNL     1      21.008   0.918  49.124  1.00  0.00     0.056 A 
HETATM   19  C7  UNL     1      21.058   0.344  50.482  1.00  0.00    -0.021 A 
HETATM   20  C8  UNL     1      21.816   1.084  51.288  1.00  0.00     0.028 A 
ENDBRANCH  11  16
ENDBRANCH   1  11
BRANCH   7  21
HETATM   21  O2  UNL     1      28.009   0.743  54.866  1.00  0.00    -0.356 OA
HETATM   22  C14 UNL     1      29.009  -0.177  54.417  1.00  0.00     0.210 C 
ENDBRANCH   7  21
TORSDOF 6
ENDMDL
MODEL 9
REMARK VINA RESULT:      -6.8      3.467      5.541
REMARK  6 active torsions:
REMARK  status: ('A' for Active; 'I' for Inactive)
REMARK    1  A    between atoms: C2_2  and  C3_3 
REMARK    2  A    between atoms: C3_3  and  O1_4 
REMARK    3  A    between atoms: O1_4  and  N1_5 
REMARK    4  A    between atoms: N1_5  and  C4_6 
REMARK    5  A    between atoms: N1_5  and  C9_11 
REMARK    6  A    between atoms: C13_17  and  O2_18 
ROOT
HETATM    1  C9  UNL     1      23.495   2.688  51.887  1.00  0.00     0.169 A 
HETATM    2  N2  UNL     1      23.664   3.569  52.895  1.00  0.00    -0.221 NA
HETATM    3  C10 UNL     1      23.544   4.886  52.681  1.00  0.00     0.236 A 
HETATM    4  N3  UNL     1      23.253   5.362  51.462  1.00  0.00    -0.241 NA
HETATM    5  C11 UNL     1      23.065   4.574  50.391  1.00  0.00     0.074 A 
HETATM    6  C12 UNL     1      22.766   5.056  49.136  1.00  0.00     0.069 A 
HETATM    7  C13 UNL     1      22.595   4.155  48.113  1.00  0.00     0.070 A 
HETATM    8  C15 UNL     1      22.723   2.804  48.358  1.00  0.00     0.038 A 
HETATM    9  C16 UNL     1      23.023   2.342  49.623  1.00  0.00     0.020 A 
HETATM   10  C17 UNL     1      23.199   3.231  50.658  1.00  0.00     0.041 A 
ENDROOT
BRANCH   1  11
HETATM   11  N1  UNL     1      23.631   1.306  52.157  1.00  0.00    -0.203 N 
BRANCH  11  12
HETATM   12  O1  UNL     1      22.904   0.187  52.321  1.00  0.00    -0.271 OA
BRANCH  12  13
HETATM   13  C3  UNL     1      21.570   0.405  52.564  1.00  0.00     0.201 C 
BRANCH  13  14
HETATM   14  C2  UNL     1      21.304   0.329  54.063  1.00  0.00     0.024 C 
HETATM   15  C1  UNL     1      21.296  -1.131  54.473  1.00  0.00     0.007 C 
ENDBRANCH  13  14
ENDBRANCH  12  13
ENDBRANCH  11  12
BRANCH  11  16
HETATM   16  C4  UNL     1      24.936   0.764  52.347  1.00  0.00     0.061 A 
HETATM   17  C5  UNL     1      26.136   0.725  51.801  1.00  0.00     0.009 A 
HETATM   18  C6  UNL     1      27.110  -0.100  52.602  1.00  0.00     0.056 A 
HETATM   19  C7  UNL     1      26.245  -0.532  53.716  1.00  0.00    -0.021 A 
HETATM   20  C8  UNL     1      25.012  -0.047  53.581  1.00  0.00     0.028 A 
ENDBRANCH  11  16
ENDBRANCH   1  11
BRANCH   7  21
HETATM   21  O2  UNL     1      22.289   4.588  46.817  1.00  0.00    -0.356 OA
HETATM   22  C14 UNL     1      21.857   3.610  45.866  1.00  0.00     0.210 C 
ENDBRANCH   7  21
TORSDOF 6
ENDMDL
