MODEL 1
REMARK VINA RESULT:      -7.8      0.000      0.000
REMARK  6 active torsions:
REMARK  status: ('A' for Active; 'I' for Inactive)
REMARK    1  A    between atoms: C5_5  and  N1_6 
REMARK       I    between atoms: N1_6  and  C6_7 
REMARK    2  A    between atoms: C6_7  and  C7_9 
REMARK    3  A    between atoms: C8_11  and  N3_12 
REMARK    4  A    between atoms: N3_12  and  C9_13 
REMARK    5  A    between atoms: C9_13  and  C10_14 
REMARK    6  A    between atoms: C16_20  and  N4_21 
ROOT
HETATM    1  C7  UNL     1      24.068   4.048  51.559  1.00  0.00     0.229 A 
HETATM    2  N2  UNL     1      23.195   4.040  52.695  1.00  0.00    -0.356 N 
HETATM    3  C8  UNL     1      22.091   3.557  51.942  1.00  0.00     0.123 A 
HETATM    4  C16 UNL     1      22.855   3.546  50.861  1.00  0.00     0.079 A 
HETATM    5  H8  UNL     1      23.282   4.282  53.697  1.00  0.00     0.162 HD
ENDROOT
BRANCH   1   6
HETATM    6  C6  UNL     1      25.181   3.071  51.651  1.00  0.00     0.251 C 
HETATM    7  N1  UNL     1      25.619   2.463  52.846  1.00  0.00    -0.325 N 
HETATM    8  H6  UNL     1      25.054   2.793  53.658  1.00  0.00     0.169 HD
HETATM    9  O1  UNL     1      25.746   2.794  50.567  1.00  0.00    -0.270 OA
BRANCH   7  10
HETATM   10  C5  UNL     1      26.662   1.528  53.035  1.00  0.00     0.034 A 
HETATM   11  C4  UNL     1      26.619   0.180  52.849  1.00  0.00     0.030 A 
HETATM   12  C3  UNL     1      27.674  -0.681  53.051  1.00  0.00     0.009 A 
HETATM   13  C2  UNL     1      28.873  -0.176  53.471  1.00  0.00    -0.062 A 
HETATM   14  C1  UNL     1      30.080  -1.003  53.722  1.00  0.00     0.048 C 
HETATM   15  C18 UNL     1      28.956   1.184  53.671  1.00  0.00     0.009 A 
HETATM   16  C17 UNL     1      27.879   2.002  53.457  1.00  0.00     0.030 A 
ENDBRANCH   7  10
ENDBRANCH   1   6
BRANCH   4  17
HETATM   17  N4  UNL     1      22.733   3.210  49.473  1.00  0.00    -0.397 N 
HETATM   18  H17 UNL     1      23.729   3.170  49.134  1.00  0.00     0.156 HD
HETATM   19  H18 UNL     1      21.770   3.085  49.119  1.00  0.00     0.156 HD
ENDBRANCH   4  17
BRANCH   3  20
HETATM   20  N3  UNL     1      20.733   3.220  52.208  1.00  0.00    -0.371 N 
HETATM   21  H9  UNL     1      20.048   3.941  52.449  1.00  0.00     0.161 HD
BRANCH  20  22
HETATM   22  C9  UNL     1      20.246   1.887  52.159  1.00  0.00     0.160 C 
BRANCH  22  23
HETATM   23  C10 UNL     1      21.080   0.900  52.870  1.00  0.00    -0.041 A 
HETATM   24  C11 UNL     1      20.719   0.539  54.167  1.00  0.00     0.009 A 
HETATM   25  C12 UNL     1      21.449  -0.383  54.909  1.00  0.00     0.001 A 
HETATM   26  C13 UNL     1      22.571  -0.971  54.359  1.00  0.00     0.000 A 
HETATM   27  C14 UNL     1      22.948  -0.630  53.074  1.00  0.00     0.001 A 
HETATM   28  C15 UNL     1      22.191   0.298  52.364  1.00  0.00     0.009 A 
ENDBRANCH  22  23
ENDBRANCH  20  22
ENDBRANCH   3  20
TORSDOF 6
ENDMDL
MODEL 2
REMARK VINA RESULT:      -7.7      2.934      5.536
REMARK  6 active torsions:
REMARK  status: ('A' for Active; 'I' for Inactive)
REMARK    1  A    between atoms: C5_5  and  N1_6 
REMARK       I    between atoms: N1_6  and  C6_7 
REMARK    2  A    between atoms: C6_7  and  C7_9 
REMARK    3  A    between atoms: C8_11  and  N3_12 
REMARK    4  A    between atoms: N3_12  and  C9_13 
REMARK    5  A    between atoms: C9_13  and  C10_14 
REMARK    6  A    between atoms: C16_20  and  N4_21 
ROOT
HETATM    1  C7  UNL     1      23.223   3.367  52.133  1.00  0.00     0.229 A 
HETATM    2  N2  UNL     1      23.344   3.709  50.747  1.00  0.00    -0.356 N 
HETATM    3  C8  UNL     1      23.732   5.047  51.029  1.00  0.00     0.123 A 
HETATM    4  C16 UNL     1      23.635   4.784  52.323  1.00  0.00     0.079 A 
HETATM    5  H8  UNL     1      23.211   3.214  49.848  1.00  0.00     0.162 HD
ENDROOT
BRANCH   1   6
HETATM    6  C6  UNL     1      24.216   2.365  52.592  1.00  0.00     0.251 C 
HETATM    7  N1  UNL     1      25.544   2.280  52.125  1.00  0.00    -0.325 N 
HETATM    8  H6  UNL     1      25.735   3.017  51.413  1.00  0.00     0.169 HD
HETATM    9  O1  UNL     1      23.805   1.556  53.456  1.00  0.00    -0.270 OA
BRANCH   7  10
HETATM   10  C5  UNL     1      26.559   1.367  52.498  1.00  0.00     0.034 A 
HETATM   11  C4  UNL     1      26.561   0.014  52.349  1.00  0.00     0.030 A 
HETATM   12  C3  UNL     1      27.583  -0.822  52.735  1.00  0.00     0.009 A 
HETATM   13  C2  UNL     1      28.699  -0.286  53.315  1.00  0.00    -0.062 A 
HETATM   14  C1  UNL     1      29.864  -1.085  53.771  1.00  0.00     0.048 C 
HETATM   15  C18 UNL     1      28.734   1.080  53.483  1.00  0.00     0.009 A 
HETATM   16  C17 UNL     1      27.692   1.873  53.084  1.00  0.00     0.030 A 
ENDBRANCH   7  10
ENDBRANCH   1   6
BRANCH   4  17
HETATM   17  N4  UNL     1      23.818   5.471  53.567  1.00  0.00    -0.397 N 
HETATM   18  H17 UNL     1      23.242   4.915  54.251  1.00  0.00     0.156 HD
HETATM   19  H18 UNL     1      24.430   6.303  53.540  1.00  0.00     0.156 HD
ENDBRANCH   4  17
BRANCH   3  20
HETATM   20  N3  UNL     1      24.080   6.199  50.268  1.00  0.00    -0.371 N 
HETATM   21  H9  UNL     1      24.098   7.129  50.695  1.00  0.00     0.161 HD
BRANCH  20  22
HETATM   22  C9  UNL     1      24.420   6.138  48.890  1.00  0.00     0.160 C 
BRANCH  22  23
HETATM   23  C10 UNL     1      25.869   6.125  48.613  1.00  0.00    -0.041 A 
HETATM   24  C11 UNL     1      26.588   4.966  48.904  1.00  0.00     0.009 A 
HETATM   25  C12 UNL     1      27.956   4.867  48.675  1.00  0.00     0.001 A 
HETATM   26  C13 UNL     1      28.641   5.941  48.143  1.00  0.00     0.000 A 
HETATM   27  C14 UNL     1      27.949   7.100  47.845  1.00  0.00     0.001 A 
HETATM   28  C15 UNL     1      26.580   7.160  48.089  1.00  0.00     0.009 A 
ENDBRANCH  22  23
ENDBRANCH  20  22
ENDBRANCH   3  20
TORSDOF 6
ENDMDL
MODEL 3
REMARK VINA RESULT:      -7.6      2.799      5.279
REMARK  6 active torsions:
REMARK  status: ('A' for Active; 'I' for Inactive)
REMARK    1  A    between atoms: C5_5  and  N1_6 
REMARK       I    between atoms: N1_6  and  C6_7 
REMARK    2  A    between atoms: C6_7  and  C7_9 
REMARK    3  A    between atoms: C8_11  and  N3_12 
REMARK    4  A    between atoms: N3_12  and  C9_13 
REMARK    5  A    between atoms: C9_13  and  C10_14 
REMARK    6  A    between atoms: C16_20  and  N4_21 
ROOT
HETATM    1  C7  UNL     1      22.627   2.698  51.566  1.00  0.00     0.229 A 
HETATM    2  N2  UNL     1      23.285   2.220  52.745  1.00  0.00    -0.356 N 
HETATM    3  C8  UNL     1      23.069   0.856  52.408  1.00  0.00     0.123 A 
HETATM    4  C16 UNL     1      22.450   1.244  51.304  1.00  0.00     0.079 A 
HETATM    5  H8  UNL     1      23.753   2.653  53.559  1.00  0.00     0.162 HD
ENDROOT
BRANCH   1   6
HETATM    6  C6  UNL     1      23.528   3.395  50.616  1.00  0.00     0.251 C 
HETATM    7  N1  UNL     1      24.660   4.149  50.991  1.00  0.00    -0.325 N 
HETATM    8  H6  UNL     1      24.778   4.150  52.027  1.00  0.00     0.169 HD
HETATM    9  O1  UNL     1      23.227   3.282  49.405  1.00  0.00    -0.270 OA
BRANCH   7  10
HETATM   10  C5  UNL     1      25.574   4.845  50.167  1.00  0.00     0.034 A 
HETATM   11  C4  UNL     1      25.581   6.172  49.862  1.00  0.00     0.030 A 
HETATM   12  C3  UNL     1      26.503   6.792  49.050  1.00  0.00     0.009 A 
HETATM   13  C2  UNL     1      27.504   6.048  48.489  1.00  0.00    -0.062 A 
HETATM   14  C1  UNL     1      28.553   6.604  47.599  1.00  0.00     0.048 C 
HETATM   15  C18 UNL     1      27.530   4.701  48.774  1.00  0.00     0.009 A 
HETATM   16  C17 UNL     1      26.591   4.127  49.588  1.00  0.00     0.030 A 
ENDBRANCH   7  10
ENDBRANCH   1   6
BRANCH   4  17
HETATM   17  N4  UNL     1      21.802   0.642  50.177  1.00  0.00    -0.397 N 
HETATM   18  H17 UNL     1      22.598   0.279  49.591  1.00  0.00     0.156 HD
HETATM   19  H18 UNL     1      20.769   0.681  50.173  1.00  0.00     0.156 HD
ENDBRANCH   4  17
BRANCH   3  20
HETATM   20  N3  UNL     1      23.374  -0.408  52.990  1.00  0.00    -0.371 N 
HETATM   21  H9  UNL     1      23.074  -1.280  52.546  1.00  0.00     0.161 HD
BRANCH  20  22
HETATM   22  C9  UNL     1      24.102  -0.543  54.202  1.00  0.00     0.160 C 
BRANCH  22  23
HETATM   23  C10 UNL     1      25.566  -0.453  54.054  1.00  0.00    -0.041 A 
HETATM   24  C11 UNL     1      26.159  -1.062  52.948  1.00  0.00     0.009 A 
HETATM   25  C12 UNL     1      27.532  -1.026  52.732  1.00  0.00     0.001 A 
HETATM   26  C13 UNL     1      28.351  -0.371  53.630  1.00  0.00     0.000 A 
HETATM   27  C14 UNL     1      27.786   0.242  54.732  1.00  0.00     0.001 A 
HETATM   28  C15 UNL     1      26.407   0.183  54.914  1.00  0.00     0.009 A 
ENDBRANCH  22  23
ENDBRANCH  20  22
ENDBRANCH   3  20
TORSDOF 6
ENDMDL
MODEL 4
REMARK VINA RESULT:      -7.5      1.992      6.462
REMARK  6 active torsions:
REMARK  status: ('A' for Active; 'I' for Inactive)
REMARK    1  A    between atoms: C5_5  and  N1_6 
REMARK       I    between atoms: N1_6  and  C6_7 
REMARK    2  A    between atoms: C6_7  and  C7_9 
REMARK    3  A    between atoms: C8_11  and  N3_12 
REMARK    4  A    between atoms: N3_12  and  C9_13 
REMARK    5  A    between atoms: C9_13  and  C10_14 
REMARK    6  A    between atoms: C16_20  and  N4_21 
ROOT
HETATM    1  C7  UNL     1      22.389   4.219  51.167  1.00  0.00     0.229 A 
HETATM    2  N2  UNL     1      23.363   3.598  50.319  1.00  0.00    -0.356 N 
HETATM    3  C8  UNL     1      24.448   3.975  51.156  1.00  0.00     0.123 A 
HETATM    4  C16 UNL     1      23.589   4.565  51.973  1.00  0.00     0.079 A 
HETATM    5  H8  UNL     1      23.341   3.068  49.430  1.00  0.00     0.162 HD
ENDROOT
BRANCH   1   6
HETATM    6  C6  UNL     1      21.460   3.261  51.815  1.00  0.00     0.251 C 
HETATM    7  N1  UNL     1      21.388   1.885  51.513  1.00  0.00    -0.325 N 
HETATM    8  H6  UNL     1      22.076   1.631  50.772  1.00  0.00     0.169 HD
HETATM    9  O1  UNL     1      20.704   3.749  52.686  1.00  0.00    -0.270 OA
BRANCH   7  10
HETATM   10  C5  UNL     1      20.543   0.898  52.072  1.00  0.00     0.034 A 
HETATM   11  C4  UNL     1      20.764   0.139  53.180  1.00  0.00     0.030 A 
HETATM   12  C3  UNL     1      19.899  -0.810  53.675  1.00  0.00     0.009 A 
HETATM   13  C2  UNL     1      18.715  -1.033  53.028  1.00  0.00    -0.062 A 
HETATM   14  C1  UNL     1      17.704  -2.027  53.466  1.00  0.00     0.048 C 
HETATM   15  C18 UNL     1      18.454  -0.284  51.902  1.00  0.00     0.009 A 
HETATM   16  C17 UNL     1      19.346   0.649  51.447  1.00  0.00     0.030 A 
ENDBRANCH   7  10
ENDBRANCH   1   6
BRANCH   4  17
HETATM   17  N4  UNL     1      23.622   5.299  53.203  1.00  0.00    -0.397 N 
HETATM   18  H17 UNL     1      23.465   4.564  53.941  1.00  0.00     0.156 HD
HETATM   19  H18 UNL     1      23.781   6.317  53.121  1.00  0.00     0.156 HD
ENDBRANCH   4  17
BRANCH   3  20
HETATM   20  N3  UNL     1      25.862   3.807  51.145  1.00  0.00    -0.371 N 
HETATM   21  H9  UNL     1      26.486   4.563  51.437  1.00  0.00     0.161 HD
BRANCH  20  22
HETATM   22  C9  UNL     1      26.491   2.600  50.737  1.00  0.00     0.160 C 
BRANCH  22  23
HETATM   23  C10 UNL     1      26.939   1.735  51.844  1.00  0.00    -0.041 A 
HETATM   24  C11 UNL     1      26.551   0.395  51.836  1.00  0.00     0.009 A 
HETATM   25  C12 UNL     1      26.930  -0.490  52.839  1.00  0.00     0.001 A 
HETATM   26  C13 UNL     1      27.714  -0.046  53.885  1.00  0.00     0.000 A 
HETATM   27  C14 UNL     1      28.112   1.277  53.914  1.00  0.00     0.001 A 
HETATM   28  C15 UNL     1      27.712   2.132  52.891  1.00  0.00     0.009 A 
ENDBRANCH  22  23
ENDBRANCH  20  22
ENDBRANCH   3  20
TORSDOF 6
ENDMDL
MODEL 5
REMARK VINA RESULT:      -7.5      4.293      7.714
REMARK  6 active torsions:
REMARK  status: ('A' for Active; 'I' for Inactive)
REMARK    1  A    between atoms: C5_5  and  N1_6 
REMARK       I    between atoms: N1_6  and  C6_7 
REMARK    2  A    between atoms: C6_7  and  C7_9 
REMARK    3  A    between atoms: C8_11  and  N3_12 
REMARK    4  A    between atoms: N3_12  and  C9_13 
REMARK    5  A    between atoms: C9_13  and  C10_14 
REMARK    6  A    between atoms: C16_20  and  N4_21 
ROOT
HETATM    1  C7  UNL     1      23.558   5.033  50.434  1.00  0.00     0.229 A 
HETATM    2  N2  UNL     1      24.528   4.684  49.439  1.00  0.00    -0.356 N 
HETATM    3  C8  UNL     1      25.462   5.652  49.897  1.00  0.00     0.123 A 
HETATM    4  C16 UNL     1      24.601   6.014  50.836  1.00  0.00     0.079 A 
HETATM    5  H8  UNL     1      24.580   4.002  48.663  1.00  0.00     0.162 HD
ENDROOT
BRANCH   1   6
HETATM    6  C6  UNL     1      23.302   3.958  51.425  1.00  0.00     0.251 C 
HETATM    7  N1  UNL     1      23.182   2.589  51.109  1.00  0.00    -0.325 N 
HETATM    8  H6  UNL     1      23.298   2.433  50.085  1.00  0.00     0.169 HD
HETATM    9  O1  UNL     1      23.189   4.337  52.614  1.00  0.00    -0.270 OA
BRANCH   7  10
HETATM   10  C5  UNL     1      22.940   1.497  51.975  1.00  0.00     0.034 A 
HETATM   11  C4  UNL     1      23.836   0.840  52.761  1.00  0.00     0.030 A 
HETATM   12  C3  UNL     1      23.537  -0.221  53.585  1.00  0.00     0.009 A 
HETATM   13  C2  UNL     1      22.248  -0.674  53.645  1.00  0.00    -0.062 A 
HETATM   14  C1  UNL     1      21.806  -1.808  54.495  1.00  0.00     0.048 C 
HETATM   15  C18 UNL     1      21.312  -0.035  52.864  1.00  0.00     0.009 A 
HETATM   16  C17 UNL     1      21.656   1.017  52.058  1.00  0.00     0.030 A 
ENDBRANCH   7  10
ENDBRANCH   1   6
BRANCH   4  17
HETATM   17  N4  UNL     1      24.530   6.960  51.910  1.00  0.00    -0.397 N 
HETATM   18  H17 UNL     1      23.624   6.727  52.393  1.00  0.00     0.156 HD
HETATM   19  H18 UNL     1      25.320   7.622  51.984  1.00  0.00     0.156 HD
ENDBRANCH   4  17
BRANCH   3  20
HETATM   20  N3  UNL     1      26.770   6.076  49.526  1.00  0.00    -0.371 N 
HETATM   21  H9  UNL     1      27.570   5.923  50.144  1.00  0.00     0.161 HD
BRANCH  20  22
HETATM   22  C9  UNL     1      27.048   6.727  48.295  1.00  0.00     0.160 C 
BRANCH  22  23
HETATM   23  C10 UNL     1      28.457   6.659  47.866  1.00  0.00    -0.041 A 
HETATM   24  C11 UNL     1      29.210   5.547  48.242  1.00  0.00     0.009 A 
HETATM   25  C12 UNL     1      30.545   5.403  47.881  1.00  0.00     0.001 A 
HETATM   26  C13 UNL     1      31.162   6.381  47.127  1.00  0.00     0.000 A 
HETATM   27  C14 UNL     1      30.435   7.491  46.741  1.00  0.00     0.001 A 
HETATM   28  C15 UNL     1      29.101   7.600  47.123  1.00  0.00     0.009 A 
ENDBRANCH  22  23
ENDBRANCH  20  22
ENDBRANCH   3  20
TORSDOF 6
ENDMDL
MODEL 6
REMARK VINA RESULT:      -7.2      3.134      6.427
REMARK  6 active torsions:
REMARK  status: ('A' for Active; 'I' for Inactive)
REMARK    1  A    between atoms: C5_5  and  N1_6 
REMARK       I    between atoms: N1_6  and  C6_7 
REMARK    2  A    between atoms: C6_7  and  C7_9 
REMARK    3  A    between atoms: C8_11  and  N3_12 
REMARK    4  A    between atoms: N3_12  and  C9_13 
REMARK    5  A    between atoms: C9_13  and  C10_14 
REMARK    6  A    between atoms: C16_20  and  N4_21 
ROOT
HETATM    1  C7  UNL     1      23.567   3.812  52.221  1.00  0.00     0.229 A 
HETATM    2  N2  UNL     1      24.638   3.491  53.117  1.00  0.00    -0.356 N 
HETATM    3  C8  UNL     1      24.507   2.093  52.898  1.00  0.00     0.123 A 
HETATM    4  C16 UNL     1      23.510   2.335  52.061  1.00  0.00     0.079 A 
HETATM    5  H8  UNL     1      25.288   4.028  53.716  1.00  0.00     0.162 HD
ENDROOT
BRANCH   1   6
HETATM    6  C6  UNL     1      23.999   4.552  51.010  1.00  0.00     0.251 C 
HETATM    7  N1  UNL     1      24.974   5.571  50.997  1.00  0.00    -0.325 N 
HETATM    8  H6  UNL     1      25.352   5.734  51.955  1.00  0.00     0.169 HD
HETATM    9  O1  UNL     1      23.431   4.218  49.943  1.00  0.00    -0.270 OA
BRANCH   7  10
HETATM   10  C5  UNL     1      25.451   6.329  49.903  1.00  0.00     0.034 A 
HETATM   11  C4  UNL     1      24.968   7.512  49.433  1.00  0.00     0.030 A 
HETATM   12  C3  UNL     1      25.478   8.204  48.358  1.00  0.00     0.009 A 
HETATM   13  C2  UNL     1      26.554   7.692  47.688  1.00  0.00    -0.062 A 
HETATM   14  C1  UNL     1      27.191   8.346  46.516  1.00  0.00     0.048 C 
HETATM   15  C18 UNL     1      27.071   6.496  48.133  1.00  0.00     0.009 A 
HETATM   16  C17 UNL     1      26.530   5.843  49.207  1.00  0.00     0.030 A 
ENDBRANCH   7  10
ENDBRANCH   1   6
BRANCH   4  17
HETATM   17  N4  UNL     1      22.611   1.589  51.231  1.00  0.00    -0.397 N 
HETATM   18  H17 UNL     1      21.671   1.732  51.684  1.00  0.00     0.156 HD
HETATM   19  H18 UNL     1      23.035   1.104  50.424  1.00  0.00     0.156 HD
ENDBRANCH   4  17
BRANCH   3  20
HETATM   20  N3  UNL     1      25.155   0.914  53.365  1.00  0.00    -0.371 N 
HETATM   21  H9  UNL     1      25.143   0.662  54.357  1.00  0.00     0.161 HD
BRANCH  20  22
HETATM   22  C9  UNL     1      25.850   0.024  52.503  1.00  0.00     0.160 C 
BRANCH  22  23
HETATM   23  C10 UNL     1      27.241  -0.258  52.901  1.00  0.00    -0.041 A 
HETATM   24  C11 UNL     1      28.048   0.811  53.290  1.00  0.00     0.009 A 
HETATM   25  C12 UNL     1      29.371   0.634  53.680  1.00  0.00     0.001 A 
HETATM   26  C13 UNL     1      29.921  -0.632  53.687  1.00  0.00     0.000 A 
HETATM   27  C14 UNL     1      29.140  -1.707  53.306  1.00  0.00     0.001 A 
HETATM   28  C15 UNL     1      27.820  -1.490  52.922  1.00  0.00     0.009 A 
ENDBRANCH  22  23
ENDBRANCH  20  22
ENDBRANCH   3  20
TORSDOF 6
ENDMDL
MODEL 7
REMARK VINA RESULT:      -7.2      4.824      7.627
REMARK  6 active torsions:
REMARK  status: ('A' for Active; 'I' for Inactive)
REMARK    1  A    between atoms: C5_5  and  N1_6 
REMARK       I    between atoms: N1_6  and  C6_7 
REMARK    2  A    between atoms: C6_7  and  C7_9 
REMARK    3  A    between atoms: C8_11  and  N3_12 
REMARK    4  A    between atoms: N3_12  and  C9_13 
REMARK    5  A    between atoms: C9_13  and  C10_14 
REMARK    6  A    between atoms: C16_20  and  N4_21 
ROOT
HETATM    1  C7  UNL     1      24.457   5.833  49.694  1.00  0.00     0.229 A 
HETATM    2  N2  UNL     1      25.607   6.394  49.048  1.00  0.00    -0.356 N 
HETATM    3  C8  UNL     1      25.878   7.280  50.125  1.00  0.00     0.123 A 
HETATM    4  C16 UNL     1      24.824   6.797  50.765  1.00  0.00     0.079 A 
HETATM    5  H8  UNL     1      26.095   6.248  48.147  1.00  0.00     0.162 HD
ENDROOT
BRANCH   1   6
HETATM    6  C6  UNL     1      24.614   4.405  50.063  1.00  0.00     0.251 C 
HETATM    7  N1  UNL     1      25.239   3.945  51.241  1.00  0.00    -0.325 N 
HETATM    8  H6  UNL     1      25.578   4.745  51.818  1.00  0.00     0.169 HD
HETATM    9  O1  UNL     1      24.144   3.582  49.244  1.00  0.00    -0.270 OA
BRANCH   7  10
HETATM   10  C5  UNL     1      25.436   2.615  51.679  1.00  0.00     0.034 A 
HETATM   11  C4  UNL     1      24.538   1.796  52.292  1.00  0.00     0.030 A 
HETATM   12  C3  UNL     1      24.792   0.505  52.696  1.00  0.00     0.009 A 
HETATM   13  C2  UNL     1      26.033  -0.028  52.480  1.00  0.00    -0.062 A 
HETATM   14  C1  UNL     1      26.424  -1.406  52.871  1.00  0.00     0.048 C 
HETATM   15  C18 UNL     1      26.969   0.770  51.862  1.00  0.00     0.009 A 
HETATM   16  C17 UNL     1      26.671   2.050  51.477  1.00  0.00     0.030 A 
ENDBRANCH   7  10
ENDBRANCH   1   6
BRANCH   4  17
HETATM   17  N4  UNL     1      24.150   7.001  52.013  1.00  0.00    -0.397 N 
HETATM   18  H17 UNL     1      23.135   6.840  51.781  1.00  0.00     0.156 HD
HETATM   19  H18 UNL     1      24.749   7.244  52.819  1.00  0.00     0.156 HD
ENDBRANCH   4  17
BRANCH   3  20
HETATM   20  N3  UNL     1      26.855   8.274  50.418  1.00  0.00    -0.371 N 
HETATM   21  H9  UNL     1      27.178   8.431  51.377  1.00  0.00     0.161 HD
BRANCH  20  22
HETATM   22  C9  UNL     1      27.438   9.100  49.420  1.00  0.00     0.160 C 
BRANCH  22  23
HETATM   23  C10 UNL     1      28.735   8.622  48.906  1.00  0.00    -0.041 A 
HETATM   24  C11 UNL     1      29.891   9.295  49.301  1.00  0.00     0.009 A 
HETATM   25  C12 UNL     1      31.155   8.912  48.864  1.00  0.00     0.001 A 
HETATM   26  C13 UNL     1      31.288   7.834  48.012  1.00  0.00     0.000 A 
HETATM   27  C14 UNL     1      30.156   7.151  47.609  1.00  0.00     0.001 A 
HETATM   28  C15 UNL     1      28.909   7.565  48.067  1.00  0.00     0.009 A 
ENDBRANCH  22  23
ENDBRANCH  20  22
ENDBRANCH   3  20
TORSDOF 6
ENDMDL
MODEL 8
REMARK VINA RESULT:      -7.0      5.478      8.374
REMARK  6 active torsions:
REMARK  status: ('A' for Active; 'I' for Inactive)
REMARK    1  A    between atoms: C5_5  and  N1_6 
REMARK       I    between atoms: N1_6  and  C6_7 
REMARK    2  A    between atoms: C6_7  and  C7_9 
REMARK    3  A    between atoms: C8_11  and  N3_12 
REMARK    4  A    between atoms: N3_12  and  C9_13 
REMARK    5  A    between atoms: C9_13  and  C10_14 
REMARK    6  A    between atoms: C16_20  and  N4_21 
ROOT
HETATM    1  C7  UNL     1      24.576   5.903  49.547  1.00  0.00     0.229 A 
HETATM    2  N2  UNL     1      25.704   6.377  48.801  1.00  0.00    -0.356 N 
HETATM    3  C8  UNL     1      26.100   7.281  49.824  1.00  0.00     0.123 A 
HETATM    4  C16 UNL     1      25.072   6.878  50.555  1.00  0.00     0.079 A 
HETATM    5  H8  UNL     1      26.116   6.176  47.874  1.00  0.00     0.162 HD
ENDROOT
BRANCH   1   6
HETATM    6  C6  UNL     1      24.682   4.481  49.955  1.00  0.00     0.251 C 
HETATM    7  N1  UNL     1      25.324   4.028  51.126  1.00  0.00    -0.325 N 
HETATM    8  H6  UNL     1      25.715   4.828  51.668  1.00  0.00     0.169 HD
HETATM    9  O1  UNL     1      24.150   3.656  49.176  1.00  0.00    -0.270 OA
BRANCH   7  10
HETATM   10  C5  UNL     1      25.477   2.703  51.598  1.00  0.00     0.034 A 
HETATM   11  C4  UNL     1      24.552   1.931  52.231  1.00  0.00     0.030 A 
HETATM   12  C3  UNL     1      24.763   0.643  52.668  1.00  0.00     0.009 A 
HETATM   13  C2  UNL     1      25.985   0.063  52.467  1.00  0.00    -0.062 A 
HETATM   14  C1  UNL     1      26.330  -1.316  52.894  1.00  0.00     0.048 C 
HETATM   15  C18 UNL     1      26.948   0.814  51.830  1.00  0.00     0.009 A 
HETATM   16  C17 UNL     1      26.692   2.093  51.412  1.00  0.00     0.030 A 
ENDBRANCH   7  10
ENDBRANCH   1   6
BRANCH   4  17
HETATM   17  N4  UNL     1      24.502   7.159  51.839  1.00  0.00    -0.397 N 
HETATM   18  H17 UNL     1      24.040   6.253  52.115  1.00  0.00     0.156 HD
HETATM   19  H18 UNL     1      24.651   8.115  52.203  1.00  0.00     0.156 HD
ENDBRANCH   4  17
BRANCH   3  20
HETATM   20  N3  UNL     1      27.148   8.227  50.012  1.00  0.00    -0.371 N 
HETATM   21  H9  UNL     1      27.186   8.814  50.849  1.00  0.00     0.161 HD
BRANCH  20  22
HETATM   22  C9  UNL     1      28.193   8.416  49.068  1.00  0.00     0.160 C 
BRANCH  22  23
HETATM   23  C10 UNL     1      28.751   9.780  49.033  1.00  0.00    -0.041 A 
HETATM   24  C11 UNL     1      30.128   9.936  49.190  1.00  0.00     0.009 A 
HETATM   25  C12 UNL     1      30.738  11.185  49.170  1.00  0.00     0.001 A 
HETATM   26  C13 UNL     1      29.972  12.320  48.990  1.00  0.00     0.000 A 
HETATM   27  C14 UNL     1      28.605  12.190  48.831  1.00  0.00     0.001 A 
HETATM   28  C15 UNL     1      28.032  10.922  48.858  1.00  0.00     0.009 A 
ENDBRANCH  22  23
ENDBRANCH  20  22
ENDBRANCH   3  20
TORSDOF 6
ENDMDL
MODEL 9
REMARK VINA RESULT:      -7.0      7.091     10.381
REMARK  6 active torsions:
REMARK  status: ('A' for Active; 'I' for Inactive)
REMARK    1  A    between atoms: C5_5  and  N1_6 
REMARK       I    between atoms: N1_6  and  C6_7 
REMARK    2  A    between atoms: C6_7  and  C7_9 
REMARK    3  A    between atoms: C8_11  and  N3_12 
REMARK    4  A    between atoms: N3_12  and  C9_13 
REMARK    5  A    between atoms: C9_13  and  C10_14 
REMARK    6  A    between atoms: C16_20  and  N4_21 
ROOT
HETATM    1  C7  UNL     1      29.537   8.600  47.987  1.00  0.00     0.229 A 
HETATM    2  N2  UNL     1      30.473   7.794  47.262  1.00  0.00    -0.356 N 
HETATM    3  C8  UNL     1      31.514   8.014  48.204  1.00  0.00     0.123 A 
HETATM    4  C16 UNL     1      30.689   8.770  48.913  1.00  0.00     0.079 A 
HETATM    5  H8  UNL     1      30.453   7.243  46.386  1.00  0.00     0.162 HD
ENDROOT
BRANCH   1   6
HETATM    6  C6  UNL     1      28.397   7.836  48.549  1.00  0.00     0.251 C 
HETATM    7  N1  UNL     1      28.000   6.553  48.118  1.00  0.00    -0.325 N 
HETATM    8  H6  UNL     1      28.618   6.213  47.350  1.00  0.00     0.169 HD
HETATM    9  O1  UNL     1      27.767   8.407  49.470  1.00  0.00    -0.270 OA
BRANCH   7  10
HETATM   10  C5  UNL     1      26.935   5.749  48.587  1.00  0.00     0.034 A 
HETATM   11  C4  UNL     1      25.616   6.075  48.668  1.00  0.00     0.030 A 
HETATM   12  C3  UNL     1      24.623   5.245  49.136  1.00  0.00     0.009 A 
HETATM   13  C2  UNL     1      24.953   3.987  49.560  1.00  0.00    -0.062 A 
HETATM   14  C1  UNL     1      23.972   3.004  50.084  1.00  0.00     0.048 C 
HETATM   15  C18 UNL     1      26.278   3.620  49.494  1.00  0.00     0.009 A 
HETATM   16  C17 UNL     1      27.232   4.481  49.021  1.00  0.00     0.030 A 
ENDBRANCH   7  10
ENDBRANCH   1   6
BRANCH   4  17
HETATM   17  N4  UNL     1      30.719   9.533  50.125  1.00  0.00    -0.397 N 
HETATM   18  H17 UNL     1      30.098  10.359  49.920  1.00  0.00     0.156 HD
HETATM   19  H18 UNL     1      31.296   9.146  50.890  1.00  0.00     0.156 HD
ENDBRANCH   4  17
BRANCH   3  20
HETATM   20  N3  UNL     1      32.872   7.610  48.350  1.00  0.00    -0.371 N 
HETATM   21  H9  UNL     1      33.634   8.162  47.947  1.00  0.00     0.161 HD
BRANCH  20  22
HETATM   22  C9  UNL     1      33.255   6.436  49.051  1.00  0.00     0.160 C 
BRANCH  22  23
HETATM   23  C10 UNL     1      33.448   5.246  48.202  1.00  0.00    -0.041 A 
HETATM   24  C11 UNL     1      32.322   4.519  47.815  1.00  0.00     0.009 A 
HETATM   25  C12 UNL     1      32.413   3.385  47.016  1.00  0.00     0.001 A 
HETATM   26  C13 UNL     1      33.650   2.950  46.581  1.00  0.00     0.000 A 
HETATM   27  C14 UNL     1      34.779   3.656  46.950  1.00  0.00     0.001 A 
HETATM   28  C15 UNL     1      34.647   4.786  47.752  1.00  0.00     0.009 A 
ENDBRANCH  22  23
ENDBRANCH  20  22
ENDBRANCH   3  20
TORSDOF 6
ENDMDL
