MODEL 1
REMARK VINA RESULT:      -8.0      0.000      0.000
REMARK  10 active torsions:
REMARK  status: ('A' for Active; 'I' for Inactive)
REMARK    1  A    between atoms: C2_2  and  O1_3 
REMARK    2  A    between atoms: O1_3  and  C3_4 
REMARK    3  A    between atoms: C3_4  and  C4_6 
REMARK    4  A    between atoms: C4_6  and  N1_7 
REMARK    5  A    between atoms: N1_7  and  C5_8 
REMARK    6  A    between atoms: C10_15  and  N4_16 
REMARK    7  A    between atoms: N4_16  and  C11_17 
REMARK    8  A    between atoms: C14_20  and  O3_21 
REMARK    9  A    between atoms: O3_21  and  C15_22 
REMARK   10  A    between atoms: C15_22  and  C16_23 
ROOT
HETATM    1  N4  UNL     1      21.044   0.192  52.372  1.00  0.00    -0.376 N 
HETATM    2  H15 UNL     1      21.556  -0.354  51.634  1.00  0.00     0.160 HD
ENDROOT
BRANCH   1   3
HETATM    3  C10 UNL     1      21.782   0.499  53.546  1.00  0.00     0.161 A 
HETATM    4  C7  UNL     1      23.264   0.367  53.348  1.00  0.00     0.011 A 
HETATM    5  C5  UNL     1      23.834   1.099  52.415  1.00  0.00     0.011 C 
HETATM    6  C8  UNL     1      24.145  -0.512  54.109  1.00  0.00     0.152 A 
HETATM    7  C6  UNL     1      23.142   2.063  51.520  1.00  0.00     0.068 C 
HETATM    8  N2  UNL     1      23.698  -1.275  55.046  1.00  0.00    -0.163 NA
HETATM    9  N3  UNL     1      22.325  -1.219  55.299  1.00  0.00    -0.165 NA
HETATM   10  C9  UNL     1      21.488  -0.466  54.669  1.00  0.00     0.143 A 
BRANCH   5  11
HETATM   11  N1  UNL     1      25.236   1.021  52.179  1.00  0.00    -0.384 N 
HETATM   12  H8  UNL     1      25.299  -0.019  52.374  1.00  0.00     0.160 HD
BRANCH  11  13
HETATM   13  C4  UNL     1      26.418   1.775  51.818  1.00  0.00     0.230 C 
BRANCH  13  14
HETATM   14  C3  UNL     1      27.305   1.929  52.985  1.00  0.00     0.276 C 
HETATM   15  O2  UNL     1      26.710   2.182  54.062  1.00  0.00    -0.263 OA
BRANCH  14  16
HETATM   16  O1  UNL     1      28.690   1.824  53.004  1.00  0.00    -0.321 OA
BRANCH  16  17
HETATM   17  C2  UNL     1      29.301   0.857  53.846  1.00  0.00     0.174 C 
HETATM   18  C1  UNL     1      28.735  -0.490  53.492  1.00  0.00     0.034 C 
ENDBRANCH  16  17
ENDBRANCH  14  16
ENDBRANCH  13  14
ENDBRANCH  11  13
ENDBRANCH   5  11
ENDBRANCH   1   3
BRANCH   1  19
HETATM   19  C11 UNL     1      19.693   0.549  52.107  1.00  0.00     0.030 A 
HETATM   20  C12 UNL     1      18.771  -0.473  52.114  1.00  0.00     0.032 A 
HETATM   21  C13 UNL     1      17.473  -0.116  51.851  1.00  0.00     0.041 A 
HETATM   22  C14 UNL     1      16.990   1.121  51.586  1.00  0.00     0.091 A 
HETATM   23  C22 UNL     1      17.972   2.132  51.591  1.00  0.00     0.069 A 
HETATM   24 CL1  UNL     1      17.748   3.862  51.292  1.00  0.00    -0.081 Cl
HETATM   25  C23 UNL     1      19.320   1.850  51.849  1.00  0.00     0.056 A 
BRANCH  22  26
HETATM   26  O3  UNL     1      15.829   1.723  51.307  1.00  0.00    -0.345 OA
BRANCH  26  27
HETATM   27  C15 UNL     1      14.550   1.433  51.731  1.00  0.00     0.214 C 
BRANCH  27  28
HETATM   28  C16 UNL     1      14.018   2.485  52.609  1.00  0.00    -0.031 A 
HETATM   29  C17 UNL     1      14.446   3.711  53.027  1.00  0.00     0.009 A 
HETATM   30  C18 UNL     1      13.722   4.522  53.859  1.00  0.00     0.004 A 
HETATM   31  C19 UNL     1      12.499   4.152  54.338  1.00  0.00     0.042 A 
HETATM   32  C20 UNL     1      12.013   2.917  53.948  1.00  0.00     0.117 A 
HETATM   33  F1  UNL     1      10.798   2.591  54.446  1.00  0.00    -0.206 F 
HETATM   34  C21 UNL     1      12.758   2.115  53.109  1.00  0.00     0.051 A 
ENDBRANCH  27  28
ENDBRANCH  26  27
ENDBRANCH  22  26
ENDBRANCH   1  19
TORSDOF 10
ENDMDL
MODEL 2
REMARK VINA RESULT:      -8.0      7.089     11.202
REMARK  10 active torsions:
REMARK  status: ('A' for Active; 'I' for Inactive)
REMARK    1  A    between atoms: C2_2  and  O1_3 
REMARK    2  A    between atoms: O1_3  and  C3_4 
REMARK    3  A    between atoms: C3_4  and  C4_6 
REMARK    4  A    between atoms: C4_6  and  N1_7 
REMARK    5  A    between atoms: N1_7  and  C5_8 
REMARK    6  A    between atoms: C10_15  and  N4_16 
REMARK    7  A    between atoms: N4_16  and  C11_17 
REMARK    8  A    between atoms: C14_20  and  O3_21 
REMARK    9  A    between atoms: O3_21  and  C15_22 
REMARK   10  A    between atoms: C15_22  and  C16_23 
ROOT
HETATM    1  N4  UNL     1      24.763   3.298  50.138  1.00  0.00    -0.376 N 
HETATM    2  H15 UNL     1      24.502   2.459  49.562  1.00  0.00     0.160 HD
ENDROOT
BRANCH   1   3
HETATM    3  C10 UNL     1      24.275   3.315  51.472  1.00  0.00     0.161 A 
HETATM    4  C7  UNL     1      24.273   1.954  52.105  1.00  0.00     0.011 A 
HETATM    5  C5  UNL     1      25.417   1.309  52.194  1.00  0.00     0.011 C 
HETATM    6  C8  UNL     1      23.101   1.271  52.640  1.00  0.00     0.152 A 
HETATM    7  C6  UNL     1      26.736   1.805  51.722  1.00  0.00     0.068 C 
HETATM    8  N2  UNL     1      21.929   1.806  52.605  1.00  0.00    -0.163 NA
HETATM    9  N3  UNL     1      21.836   3.076  52.031  1.00  0.00    -0.165 NA
HETATM   10  C9  UNL     1      22.828   3.739  51.540  1.00  0.00     0.143 A 
BRANCH   5  11
HETATM   11  N1  UNL     1      25.482   0.015  52.785  1.00  0.00    -0.384 N 
HETATM   12  H8  UNL     1      25.125  -0.491  51.924  1.00  0.00     0.160 HD
BRANCH  11  13
HETATM   13  C4  UNL     1      25.821  -0.721  53.984  1.00  0.00     0.230 C 
BRANCH  13  14
HETATM   14  C3  UNL     1      26.863  -0.009  54.746  1.00  0.00     0.276 C 
HETATM   15  O2  UNL     1      26.472   1.045  55.306  1.00  0.00    -0.263 OA
BRANCH  14  16
HETATM   16  O1  UNL     1      28.193  -0.383  54.897  1.00  0.00    -0.321 OA
BRANCH  16  17
HETATM   17  C2  UNL     1      29.076  -0.265  53.792  1.00  0.00     0.174 C 
HETATM   18  C1  UNL     1      29.386  -1.650  53.295  1.00  0.00     0.034 C 
ENDBRANCH  16  17
ENDBRANCH  14  16
ENDBRANCH  13  14
ENDBRANCH  11  13
ENDBRANCH   5  11
ENDBRANCH   1   3
BRANCH   1  19
HETATM   19  C11 UNL     1      25.562   4.298  49.519  1.00  0.00     0.030 A 
HETATM   20  C12 UNL     1      26.867   3.960  49.239  1.00  0.00     0.032 A 
HETATM   21  C13 UNL     1      27.628   4.935  48.646  1.00  0.00     0.041 A 
HETATM   22  C14 UNL     1      27.250   6.190  48.303  1.00  0.00     0.091 A 
HETATM   23  C22 UNL     1      25.907   6.487  48.610  1.00  0.00     0.069 A 
HETATM   24 CL1  UNL     1      25.040   8.002  48.323  1.00  0.00    -0.081 Cl
HETATM   25  C23 UNL     1      25.064   5.547  49.216  1.00  0.00     0.056 A 
BRANCH  22  26
HETATM   26  O3  UNL     1      27.763   7.290  47.742  1.00  0.00    -0.345 OA
BRANCH  26  27
HETATM   27  C15 UNL     1      28.926   7.467  47.027  1.00  0.00     0.214 C 
BRANCH  27  28
HETATM   28  C16 UNL     1      30.117   7.280  47.869  1.00  0.00    -0.031 A 
HETATM   29  C17 UNL     1      30.688   7.956  48.907  1.00  0.00     0.009 A 
HETATM   30  C18 UNL     1      31.825   7.540  49.547  1.00  0.00     0.004 A 
HETATM   31  C19 UNL     1      32.478   6.399  49.182  1.00  0.00     0.042 A 
HETATM   32  C20 UNL     1      31.944   5.671  48.133  1.00  0.00     0.117 A 
HETATM   33  F1  UNL     1      32.623   4.547  47.805  1.00  0.00    -0.206 F 
HETATM   34  C21 UNL     1      30.798   6.107  47.502  1.00  0.00     0.051 A 
ENDBRANCH  27  28
ENDBRANCH  26  27
ENDBRANCH  22  26
ENDBRANCH   1  19
TORSDOF 10
ENDMDL
MODEL 3
REMARK VINA RESULT:      -8.0      7.563     10.823
REMARK  10 active torsions:
REMARK  status: ('A' for Active; 'I' for Inactive)
REMARK    1  A    between atoms: C2_2  and  O1_3 
REMARK    2  A    between atoms: O1_3  and  C3_4 
REMARK    3  A    between atoms: C3_4  and  C4_6 
REMARK    4  A    between atoms: C4_6  and  N1_7 
REMARK    5  A    between atoms: N1_7  and  C5_8 
REMARK    6  A    between atoms: C10_15  and  N4_16 
REMARK    7  A    between atoms: N4_16  and  C11_17 
REMARK    8  A    between atoms: C14_20  and  O3_21 
REMARK    9  A    between atoms: O3_21  and  C15_22 
REMARK   10  A    between atoms: C15_22  and  C16_23 
ROOT
HETATM    1  N4  UNL     1      25.850   5.192  50.189  1.00  0.00    -0.376 N 
HETATM    2  H15 UNL     1      26.423   5.870  50.752  1.00  0.00     0.160 HD
ENDROOT
BRANCH   1   3
HETATM    3  C10 UNL     1      25.400   5.656  48.924  1.00  0.00     0.161 A 
HETATM    4  C7  UNL     1      26.267   6.746  48.365  1.00  0.00     0.011 A 
HETATM    5  C5  UNL     1      27.543   6.486  48.171  1.00  0.00     0.011 C 
HETATM    6  C8  UNL     1      25.818   8.087  48.010  1.00  0.00     0.152 A 
HETATM    7  C6  UNL     1      28.223   5.196  48.456  1.00  0.00     0.068 C 
HETATM    8  N2  UNL     1      24.591   8.453  48.159  1.00  0.00    -0.163 NA
HETATM    9  N3  UNL     1      23.710   7.501  48.676  1.00  0.00    -0.165 NA
HETATM   10  C9  UNL     1      24.036   6.297  49.009  1.00  0.00     0.143 A 
BRANCH   5  11
HETATM   11  N1  UNL     1      28.418   7.477  47.642  1.00  0.00    -0.384 N 
HETATM   12  H8  UNL     1      27.648   8.022  47.157  1.00  0.00     0.160 HD
BRANCH  11  13
HETATM   13  C4  UNL     1      29.795   7.917  47.561  1.00  0.00     0.230 C 
BRANCH  13  14
HETATM   14  C3  UNL     1      30.277   8.342  48.887  1.00  0.00     0.276 C 
HETATM   15  O2  UNL     1      31.132   7.579  49.401  1.00  0.00    -0.263 OA
BRANCH  14  16
HETATM   16  O1  UNL     1      29.887   9.471  49.597  1.00  0.00    -0.321 OA
BRANCH  16  17
HETATM   17  C2  UNL     1      29.552  10.655  48.889  1.00  0.00     0.174 C 
HETATM   18  C1  UNL     1      30.703  11.615  49.020  1.00  0.00     0.034 C 
ENDBRANCH  16  17
ENDBRANCH  14  16
ENDBRANCH  13  14
ENDBRANCH  11  13
ENDBRANCH   5  11
ENDBRANCH   1   3
BRANCH   1  19
HETATM   19  C11 UNL     1      25.602   3.912  50.756  1.00  0.00     0.030 A 
HETATM   20  C12 UNL     1      26.614   2.984  50.654  1.00  0.00     0.032 A 
HETATM   21  C13 UNL     1      26.359   1.752  51.200  1.00  0.00     0.041 A 
HETATM   22  C14 UNL     1      25.232   1.338  51.828  1.00  0.00     0.091 A 
HETATM   23  C22 UNL     1      24.227   2.324  51.907  1.00  0.00     0.069 A 
HETATM   24 CL1  UNL     1      22.624   2.180  52.641  1.00  0.00    -0.081 Cl
HETATM   25  C23 UNL     1      24.408   3.606  51.373  1.00  0.00     0.056 A 
BRANCH  22  26
HETATM   26  O3  UNL     1      24.741   0.247  52.424  1.00  0.00    -0.345 OA
BRANCH  26  27
HETATM   27  C15 UNL     1      25.151  -0.406  53.565  1.00  0.00     0.214 C 
BRANCH  27  28
HETATM   28  C16 UNL     1      26.604  -0.630  53.571  1.00  0.00    -0.031 A 
HETATM   29  C17 UNL     1      27.456  -1.497  52.953  1.00  0.00     0.009 A 
HETATM   30  C18 UNL     1      28.814  -1.477  53.126  1.00  0.00     0.004 A 
HETATM   31  C19 UNL     1      29.420  -0.570  53.946  1.00  0.00     0.042 A 
HETATM   32  C20 UNL     1      28.605   0.336  54.601  1.00  0.00     0.117 A 
HETATM   33  F1  UNL     1      29.247   1.217  55.403  1.00  0.00    -0.206 F 
HETATM   34  C21 UNL     1      27.239   0.298  54.413  1.00  0.00     0.051 A 
ENDBRANCH  27  28
ENDBRANCH  26  27
ENDBRANCH  22  26
ENDBRANCH   1  19
TORSDOF 10
ENDMDL
MODEL 4
REMARK VINA RESULT:      -8.0      6.393      9.136
REMARK  10 active torsions:
REMARK  status: ('A' for Active; 'I' for Inactive)
REMARK    1  A    between atoms: C2_2  and  O1_3 
REMARK    2  A    between atoms: O1_3  and  C3_4 
REMARK    3  A    between atoms: C3_4  and  C4_6 
REMARK    4  A    between atoms: C4_6  and  N1_7 
REMARK    5  A    between atoms: N1_7  and  C5_8 
REMARK    6  A    between atoms: C10_15  and  N4_16 
REMARK    7  A    between atoms: N4_16  and  C11_17 
REMARK    8  A    between atoms: C14_20  and  O3_21 
REMARK    9  A    between atoms: O3_21  and  C15_22 
REMARK   10  A    between atoms: C15_22  and  C16_23 
ROOT
HETATM    1  N4  UNL     1      26.339   6.391  50.065  1.00  0.00    -0.376 N 
HETATM    2  H15 UNL     1      27.110   6.271  50.769  1.00  0.00     0.160 HD
ENDROOT
BRANCH   1   3
HETATM    3  C10 UNL     1      26.484   7.475  49.159  1.00  0.00     0.161 A 
HETATM    4  C7  UNL     1      27.915   7.896  48.986  1.00  0.00     0.011 A 
HETATM    5  C5  UNL     1      28.778   7.003  48.553  1.00  0.00     0.011 C 
HETATM    6  C8  UNL     1      28.443   9.228  49.258  1.00  0.00     0.152 A 
HETATM    7  C6  UNL     1      28.471   5.589  48.210  1.00  0.00     0.068 C 
HETATM    8  N2  UNL     1      27.690  10.182  49.688  1.00  0.00    -0.163 NA
HETATM    9  N3  UNL     1      26.340   9.879  49.879  1.00  0.00    -0.165 NA
HETATM   10  C9  UNL     1      25.804   8.726  49.658  1.00  0.00     0.143 A 
BRANCH   5  11
HETATM   11  N1  UNL     1      30.149   7.340  48.367  1.00  0.00    -0.384 N 
HETATM   12  H8  UNL     1      30.142   8.124  49.082  1.00  0.00     0.160 HD
BRANCH  11  13
HETATM   13  C4  UNL     1      31.358   7.018  47.639  1.00  0.00     0.230 C 
BRANCH  13  14
HETATM   14  C3  UNL     1      32.147   6.014  48.374  1.00  0.00     0.276 C 
HETATM   15  O2  UNL     1      33.161   6.471  48.956  1.00  0.00    -0.263 OA
BRANCH  14  16
HETATM   16  O1  UNL     1      31.881   4.654  48.479  1.00  0.00    -0.321 OA
BRANCH  16  17
HETATM   17  C2  UNL     1      32.704   3.731  47.781  1.00  0.00     0.174 C 
HETATM   18  C1  UNL     1      31.922   3.210  46.606  1.00  0.00     0.034 C 
ENDBRANCH  16  17
ENDBRANCH  14  16
ENDBRANCH  13  14
ENDBRANCH  11  13
ENDBRANCH   5  11
ENDBRANCH   1   3
BRANCH   1  19
HETATM   19  C11 UNL     1      25.260   5.465  50.108  1.00  0.00     0.030 A 
HETATM   20  C12 UNL     1      25.283   4.447  49.181  1.00  0.00     0.032 A 
HETATM   21  C13 UNL     1      24.234   3.565  49.230  1.00  0.00     0.041 A 
HETATM   22  C14 UNL     1      23.179   3.574  50.080  1.00  0.00     0.091 A 
HETATM   23  C22 UNL     1      23.202   4.634  51.008  1.00  0.00     0.069 A 
HETATM   24 CL1  UNL     1      22.018   4.993  52.273  1.00  0.00    -0.081 Cl
HETATM   25  C23 UNL     1      24.237   5.578  51.024  1.00  0.00     0.056 A 
BRANCH  22  26
HETATM   26  O3  UNL     1      22.071   2.871  50.335  1.00  0.00    -0.345 OA
BRANCH  26  27
HETATM   27  C15 UNL     1      21.876   1.509  50.406  1.00  0.00     0.214 C 
BRANCH  27  28
HETATM   28  C16 UNL     1      22.573   0.919  51.558  1.00  0.00    -0.031 A 
HETATM   29  C17 UNL     1      23.766   1.132  52.185  1.00  0.00     0.009 A 
HETATM   30  C18 UNL     1      24.178   0.432  53.286  1.00  0.00     0.004 A 
HETATM   31  C19 UNL     1      23.408  -0.548  53.844  1.00  0.00     0.042 A 
HETATM   32  C20 UNL     1      22.186  -0.808  53.250  1.00  0.00     0.117 A 
HETATM   33  F1  UNL     1      21.456  -1.786  53.835  1.00  0.00    -0.206 F 
HETATM   34  C21 UNL     1      21.790  -0.091  52.140  1.00  0.00     0.051 A 
ENDBRANCH  27  28
ENDBRANCH  26  27
ENDBRANCH  22  26
ENDBRANCH   1  19
TORSDOF 10
ENDMDL
MODEL 5
REMARK VINA RESULT:      -8.0      7.023     11.149
REMARK  10 active torsions:
REMARK  status: ('A' for Active; 'I' for Inactive)
REMARK    1  A    between atoms: C2_2  and  O1_3 
REMARK    2  A    between atoms: O1_3  and  C3_4 
REMARK    3  A    between atoms: C3_4  and  C4_6 
REMARK    4  A    between atoms: C4_6  and  N1_7 
REMARK    5  A    between atoms: N1_7  and  C5_8 
REMARK    6  A    between atoms: C10_15  and  N4_16 
REMARK    7  A    between atoms: N4_16  and  C11_17 
REMARK    8  A    between atoms: C14_20  and  O3_21 
REMARK    9  A    between atoms: O3_21  and  C15_22 
REMARK   10  A    between atoms: C15_22  and  C16_23 
ROOT
HETATM    1  N4  UNL     1      25.143   3.632  50.033  1.00  0.00    -0.376 N 
HETATM    2  H15 UNL     1      25.190   2.825  49.362  1.00  0.00     0.160 HD
ENDROOT
BRANCH   1   3
HETATM    3  C10 UNL     1      24.414   3.407  51.231  1.00  0.00     0.161 A 
HETATM    4  C7  UNL     1      24.509   1.987  51.707  1.00  0.00     0.011 A 
HETATM    5  C5  UNL     1      25.703   1.497  51.967  1.00  0.00     0.011 C 
HETATM    6  C8  UNL     1      23.381   1.086  51.915  1.00  0.00     0.152 A 
HETATM    7  C6  UNL     1      26.991   2.226  51.832  1.00  0.00     0.068 C 
HETATM    8  N2  UNL     1      22.166   1.457  51.692  1.00  0.00    -0.163 NA
HETATM    9  N3  UNL     1      21.983   2.767  51.242  1.00  0.00    -0.165 NA
HETATM   10  C9  UNL     1      22.932   3.618  51.039  1.00  0.00     0.143 A 
BRANCH   5  11
HETATM   11  N1  UNL     1      25.860   0.158  52.424  1.00  0.00    -0.384 N 
HETATM   12  H8  UNL     1      25.722  -0.276  51.467  1.00  0.00     0.160 HD
BRANCH  11  13
HETATM   13  C4  UNL     1      26.106  -0.675  53.582  1.00  0.00     0.230 C 
BRANCH  13  14
HETATM   14  C3  UNL     1      26.932   0.047  54.567  1.00  0.00     0.276 C 
HETATM   15  O2  UNL     1      26.361   1.025  55.110  1.00  0.00    -0.263 OA
BRANCH  14  16
HETATM   16  O1  UNL     1      28.239  -0.244  54.937  1.00  0.00    -0.321 OA
BRANCH  16  17
HETATM   17  C2  UNL     1      29.291  -0.009  54.012  1.00  0.00     0.174 C 
HETATM   18  C1  UNL     1      29.800  -1.342  53.539  1.00  0.00     0.034 C 
ENDBRANCH  16  17
ENDBRANCH  14  16
ENDBRANCH  13  14
ENDBRANCH  11  13
ENDBRANCH   5  11
ENDBRANCH   1   3
BRANCH   1  19
HETATM   19  C11 UNL     1      25.807   4.834  49.662  1.00  0.00     0.030 A 
HETATM   20  C12 UNL     1      26.957   4.699  48.916  1.00  0.00     0.032 A 
HETATM   21  C13 UNL     1      27.590   5.865  48.570  1.00  0.00     0.041 A 
HETATM   22  C14 UNL     1      27.221   7.133  48.872  1.00  0.00     0.091 A 
HETATM   23  C22 UNL     1      26.039   7.217  49.635  1.00  0.00     0.069 A 
HETATM   24 CL1  UNL     1      25.234   8.677  50.228  1.00  0.00    -0.081 Cl
HETATM   25  C23 UNL     1      25.333   6.074  50.031  1.00  0.00     0.056 A 
BRANCH  22  26
HETATM   26  O3  UNL     1      27.634   8.388  48.673  1.00  0.00    -0.345 OA
BRANCH  26  27
HETATM   27  C15 UNL     1      28.308   8.947  47.610  1.00  0.00     0.214 C 
BRANCH  27  28
HETATM   28  C16 UNL     1      29.191  10.042  48.041  1.00  0.00    -0.031 A 
HETATM   29  C17 UNL     1      30.539  10.254  48.057  1.00  0.00     0.009 A 
HETATM   30  C18 UNL     1      31.118  11.409  48.510  1.00  0.00     0.004 A 
HETATM   31  C19 UNL     1      30.372  12.447  48.988  1.00  0.00     0.042 A 
HETATM   32  C20 UNL     1      28.997  12.288  48.997  1.00  0.00     0.117 A 
HETATM   33  F1  UNL     1      28.297  13.341  49.480  1.00  0.00    -0.206 F 
HETATM   34  C21 UNL     1      28.434  11.116  48.536  1.00  0.00     0.051 A 
ENDBRANCH  27  28
ENDBRANCH  26  27
ENDBRANCH  22  26
ENDBRANCH   1  19
TORSDOF 10
ENDMDL
MODEL 6
REMARK VINA RESULT:      -7.8      5.531      9.270
REMARK  10 active torsions:
REMARK  status: ('A' for Active; 'I' for Inactive)
REMARK    1  A    between atoms: C2_2  and  O1_3 
REMARK    2  A    between atoms: O1_3  and  C3_4 
REMARK    3  A    between atoms: C3_4  and  C4_6 
REMARK    4  A    between atoms: C4_6  and  N1_7 
REMARK    5  A    between atoms: N1_7  and  C5_8 
REMARK    6  A    between atoms: C10_15  and  N4_16 
REMARK    7  A    between atoms: N4_16  and  C11_17 
REMARK    8  A    between atoms: C14_20  and  O3_21 
REMARK    9  A    between atoms: O3_21  and  C15_22 
REMARK   10  A    between atoms: C15_22  and  C16_23 
ROOT
HETATM    1  N4  UNL     1      20.960   1.192  49.578  1.00  0.00    -0.376 N 
HETATM    2  H15 UNL     1      21.128   0.658  48.689  1.00  0.00     0.160 HD
ENDROOT
BRANCH   1   3
HETATM    3  C10 UNL     1      19.839   2.064  49.580  1.00  0.00     0.161 A 
HETATM    4  C7  UNL     1      20.208   3.480  49.913  1.00  0.00     0.011 A 
HETATM    5  C5  UNL     1      21.084   4.092  49.144  1.00  0.00     0.011 C 
HETATM    6  C8  UNL     1      19.676   4.254  51.029  1.00  0.00     0.152 A 
HETATM    7  C6  UNL     1      21.756   3.507  47.954  1.00  0.00     0.068 C 
HETATM    8  N2  UNL     1      18.814   3.758  51.849  1.00  0.00    -0.163 NA
HETATM    9  N3  UNL     1      18.412   2.440  51.615  1.00  0.00    -0.165 NA
HETATM   10  C9  UNL     1      18.839   1.698  50.649  1.00  0.00     0.143 A 
BRANCH   5  11
HETATM   11  N1  UNL     1      21.475   5.435  49.406  1.00  0.00    -0.384 N 
HETATM   12  H8  UNL     1      20.508   5.840  49.243  1.00  0.00     0.160 HD
BRANCH  11  13
HETATM   13  C4  UNL     1      22.582   6.296  49.764  1.00  0.00     0.230 C 
BRANCH  13  14
HETATM   14  C3  UNL     1      23.435   5.641  50.772  1.00  0.00     0.276 C 
HETATM   15  O2  UNL     1      22.895   5.493  51.896  1.00  0.00    -0.263 OA
BRANCH  14  16
HETATM   16  O1  UNL     1      24.737   5.188  50.599  1.00  0.00    -0.321 OA
BRANCH  16  17
HETATM   17  C2  UNL     1      25.083   4.512  49.399  1.00  0.00     0.174 C 
HETATM   18  C1  UNL     1      26.489   3.999  49.544  1.00  0.00     0.034 C 
ENDBRANCH  16  17
ENDBRANCH  14  16
ENDBRANCH  13  14
ENDBRANCH  11  13
ENDBRANCH   5  11
ENDBRANCH   1   3
BRANCH   1  19
HETATM   19  C11 UNL     1      21.864   0.978  50.655  1.00  0.00     0.030 A 
HETATM   20  C12 UNL     1      23.042   1.691  50.623  1.00  0.00     0.032 A 
HETATM   21  C13 UNL     1      23.908   1.471  51.664  1.00  0.00     0.041 A 
HETATM   22  C14 UNL     1      23.744   0.637  52.719  1.00  0.00     0.091 A 
HETATM   23  C22 UNL     1      22.524  -0.069  52.705  1.00  0.00     0.069 A 
HETATM   24 CL1  UNL     1      21.939  -1.244  53.892  1.00  0.00    -0.081 Cl
HETATM   25  C23 UNL     1      21.586   0.098  51.678  1.00  0.00     0.056 A 
BRANCH  22  26
HETATM   26  O3  UNL     1      24.395   0.248  53.819  1.00  0.00    -0.345 OA
BRANCH  26  27
HETATM   27  C15 UNL     1      25.537  -0.509  53.959  1.00  0.00     0.214 C 
BRANCH  27  28
HETATM   28  C16 UNL     1      26.751   0.310  53.820  1.00  0.00    -0.031 A 
HETATM   29  C17 UNL     1      27.018   1.645  53.730  1.00  0.00     0.009 A 
HETATM   30  C18 UNL     1      28.282   2.159  53.622  1.00  0.00     0.004 A 
HETATM   31  C19 UNL     1      29.384   1.354  53.597  1.00  0.00     0.042 A 
HETATM   32  C20 UNL     1      29.175  -0.011  53.685  1.00  0.00     0.117 A 
HETATM   33  F1  UNL     1      30.295  -0.770  53.655  1.00  0.00    -0.206 F 
HETATM   34  C21 UNL     1      27.893  -0.508  53.792  1.00  0.00     0.051 A 
ENDBRANCH  27  28
ENDBRANCH  26  27
ENDBRANCH  22  26
ENDBRANCH   1  19
TORSDOF 10
ENDMDL
MODEL 7
REMARK VINA RESULT:      -7.7      6.005      8.557
REMARK  10 active torsions:
REMARK  status: ('A' for Active; 'I' for Inactive)
REMARK    1  A    between atoms: C2_2  and  O1_3 
REMARK    2  A    between atoms: O1_3  and  C3_4 
REMARK    3  A    between atoms: C3_4  and  C4_6 
REMARK    4  A    between atoms: C4_6  and  N1_7 
REMARK    5  A    between atoms: N1_7  and  C5_8 
REMARK    6  A    between atoms: C10_15  and  N4_16 
REMARK    7  A    between atoms: N4_16  and  C11_17 
REMARK    8  A    between atoms: C14_20  and  O3_21 
REMARK    9  A    between atoms: O3_21  and  C15_22 
REMARK   10  A    between atoms: C15_22  and  C16_23 
ROOT
HETATM    1  N4  UNL     1      26.153   6.113  50.097  1.00  0.00    -0.376 N 
HETATM    2  H15 UNL     1      26.824   6.088  50.906  1.00  0.00     0.160 HD
ENDROOT
BRANCH   1   3
HETATM    3  C10 UNL     1      26.231   7.256  49.258  1.00  0.00     0.161 A 
HETATM    4  C7  UNL     1      27.630   7.786  49.130  1.00  0.00     0.011 A 
HETATM    5  C5  UNL     1      28.558   6.982  48.657  1.00  0.00     0.011 C 
HETATM    6  C8  UNL     1      28.060   9.133  49.486  1.00  0.00     0.152 A 
HETATM    7  C6  UNL     1      28.355   5.573  48.229  1.00  0.00     0.068 C 
HETATM    8  N2  UNL     1      27.238  10.005  49.960  1.00  0.00    -0.163 NA
HETATM    9  N3  UNL     1      25.911   9.597  50.114  1.00  0.00    -0.165 NA
HETATM   10  C9  UNL     1      25.459   8.425  49.819  1.00  0.00     0.143 A 
BRANCH   5  11
HETATM   11  N1  UNL     1      29.904   7.425  48.510  1.00  0.00    -0.384 N 
HETATM   12  H8  UNL     1      29.742   7.877  47.565  1.00  0.00     0.160 HD
BRANCH  11  13
HETATM   13  C4  UNL     1      31.212   7.457  49.129  1.00  0.00     0.230 C 
BRANCH  13  14
HETATM   14  C3  UNL     1      31.852   6.132  49.043  1.00  0.00     0.276 C 
HETATM   15  O2  UNL     1      31.583   5.360  49.996  1.00  0.00    -0.263 OA
BRANCH  14  16
HETATM   16  O1  UNL     1      32.696   5.674  48.039  1.00  0.00    -0.321 OA
BRANCH  16  17
HETATM   17  C2  UNL     1      32.899   4.276  47.887  1.00  0.00     0.174 C 
HETATM   18  C1  UNL     1      31.907   3.772  46.875  1.00  0.00     0.034 C 
ENDBRANCH  16  17
ENDBRANCH  14  16
ENDBRANCH  13  14
ENDBRANCH  11  13
ENDBRANCH   5  11
ENDBRANCH   1   3
BRANCH   1  19
HETATM   19  C11 UNL     1      25.263   5.014  49.948  1.00  0.00     0.030 A 
HETATM   20  C12 UNL     1      24.305   5.125  48.965  1.00  0.00     0.032 A 
HETATM   21  C13 UNL     1      23.450   4.061  48.835  1.00  0.00     0.041 A 
HETATM   22  C14 UNL     1      23.434   2.915  49.556  1.00  0.00     0.091 A 
HETATM   23  C22 UNL     1      24.433   2.850  50.548  1.00  0.00     0.069 A 
HETATM   24 CL1  UNL     1      24.743   1.533  51.689  1.00  0.00    -0.081 Cl
HETATM   25  C23 UNL     1      25.346   3.894  50.746  1.00  0.00     0.056 A 
BRANCH  22  26
HETATM   26  O3  UNL     1      22.745   1.772  49.636  1.00  0.00    -0.345 OA
BRANCH  26  27
HETATM   27  C15 UNL     1      21.513   1.435  49.121  1.00  0.00     0.214 C 
BRANCH  27  28
HETATM   28  C16 UNL     1      20.596   0.963  50.169  1.00  0.00    -0.031 A 
HETATM   29  C17 UNL     1      19.242   0.869  50.304  1.00  0.00     0.009 A 
HETATM   30  C18 UNL     1      18.626   0.357  51.414  1.00  0.00     0.004 A 
HETATM   31  C19 UNL     1      19.339  -0.102  52.484  1.00  0.00     0.042 A 
HETATM   32  C20 UNL     1      20.718  -0.031  52.403  1.00  0.00     0.117 A 
HETATM   33  F1  UNL     1      21.385  -0.496  53.486  1.00  0.00    -0.206 F 
HETATM   34  C21 UNL     1      21.319   0.489  51.276  1.00  0.00     0.051 A 
ENDBRANCH  27  28
ENDBRANCH  26  27
ENDBRANCH  22  26
ENDBRANCH   1  19
TORSDOF 10
ENDMDL
MODEL 8
REMARK VINA RESULT:      -7.6      8.482     11.171
REMARK  10 active torsions:
REMARK  status: ('A' for Active; 'I' for Inactive)
REMARK    1  A    between atoms: C2_2  and  O1_3 
REMARK    2  A    between atoms: O1_3  and  C3_4 
REMARK    3  A    between atoms: C3_4  and  C4_6 
REMARK    4  A    between atoms: C4_6  and  N1_7 
REMARK    5  A    between atoms: N1_7  and  C5_8 
REMARK    6  A    between atoms: C10_15  and  N4_16 
REMARK    7  A    between atoms: N4_16  and  C11_17 
REMARK    8  A    between atoms: C14_20  and  O3_21 
REMARK    9  A    between atoms: O3_21  and  C15_22 
REMARK   10  A    between atoms: C15_22  and  C16_23 
ROOT
HETATM    1  N4  UNL     1      26.637   7.084  47.580  1.00  0.00    -0.376 N 
HETATM    2  H15 UNL     1      26.627   6.799  46.569  1.00  0.00     0.160 HD
ENDROOT
BRANCH   1   3
HETATM    3  C10 UNL     1      26.958   8.442  47.844  1.00  0.00     0.161 A 
HETATM    4  C7  UNL     1      28.127   8.590  48.774  1.00  0.00     0.011 A 
HETATM    5  C5  UNL     1      29.276   8.057  48.417  1.00  0.00     0.011 C 
HETATM    6  C8  UNL     1      28.106   9.284  50.057  1.00  0.00     0.152 A 
HETATM    7  C6  UNL     1      29.536   7.308  47.160  1.00  0.00     0.068 C 
HETATM    8  N2  UNL     1      27.036   9.843  50.508  1.00  0.00    -0.163 NA
HETATM    9  N3  UNL     1      25.895   9.753  49.707  1.00  0.00    -0.165 NA
HETATM   10  C9  UNL     1      25.841   9.158  48.563  1.00  0.00     0.143 A 
BRANCH   5  11
HETATM   11  N1  UNL     1      30.423   8.165  49.254  1.00  0.00    -0.384 N 
HETATM   12  H8  UNL     1      30.187   9.140  49.598  1.00  0.00     0.160 HD
BRANCH  11  13
HETATM   13  C4  UNL     1      31.616   7.489  49.717  1.00  0.00     0.230 C 
BRANCH  13  14
HETATM   14  C3  UNL     1      32.563   7.300  48.603  1.00  0.00     0.276 C 
HETATM   15  O2  UNL     1      33.314   8.283  48.385  1.00  0.00    -0.263 OA
BRANCH  14  16
HETATM   16  O1  UNL     1      32.697   6.174  47.800  1.00  0.00    -0.321 OA
BRANCH  16  17
HETATM   17  C2  UNL     1      32.242   4.919  48.284  1.00  0.00     0.174 C 
HETATM   18  C1  UNL     1      32.228   3.955  47.130  1.00  0.00     0.034 C 
ENDBRANCH  16  17
ENDBRANCH  14  16
ENDBRANCH  13  14
ENDBRANCH  11  13
ENDBRANCH   5  11
ENDBRANCH   1   3
BRANCH   1  19
HETATM   19  C11 UNL     1      26.333   6.085  48.546  1.00  0.00     0.030 A 
HETATM   20  C12 UNL     1      27.199   5.018  48.625  1.00  0.00     0.032 A 
HETATM   21  C13 UNL     1      26.891   4.060  49.557  1.00  0.00     0.041 A 
HETATM   22  C14 UNL     1      25.838   4.037  50.408  1.00  0.00     0.091 A 
HETATM   23  C22 UNL     1      24.982   5.150  50.289  1.00  0.00     0.069 A 
HETATM   24 CL1  UNL     1      23.511   5.489  51.211  1.00  0.00    -0.081 Cl
HETATM   25  C23 UNL     1      25.225   6.172  49.362  1.00  0.00     0.056 A 
BRANCH  22  26
HETATM   26  O3  UNL     1      25.323   3.264  51.370  1.00  0.00    -0.345 OA
BRANCH  26  27
HETATM   27  C15 UNL     1      25.276   1.892  51.482  1.00  0.00     0.214 C 
BRANCH  27  28
HETATM   28  C16 UNL     1      26.461   1.362  52.174  1.00  0.00    -0.031 A 
HETATM   29  C17 UNL     1      27.534   1.906  52.817  1.00  0.00     0.009 A 
HETATM   30  C18 UNL     1      28.517   1.161  53.410  1.00  0.00     0.004 A 
HETATM   31  C19 UNL     1      28.492  -0.203  53.397  1.00  0.00     0.042 A 
HETATM   32  C20 UNL     1      27.426  -0.811  52.758  1.00  0.00     0.117 A 
HETATM   33  F1  UNL     1      27.441  -2.165  52.768  1.00  0.00    -0.206 F 
HETATM   34  C21 UNL     1      26.445  -0.042  52.166  1.00  0.00     0.051 A 
ENDBRANCH  27  28
ENDBRANCH  26  27
ENDBRANCH  22  26
ENDBRANCH   1  19
TORSDOF 10
ENDMDL
MODEL 9
REMARK VINA RESULT:      -7.6      7.137     10.755
REMARK  10 active torsions:
REMARK  status: ('A' for Active; 'I' for Inactive)
REMARK    1  A    between atoms: C2_2  and  O1_3 
REMARK    2  A    between atoms: O1_3  and  C3_4 
REMARK    3  A    between atoms: C3_4  and  C4_6 
REMARK    4  A    between atoms: C4_6  and  N1_7 
REMARK    5  A    between atoms: N1_7  and  C5_8 
REMARK    6  A    between atoms: C10_15  and  N4_16 
REMARK    7  A    between atoms: N4_16  and  C11_17 
REMARK    8  A    between atoms: C14_20  and  O3_21 
REMARK    9  A    between atoms: O3_21  and  C15_22 
REMARK   10  A    between atoms: C15_22  and  C16_23 
ROOT
HETATM    1  N4  UNL     1      24.628   3.112  50.359  1.00  0.00    -0.376 N 
HETATM    2  H15 UNL     1      24.524   2.246  49.774  1.00  0.00     0.160 HD
ENDROOT
BRANCH   1   3
HETATM    3  C10 UNL     1      24.191   3.011  51.707  1.00  0.00     0.161 A 
HETATM    4  C7  UNL     1      24.415   1.645  52.287  1.00  0.00     0.011 A 
HETATM    5  C5  UNL     1      25.645   1.176  52.316  1.00  0.00     0.011 C 
HETATM    6  C8  UNL     1      23.378   0.776  52.831  1.00  0.00     0.152 A 
HETATM    7  C6  UNL     1      26.857   1.880  51.822  1.00  0.00     0.068 C 
HETATM    8  N2  UNL     1      22.139   1.130  52.853  1.00  0.00    -0.163 NA
HETATM    9  N3  UNL     1      21.837   2.390  52.331  1.00  0.00    -0.165 NA
HETATM   10  C9  UNL     1      22.701   3.211  51.837  1.00  0.00     0.143 A 
BRANCH   5  11
HETATM   11  N1  UNL     1      25.923  -0.113  52.854  1.00  0.00    -0.384 N 
HETATM   12  H8  UNL     1      25.605   0.133  53.835  1.00  0.00     0.160 HD
BRANCH  11  13
HETATM   13  C4  UNL     1      26.420  -1.438  52.551  1.00  0.00     0.230 C 
BRANCH  13  14
HETATM   14  C3  UNL     1      27.825  -1.569  52.977  1.00  0.00     0.276 C 
HETATM   15  O2  UNL     1      28.230  -2.753  53.083  1.00  0.00    -0.263 OA
BRANCH  14  16
HETATM   16  O1  UNL     1      28.712  -0.539  53.263  1.00  0.00    -0.321 OA
BRANCH  16  17
HETATM   17  C2  UNL     1      28.769  -0.018  54.583  1.00  0.00     0.174 C 
HETATM   18  C1  UNL     1      29.375   1.357  54.513  1.00  0.00     0.034 C 
ENDBRANCH  16  17
ENDBRANCH  14  16
ENDBRANCH  13  14
ENDBRANCH  11  13
ENDBRANCH   5  11
ENDBRANCH   1   3
BRANCH   1  19
HETATM   19  C11 UNL     1      25.185   4.263  49.736  1.00  0.00     0.030 A 
HETATM   20  C12 UNL     1      24.342   5.337  49.557  1.00  0.00     0.032 A 
HETATM   21  C13 UNL     1      24.890   6.438  48.950  1.00  0.00     0.041 A 
HETATM   22  C14 UNL     1      26.160   6.596  48.506  1.00  0.00     0.091 A 
HETATM   23  C22 UNL     1      26.982   5.470  48.713  1.00  0.00     0.069 A 
HETATM   24 CL1  UNL     1      28.687   5.279  48.279  1.00  0.00    -0.081 Cl
HETATM   25  C23 UNL     1      26.499   4.306  49.325  1.00  0.00     0.056 A 
BRANCH  22  26
HETATM   26  O3  UNL     1      26.922   7.516  47.907  1.00  0.00    -0.345 OA
BRANCH  26  27
HETATM   27  C15 UNL     1      26.944   8.886  48.050  1.00  0.00     0.214 C 
BRANCH  27  28
HETATM   28  C16 UNL     1      28.252   9.363  48.523  1.00  0.00    -0.031 A 
HETATM   29  C17 UNL     1      29.420   8.772  48.907  1.00  0.00     0.009 A 
HETATM   30  C18 UNL     1      30.529   9.472  49.298  1.00  0.00     0.004 A 
HETATM   31  C19 UNL     1      30.542  10.836  49.333  1.00  0.00     0.042 A 
HETATM   32  C20 UNL     1      29.384  11.491  48.954  1.00  0.00     0.117 A 
HETATM   33  F1  UNL     1      29.441  12.842  49.004  1.00  0.00    -0.206 F 
HETATM   34  C21 UNL     1      28.277  10.766  48.564  1.00  0.00     0.051 A 
ENDBRANCH  27  28
ENDBRANCH  26  27
ENDBRANCH  22  26
ENDBRANCH   1  19
TORSDOF 10
ENDMDL
