MODEL 1
REMARK VINA RESULT:      -7.5      0.000      0.000
REMARK  1 active torsions:
REMARK  status: ('A' for Active; 'I' for Inactive)
REMARK    1  A    between atoms: S1_14  and  N2_15 
ROOT
HETATM    1  C1  UNL     1      21.001   4.558  51.545  1.00  0.00     0.070 C 
HETATM    2  C2  UNL     1      22.412   4.246  51.250  1.00  0.00     0.030 C 
HETATM    3  C3  UNL     1      22.518   3.995  49.952  1.00  0.00     0.029 C 
HETATM    4  C4  UNL     1      22.350   3.770  48.525  1.00  0.00     0.299 C 
HETATM    5  N1  UNL     1      22.701   2.444  48.050  1.00  0.00     0.087 N 
HETATM    6  C5  UNL     1      21.753   1.357  48.467  1.00  0.00     0.274 C 
HETATM    7  C6  UNL     1      21.896   1.436  49.872  1.00  0.00     0.070 C 
HETATM    8  C7  UNL     1      21.534   0.957  51.143  1.00  0.00    -0.038 A 
HETATM    9  C8  UNL     1      20.409   0.242  51.329  1.00  0.00     0.010 A 
HETATM   10  C9  UNL     1      19.826  -0.291  52.462  1.00  0.00     0.016 A 
HETATM   11  P1  UNL     1      20.792   0.080  53.856  1.00  0.00    -0.033 P 
HETATM   12  C10 UNL     1      22.208   1.003  53.458  1.00  0.00     0.036 A 
HETATM   13  C11 UNL     1      22.454   1.358  52.155  1.00  0.00     0.024 A 
HETATM   14  S1  UNL     1      24.044   2.235  52.034  1.00  0.00    -0.032 SA
HETATM   15  C17 UNL     1      24.113   3.708  52.667  1.00  0.00     0.144 C 
HETATM   16  N3  UNL     1      23.061   4.349  52.486  1.00  0.00    -0.243 NA
HETATM   17  H7  UNL     1      22.946   2.392  47.074  1.00  0.00     0.316 HD
ENDROOT
BRANCH  14  18
HETATM   18  N2  UNL     1      25.507   1.289  52.597  1.00  0.00    -0.327 N 
HETATM   19  C12 UNL     1      25.785  -0.087  52.333  1.00  0.00     0.117 A 
HETATM   20  C13 UNL     1      26.908  -0.564  52.837  1.00  0.00     0.026 A 
HETATM   21 BR1  UNL     1      27.205  -2.392  52.444  1.00  0.00    -0.050 Br
HETATM   22  C14 UNL     1      27.831   0.243  53.624  1.00  0.00     0.018 A 
HETATM   23  C15 UNL     1      27.513   1.508  53.833  1.00  0.00    -0.005 A 
HETATM   24  C16 UNL     1      26.308   2.232  53.358  1.00  0.00     0.163 A 
ENDBRANCH  14  18
TORSDOF 1
ENDMDL
MODEL 2
REMARK VINA RESULT:      -7.1     10.119     12.101
REMARK  1 active torsions:
REMARK  status: ('A' for Active; 'I' for Inactive)
REMARK    1  A    between atoms: S1_14  and  N2_15 
ROOT
HETATM    1  C1  UNL     1      35.171   8.071  47.620  1.00  0.00     0.070 C 
HETATM    2  C2  UNL     1      34.130   7.462  48.469  1.00  0.00     0.030 C 
HETATM    3  C3  UNL     1      34.456   6.194  48.679  1.00  0.00     0.029 C 
HETATM    4  C4  UNL     1      35.043   4.864  48.744  1.00  0.00     0.299 C 
HETATM    5  N1  UNL     1      34.229   3.789  48.210  1.00  0.00     0.087 N 
HETATM    6  C5  UNL     1      34.084   3.795  46.716  1.00  0.00     0.274 C 
HETATM    7  C6  UNL     1      33.439   5.042  46.538  1.00  0.00     0.070 C 
HETATM    8  C7  UNL     1      32.880   5.988  45.664  1.00  0.00    -0.038 A 
HETATM    9  C8  UNL     1      33.172   5.989  44.350  1.00  0.00     0.010 A 
HETATM   10  C9  UNL     1      32.793   6.822  43.316  1.00  0.00     0.016 A 
HETATM   11  P1  UNL     1      31.748   8.072  43.916  1.00  0.00    -0.033 P 
HETATM   12  C10 UNL     1      31.463   7.939  45.623  1.00  0.00     0.036 A 
HETATM   13  C11 UNL     1      32.044   6.924  46.341  1.00  0.00     0.024 A 
HETATM   14  S1  UNL     1      31.495   6.987  48.075  1.00  0.00    -0.032 SA
HETATM   15  C17 UNL     1      32.035   8.208  48.966  1.00  0.00     0.144 C 
HETATM   16  N3  UNL     1      33.217   8.497  48.703  1.00  0.00    -0.243 NA
HETATM   17  H7  UNL     1      34.438   2.874  48.576  1.00  0.00     0.316 HD
ENDROOT
BRANCH  14  18
HETATM   18  N2  UNL     1      29.689   6.832  48.331  1.00  0.00    -0.327 N 
HETATM   19  C12 UNL     1      28.768   7.897  48.574  1.00  0.00     0.117 A 
HETATM   20  C13 UNL     1      27.502   7.552  48.726  1.00  0.00     0.026 A 
HETATM   21 BR1  UNL     1      26.346   9.018  49.044  1.00  0.00    -0.050 Br
HETATM   22  C14 UNL     1      27.041   6.172  48.657  1.00  0.00     0.018 A 
HETATM   23  C15 UNL     1      27.946   5.236  48.431  1.00  0.00    -0.005 A 
HETATM   24  C16 UNL     1      29.406   5.411  48.234  1.00  0.00     0.163 A 
ENDBRANCH  14  18
TORSDOF 1
ENDMDL
MODEL 3
REMARK VINA RESULT:      -7.0      2.455      3.585
REMARK  1 active torsions:
REMARK  status: ('A' for Active; 'I' for Inactive)
REMARK    1  A    between atoms: S1_14  and  N2_15 
ROOT
HETATM    1  C1  UNL     1      21.882   6.242  51.079  1.00  0.00     0.070 C 
HETATM    2  C2  UNL     1      23.063   5.698  51.775  1.00  0.00     0.030 C 
HETATM    3  C3  UNL     1      24.143   6.290  51.282  1.00  0.00     0.029 C 
HETATM    4  C4  UNL     1      25.139   7.079  50.573  1.00  0.00     0.299 C 
HETATM    5  N1  UNL     1      26.122   6.323  49.820  1.00  0.00     0.087 N 
HETATM    6  C5  UNL     1      25.587   5.650  48.589  1.00  0.00     0.274 C 
HETATM    7  C6  UNL     1      24.639   4.782  49.179  1.00  0.00     0.070 C 
HETATM    8  C7  UNL     1      23.655   3.792  49.015  1.00  0.00    -0.038 A 
HETATM    9  C8  UNL     1      23.058   3.585  47.827  1.00  0.00     0.010 A 
HETATM   10  C9  UNL     1      22.055   2.723  47.431  1.00  0.00     0.016 A 
HETATM   11  P1  UNL     1      21.528   1.767  48.781  1.00  0.00    -0.033 P 
HETATM   12  C10 UNL     1      22.389   2.145  50.240  1.00  0.00     0.036 A 
HETATM   13  C11 UNL     1      23.365   3.111  50.233  1.00  0.00     0.024 A 
HETATM   14  S1  UNL     1      24.149   3.222  51.872  1.00  0.00    -0.032 SA
HETATM   15  C17 UNL     1      23.262   3.830  53.064  1.00  0.00     0.144 C 
HETATM   16  N3  UNL     1      22.540   4.769  52.682  1.00  0.00    -0.243 NA
HETATM   17  H7  UNL     1      26.992   6.803  49.653  1.00  0.00     0.316 HD
ENDROOT
BRANCH  14  18
HETATM   18  N2  UNL     1      24.948   1.685  52.465  1.00  0.00    -0.327 N 
HETATM   19  C12 UNL     1      24.522   0.870  53.558  1.00  0.00     0.117 A 
HETATM   20  C13 UNL     1      25.251  -0.202  53.807  1.00  0.00     0.026 A 
HETATM   21 BR1  UNL     1      24.623  -1.229  55.269  1.00  0.00    -0.050 Br
HETATM   22  C14 UNL     1      26.430  -0.559  53.029  1.00  0.00     0.018 A 
HETATM   23  C15 UNL     1      26.770   0.239  52.032  1.00  0.00    -0.005 A 
HETATM   24  C16 UNL     1      26.091   1.482  51.592  1.00  0.00     0.163 A 
ENDBRANCH  14  18
TORSDOF 1
ENDMDL
MODEL 4
REMARK VINA RESULT:      -6.9      3.465      5.329
REMARK  1 active torsions:
REMARK  status: ('A' for Active; 'I' for Inactive)
REMARK    1  A    between atoms: S1_14  and  N2_15 
ROOT
HETATM    1  C1  UNL     1      22.809   5.000  47.498  1.00  0.00     0.070 C 
HETATM    2  C2  UNL     1      22.620   4.357  48.812  1.00  0.00     0.030 C 
HETATM    3  C3  UNL     1      22.043   5.233  49.624  1.00  0.00     0.029 C 
HETATM    4  C4  UNL     1      21.422   6.370  50.285  1.00  0.00     0.299 C 
HETATM    5  N1  UNL     1      22.128   6.891  51.440  1.00  0.00     0.087 N 
HETATM    6  C5  UNL     1      23.408   7.608  51.121  1.00  0.00     0.274 C 
HETATM    7  C6  UNL     1      24.138   6.552  50.527  1.00  0.00     0.070 C 
HETATM    8  C7  UNL     1      25.324   6.107  49.919  1.00  0.00    -0.038 A 
HETATM    9  C8  UNL     1      26.208   6.973  49.389  1.00  0.00     0.010 A 
HETATM   10  C9  UNL     1      27.398   6.785  48.714  1.00  0.00     0.016 A 
HETATM   11  P1  UNL     1      27.736   5.089  48.568  1.00  0.00    -0.033 P 
HETATM   12  C10 UNL     1      26.510   4.101  49.299  1.00  0.00     0.036 A 
HETATM   13  C11 UNL     1      25.425   4.685  49.903  1.00  0.00     0.024 A 
HETATM   14  S1  UNL     1      24.363   3.411  50.653  1.00  0.00    -0.032 SA
HETATM   15  C17 UNL     1      23.554   2.455  49.650  1.00  0.00     0.144 C 
HETATM   16  N3  UNL     1      23.137   3.066  48.649  1.00  0.00    -0.243 NA
HETATM   17  H7  UNL     1      21.556   7.395  52.099  1.00  0.00     0.316 HD
ENDROOT
BRANCH  14  18
HETATM   18  N2  UNL     1      25.166   2.373  51.929  1.00  0.00    -0.327 N 
HETATM   19  C12 UNL     1      26.526   2.452  52.359  1.00  0.00     0.117 A 
HETATM   20  C13 UNL     1      26.892   1.601  53.301  1.00  0.00     0.026 A 
HETATM   21 BR1  UNL     1      28.707   1.768  53.816  1.00  0.00    -0.050 Br
HETATM   22  C14 UNL     1      25.982   0.627  53.888  1.00  0.00     0.018 A 
HETATM   23  C15 UNL     1      24.738   0.606  53.443  1.00  0.00    -0.005 A 
HETATM   24  C16 UNL     1      24.132   1.468  52.399  1.00  0.00     0.163 A 
ENDBRANCH  14  18
TORSDOF 1
ENDMDL
MODEL 5
REMARK VINA RESULT:      -6.8      7.448      9.178
REMARK  1 active torsions:
REMARK  status: ('A' for Active; 'I' for Inactive)
REMARK    1  A    between atoms: S1_14  and  N2_15 
ROOT
HETATM    1  C1  UNL     1      28.141  11.295  48.484  1.00  0.00     0.070 C 
HETATM    2  C2  UNL     1      28.185  10.089  49.331  1.00  0.00     0.030 C 
HETATM    3  C3  UNL     1      29.412   9.588  49.276  1.00  0.00     0.029 C 
HETATM    4  C4  UNL     1      30.809   9.260  49.038  1.00  0.00     0.299 C 
HETATM    5  N1  UNL     1      31.058   7.969  48.425  1.00  0.00     0.087 N 
HETATM    6  C5  UNL     1      30.654   7.872  46.982  1.00  0.00     0.274 C 
HETATM    7  C6  UNL     1      29.263   8.104  47.103  1.00  0.00     0.070 C 
HETATM    8  C7  UNL     1      28.010   8.233  46.480  1.00  0.00    -0.038 A 
HETATM    9  C8  UNL     1      27.905   8.480  45.161  1.00  0.00     0.010 A 
HETATM   10  C9  UNL     1      26.812   8.686  44.342  1.00  0.00     0.016 A 
HETATM   11  P1  UNL     1      25.348   8.592  45.270  1.00  0.00    -0.033 P 
HETATM   12  C10 UNL     1      25.645   8.268  46.949  1.00  0.00     0.036 A 
HETATM   13  C11 UNL     1      26.931   8.118  47.405  1.00  0.00     0.024 A 
HETATM   14  S1  UNL     1      26.925   7.699  49.176  1.00  0.00    -0.032 SA
HETATM   15  C17 UNL     1      26.476   8.854  50.196  1.00  0.00     0.144 C 
HETATM   16  N3  UNL     1      26.889   9.976  49.849  1.00  0.00    -0.243 NA
HETATM   17  H7  UNL     1      31.973   7.585  48.598  1.00  0.00     0.316 HD
ENDROOT
BRANCH  14  18
HETATM   18  N2  UNL     1      26.039   6.157  49.614  1.00  0.00    -0.327 N 
HETATM   19  C12 UNL     1      24.843   6.052  50.388  1.00  0.00     0.117 A 
HETATM   20  C13 UNL     1      24.374   4.832  50.577  1.00  0.00     0.026 A 
HETATM   21 BR1  UNL     1      22.789   4.776  51.611  1.00  0.00    -0.050 Br
HETATM   22  C14 UNL     1      25.019   3.641  50.040  1.00  0.00     0.018 A 
HETATM   23  C15 UNL     1      26.124   3.810  49.334  1.00  0.00    -0.005 A 
HETATM   24  C16 UNL     1      26.810   5.084  49.009  1.00  0.00     0.163 A 
ENDBRANCH  14  18
TORSDOF 1
ENDMDL
MODEL 6
REMARK VINA RESULT:      -6.5      3.845      5.160
REMARK  1 active torsions:
REMARK  status: ('A' for Active; 'I' for Inactive)
REMARK    1  A    between atoms: S1_14  and  N2_15 
ROOT
HETATM    1  C1  UNL     1      19.889   4.337  50.839  1.00  0.00     0.070 C 
HETATM    2  C2  UNL     1      20.685   5.158  49.908  1.00  0.00     0.030 C 
HETATM    3  C3  UNL     1      20.632   4.595  48.708  1.00  0.00     0.029 C 
HETATM    4  C4  UNL     1      20.408   3.780  47.524  1.00  0.00     0.299 C 
HETATM    5  N1  UNL     1      21.597   3.213  46.915  1.00  0.00     0.087 N 
HETATM    6  C5  UNL     1      22.246   2.117  47.709  1.00  0.00     0.274 C 
HETATM    7  C6  UNL     1      22.582   2.831  48.883  1.00  0.00     0.070 C 
HETATM    8  C7  UNL     1      23.157   2.829  50.164  1.00  0.00    -0.038 A 
HETATM    9  C8  UNL     1      23.351   1.684  50.845  1.00  0.00     0.010 A 
HETATM   10  C9  UNL     1      23.846   1.429  52.108  1.00  0.00     0.016 A 
HETATM   11  P1  UNL     1      24.273   2.919  52.890  1.00  0.00    -0.033 P 
HETATM   12  C10 UNL     1      23.969   4.305  51.890  1.00  0.00     0.036 A 
HETATM   13  C11 UNL     1      23.445   4.145  50.632  1.00  0.00     0.024 A 
HETATM   14  S1  UNL     1      23.322   5.756  49.793  1.00  0.00    -0.032 SA
HETATM   15  C17 UNL     1      22.221   6.783  50.348  1.00  0.00     0.144 C 
HETATM   16  N3  UNL     1      21.172   6.209  50.694  1.00  0.00    -0.243 NA
HETATM   17  H7  UNL     1      21.507   2.984  45.938  1.00  0.00     0.316 HD
ENDROOT
BRANCH  14  18
HETATM   18  N2  UNL     1      24.904   6.653  49.583  1.00  0.00    -0.327 N 
HETATM   19  C12 UNL     1      26.099   6.144  48.989  1.00  0.00     0.117 A 
HETATM   20  C13 UNL     1      27.126   6.974  48.939  1.00  0.00     0.026 A 
HETATM   21 BR1  UNL     1      28.671   6.227  48.138  1.00  0.00    -0.050 Br
HETATM   22  C14 UNL     1      27.073   8.336  49.453  1.00  0.00     0.018 A 
HETATM   23  C15 UNL     1      25.936   8.742  49.991  1.00  0.00    -0.005 A 
HETATM   24  C16 UNL     1      24.677   7.973  50.144  1.00  0.00     0.163 A 
ENDBRANCH  14  18
TORSDOF 1
ENDMDL
MODEL 7
REMARK VINA RESULT:      -6.4      2.875      4.894
REMARK  1 active torsions:
REMARK  status: ('A' for Active; 'I' for Inactive)
REMARK    1  A    between atoms: S1_14  and  N2_15 
ROOT
HETATM    1  C1  UNL     1      21.890   3.510  46.733  1.00  0.00     0.070 C 
HETATM    2  C2  UNL     1      21.222   2.871  47.882  1.00  0.00     0.030 C 
HETATM    3  C3  UNL     1      20.308   3.711  48.350  1.00  0.00     0.029 C 
HETATM    4  C4  UNL     1      19.399   4.806  48.652  1.00  0.00     0.299 C 
HETATM    5  N1  UNL     1      19.537   5.394  49.971  1.00  0.00     0.087 N 
HETATM    6  C5  UNL     1      20.786   6.202  50.171  1.00  0.00     0.274 C 
HETATM    7  C6  UNL     1      21.761   5.197  49.971  1.00  0.00     0.070 C 
HETATM    8  C7  UNL     1      23.118   4.836  49.918  1.00  0.00    -0.038 A 
HETATM    9  C8  UNL     1      24.084   5.760  49.757  1.00  0.00     0.010 A 
HETATM   10  C9  UNL     1      25.455   5.655  49.634  1.00  0.00     0.016 A 
HETATM   11  P1  UNL     1      25.932   3.987  49.711  1.00  0.00    -0.033 P 
HETATM   12  C10 UNL     1      24.580   2.919  49.921  1.00  0.00     0.036 A 
HETATM   13  C11 UNL     1      23.308   3.426  50.005  1.00  0.00     0.024 A 
HETATM   14  S1  UNL     1      22.116   2.084  50.311  1.00  0.00    -0.032 SA
HETATM   15  C17 UNL     1      21.851   1.057  49.108  1.00  0.00     0.144 C 
HETATM   16  N3  UNL     1      21.842   1.622  47.999  1.00  0.00    -0.243 NA
HETATM   17  H7  UNL     1      18.713   5.860  50.318  1.00  0.00     0.316 HD
ENDROOT
BRANCH  14  18
HETATM   18  N2  UNL     1      22.392   1.126  51.847  1.00  0.00    -0.327 N 
HETATM   19  C12 UNL     1      23.651   0.695  52.367  1.00  0.00     0.117 A 
HETATM   20  C13 UNL     1      23.614   0.015  53.499  1.00  0.00     0.026 A 
HETATM   21 BR1  UNL     1      25.320  -0.520  54.122  1.00  0.00    -0.050 Br
HETATM   22  C14 UNL     1      22.375  -0.292  54.201  1.00  0.00     0.018 A 
HETATM   23  C15 UNL     1      21.245   0.135  53.664  1.00  0.00    -0.005 A 
HETATM   24  C16 UNL     1      21.071   0.907  52.409  1.00  0.00     0.163 A 
ENDBRANCH  14  18
TORSDOF 1
ENDMDL
MODEL 8
REMARK VINA RESULT:      -6.3     11.932     13.750
REMARK  1 active torsions:
REMARK  status: ('A' for Active; 'I' for Inactive)
REMARK    1  A    between atoms: S1_14  and  N2_15 
ROOT
HETATM    1  C1  UNL     1      31.955   5.501  48.937  1.00  0.00     0.070 C 
HETATM    2  C2  UNL     1      33.001   5.089  47.982  1.00  0.00     0.030 C 
HETATM    3  C3  UNL     1      34.172   5.509  48.443  1.00  0.00     0.029 C 
HETATM    4  C4  UNL     1      35.299   6.076  49.167  1.00  0.00     0.299 C 
HETATM    5  N1  UNL     1      36.056   7.092  48.459  1.00  0.00     0.087 N 
HETATM    6  C5  UNL     1      35.339   8.400  48.285  1.00  0.00     0.274 C 
HETATM    7  C6  UNL     1      34.235   7.973  47.510  1.00  0.00     0.070 C 
HETATM    8  C7  UNL     1      33.045   8.297  46.838  1.00  0.00    -0.038 A 
HETATM    9  C8  UNL     1      32.377   9.435  47.102  1.00  0.00     0.010 A 
HETATM   10  C9  UNL     1      31.190   9.947  46.618  1.00  0.00     0.016 A 
HETATM   11  P1  UNL     1      30.501   8.853  45.460  1.00  0.00    -0.033 P 
HETATM   12  C10 UNL     1      31.474   7.435  45.224  1.00  0.00     0.036 A 
HETATM   13  C11 UNL     1      32.645   7.279  45.923  1.00  0.00     0.024 A 
HETATM   14  S1  UNL     1      33.488   5.751  45.404  1.00  0.00    -0.032 SA
HETATM   15  C17 UNL     1      32.806   4.363  45.831  1.00  0.00     0.144 C 
HETATM   16  N3  UNL     1      32.308   4.413  46.971  1.00  0.00    -0.243 NA
HETATM   17  H7  UNL     1      37.007   7.209  48.770  1.00  0.00     0.316 HD
ENDROOT
BRANCH  14  18
HETATM   18  N2  UNL     1      33.930   5.663  43.629  1.00  0.00    -0.327 N 
HETATM   19  C12 UNL     1      33.641   4.590  42.732  1.00  0.00     0.117 A 
HETATM   20  C13 UNL     1      34.053   4.743  41.486  1.00  0.00     0.026 A 
HETATM   21 BR1  UNL     1      33.633   3.280  40.360  1.00  0.00    -0.050 Br
HETATM   22  C14 UNL     1      34.764   5.927  41.024  1.00  0.00     0.018 A 
HETATM   23  C15 UNL     1      35.000   6.882  41.907  1.00  0.00    -0.005 A 
HETATM   24  C16 UNL     1      34.626   6.905  43.342  1.00  0.00     0.163 A 
ENDBRANCH  14  18
TORSDOF 1
ENDMDL
MODEL 9
REMARK VINA RESULT:      -6.2      5.146      6.111
REMARK  1 active torsions:
REMARK  status: ('A' for Active; 'I' for Inactive)
REMARK    1  A    between atoms: S1_14  and  N2_15 
ROOT
HETATM    1  C1  UNL     1      21.481   7.086  50.596  1.00  0.00     0.070 C 
HETATM    2  C2  UNL     1      22.543   7.649  49.742  1.00  0.00     0.030 C 
HETATM    3  C3  UNL     1      22.125   7.613  48.483  1.00  0.00     0.029 C 
HETATM    4  C4  UNL     1      21.429   7.455  47.216  1.00  0.00     0.299 C 
HETATM    5  N1  UNL     1      22.083   6.603  46.240  1.00  0.00     0.087 N 
HETATM    6  C5  UNL     1      22.075   5.141  46.578  1.00  0.00     0.274 C 
HETATM    7  C6  UNL     1      22.809   5.165  47.787  1.00  0.00     0.070 C 
HETATM    8  C7  UNL     1      23.360   4.460  48.869  1.00  0.00    -0.038 A 
HETATM    9  C8  UNL     1      22.937   3.223  49.189  1.00  0.00     0.010 A 
HETATM   10  C9  UNL     1      23.283   2.360  50.210  1.00  0.00     0.016 A 
HETATM   11  P1  UNL     1      24.494   3.090  51.218  1.00  0.00    -0.033 P 
HETATM   12  C10 UNL     1      24.938   4.679  50.680  1.00  0.00     0.036 A 
HETATM   13  C11 UNL     1      24.342   5.221  49.568  1.00  0.00     0.024 A 
HETATM   14  S1  UNL     1      25.069   6.848  49.197  1.00  0.00    -0.032 SA
HETATM   15  C17 UNL     1      24.736   8.043  50.215  1.00  0.00     0.144 C 
HETATM   16  N3  UNL     1      23.565   7.994  50.634  1.00  0.00    -0.243 NA
HETATM   17  H7  UNL     1      21.830   6.781  45.281  1.00  0.00     0.316 HD
ENDROOT
BRANCH  14  18
HETATM   18  N2  UNL     1      26.870   6.845  48.868  1.00  0.00    -0.327 N 
HETATM   19  C12 UNL     1      27.748   7.971  48.926  1.00  0.00     0.117 A 
HETATM   20  C13 UNL     1      29.019   7.735  48.653  1.00  0.00     0.026 A 
HETATM   21 BR1  UNL     1      30.117   9.275  48.750  1.00  0.00    -0.050 Br
HETATM   22  C14 UNL     1      29.526   6.413  48.309  1.00  0.00     0.018 A 
HETATM   23  C15 UNL     1      28.659   5.416  48.273  1.00  0.00    -0.005 A 
HETATM   24  C16 UNL     1      27.202   5.469  48.543  1.00  0.00     0.163 A 
ENDBRANCH  14  18
TORSDOF 1
ENDMDL
