MODEL 1
REMARK VINA RESULT:      -8.3      0.000      0.000
REMARK  6 active torsions:
REMARK  status: ('A' for Active; 'I' for Inactive)
REMARK    1  A    between atoms: C2_2  and  C3_3 
REMARK    2  A    between atoms: C4_4  and  C5_5 
REMARK    3  A    between atoms: C5_5  and  C6_7 
REMARK    4  A    between atoms: C6_7  and  N1_9 
REMARK    5  A    between atoms: N1_9  and  C8_10 
REMARK    6  A    between atoms: C20_24  and  N4_25 
ROOT
HETATM    1  C8  UNL     1      24.544   0.656  52.766  1.00  0.00     0.059 C 
HETATM    2  C9  UNL     1      23.490   0.966  53.799  1.00  0.00     0.044 C 
HETATM    3  C10 UNL     1      25.785   1.314  53.287  1.00  0.00    -0.005 C 
HETATM    4  C11 UNL     1      26.797   2.214  53.293  1.00  0.00     0.018 C 
HETATM    5  C12 UNL     1      27.759   1.259  53.603  1.00  0.00     0.086 C 
HETATM    6  C13 UNL     1      27.806   0.394  52.380  1.00  0.00     0.065 C 
HETATM    7  C14 UNL     1      27.543  -0.982  52.784  1.00  0.00     0.111 C 
HETATM    8  C15 UNL     1      26.176  -1.455  52.727  1.00  0.00     0.038 C 
HETATM    9  C16 UNL     1      24.956  -0.752  53.019  1.00  0.00     0.044 C 
HETATM   10  C17 UNL     1      24.953  -0.579  54.504  1.00  0.00     0.010 C 
HETATM   11  C18 UNL     1      25.972   0.305  54.357  1.00  0.00     0.034 C 
HETATM   12  N2  UNL     1      27.226   0.769  54.894  1.00  0.00    -0.374 N 
HETATM   13  N3  UNL     1      28.325  -1.076  53.996  1.00  0.00    -0.298 NA
HETATM   14  C19 UNL     1      29.311  -0.205  54.202  1.00  0.00     0.121 C 
HETATM   15  C20 UNL     1      29.202   1.331  53.933  1.00  0.00     0.289 C 
HETATM   16  H23 UNL     1      27.762   0.832  55.841  1.00  0.00     0.161 HD
ENDROOT
BRANCH   1  17
HETATM   17  N1  UNL     1      24.073   1.022  51.542  1.00  0.00    -0.403 N 
HETATM   18  H11 UNL     1      24.108   0.243  50.842  1.00  0.00     0.154 HD
BRANCH  17  19
HETATM   19  C6  UNL     1      23.058   1.922  51.268  1.00  0.00     0.095 C 
HETATM   20  C7  UNL     1      21.935   1.179  50.508  1.00  0.00     0.033 C 
BRANCH  19  21
HETATM   21  C5  UNL     1      23.319   3.147  50.458  1.00  0.00     0.127 C 
HETATM   22 CL1  UNL     1      22.984   2.742  48.728  1.00  0.00    -0.119 Cl
BRANCH  21  23
HETATM   23  C4  UNL     1      24.770   3.570  50.502  1.00  0.00    -0.005 C 
HETATM   24  C3  UNL     1      25.486   3.599  49.390  1.00  0.00    -0.007 C 
BRANCH  24  25
HETATM   25  C2  UNL     1      26.893   4.000  49.372  1.00  0.00    -0.027 C 
HETATM   26  C1  UNL     1      27.381   5.007  48.668  1.00  0.00     0.031 C 
ENDBRANCH  24  25
ENDBRANCH  21  23
ENDBRANCH  19  21
ENDBRANCH  17  19
ENDBRANCH   1  17
BRANCH  15  27
HETATM   27  N4  UNL     1      29.488   2.016  55.159  1.00  0.00     0.090 N 
HETATM   28  H26 UNL     1      28.620   2.168  55.718  1.00  0.00     0.313 HD
HETATM   29  H27 UNL     1      30.056   2.891  55.044  1.00  0.00     0.313 HD
ENDBRANCH  15  27
TORSDOF 6
ENDMDL
MODEL 2
REMARK VINA RESULT:      -7.5      1.612      1.846
REMARK  6 active torsions:
REMARK  status: ('A' for Active; 'I' for Inactive)
REMARK    1  A    between atoms: C2_2  and  C3_3 
REMARK    2  A    between atoms: C4_4  and  C5_5 
REMARK    3  A    between atoms: C5_5  and  C6_7 
REMARK    4  A    between atoms: C6_7  and  N1_9 
REMARK    5  A    between atoms: N1_9  and  C8_10 
REMARK    6  A    between atoms: C20_24  and  N4_25 
ROOT
HETATM    1  C8  UNL     1      24.719   1.549  52.198  1.00  0.00     0.059 C 
HETATM    2  C9  UNL     1      23.737   2.394  52.971  1.00  0.00     0.044 C 
HETATM    3  C10 UNL     1      26.061   1.951  52.732  1.00  0.00    -0.005 C 
HETATM    4  C11 UNL     1      27.294   2.508  52.682  1.00  0.00     0.018 C 
HETATM    5  C12 UNL     1      27.896   1.438  53.335  1.00  0.00     0.086 C 
HETATM    6  C13 UNL     1      27.768   0.308  52.359  1.00  0.00     0.065 C 
HETATM    7  C14 UNL     1      27.071  -0.789  53.020  1.00  0.00     0.111 C 
HETATM    8  C15 UNL     1      25.633  -0.865  52.873  1.00  0.00     0.038 C 
HETATM    9  C16 UNL     1      24.666   0.197  52.818  1.00  0.00     0.044 C 
HETATM   10  C17 UNL     1      24.608   0.742  54.210  1.00  0.00     0.010 C 
HETATM   11  C18 UNL     1      25.854   1.242  54.017  1.00  0.00     0.034 C 
HETATM   12  N2  UNL     1      27.149   1.464  54.612  1.00  0.00    -0.374 N 
HETATM   13  N3  UNL     1      27.698  -0.779  54.322  1.00  0.00    -0.298 NA
HETATM   14  C19 UNL     1      28.884  -0.191  54.467  1.00  0.00     0.121 C 
HETATM   15  C20 UNL     1      29.265   1.192  53.846  1.00  0.00     0.289 C 
HETATM   16  H23 UNL     1      27.608   1.619  55.587  1.00  0.00     0.161 HD
ENDROOT
BRANCH   1  17
HETATM   17  N1  UNL     1      24.470   1.703  50.868  1.00  0.00    -0.403 N 
HETATM   18  H11 UNL     1      24.235   0.800  50.391  1.00  0.00     0.154 HD
BRANCH  17  19
HETATM   19  C6  UNL     1      23.885   2.789  50.243  1.00  0.00     0.095 C 
HETATM   20  C7  UNL     1      22.680   2.288  49.415  1.00  0.00     0.033 C 
BRANCH  19  21
HETATM   21  C5  UNL     1      24.665   3.643  49.302  1.00  0.00     0.127 C 
HETATM   22 CL1  UNL     1      26.398   3.136  49.409  1.00  0.00    -0.119 Cl
BRANCH  21  23
HETATM   23  C4  UNL     1      24.646   5.103  49.694  1.00  0.00    -0.005 C 
HETATM   24  C3  UNL     1      24.120   5.472  50.850  1.00  0.00    -0.007 C 
BRANCH  24  25
HETATM   25  C2  UNL     1      24.074   6.869  51.282  1.00  0.00    -0.027 C 
HETATM   26  C1  UNL     1      24.430   7.901  50.536  1.00  0.00     0.031 C 
ENDBRANCH  24  25
ENDBRANCH  21  23
ENDBRANCH  19  21
ENDBRANCH  17  19
ENDBRANCH   1  17
BRANCH  15  27
HETATM   27  N4  UNL     1      29.656   2.064  54.915  1.00  0.00     0.090 N 
HETATM   28  H26 UNL     1      30.688   2.044  55.059  1.00  0.00     0.313 HD
HETATM   29  H27 UNL     1      29.117   1.927  55.805  1.00  0.00     0.313 HD
ENDBRANCH  15  27
TORSDOF 6
ENDMDL
MODEL 3
REMARK VINA RESULT:      -7.5      4.044      7.135
REMARK  6 active torsions:
REMARK  status: ('A' for Active; 'I' for Inactive)
REMARK    1  A    between atoms: C2_2  and  C3_3 
REMARK    2  A    between atoms: C4_4  and  C5_5 
REMARK    3  A    between atoms: C5_5  and  C6_7 
REMARK    4  A    between atoms: C6_7  and  N1_9 
REMARK    5  A    between atoms: N1_9  and  C8_10 
REMARK    6  A    between atoms: C20_24  and  N4_25 
ROOT
HETATM    1  C8  UNL     1      22.250   1.856  52.171  1.00  0.00     0.059 C 
HETATM    2  C9  UNL     1      23.110   1.112  53.161  1.00  0.00     0.044 C 
HETATM    3  C10 UNL     1      22.666   3.289  52.315  1.00  0.00    -0.005 C 
HETATM    4  C11 UNL     1      22.511   4.593  52.643  1.00  0.00     0.018 C 
HETATM    5  C12 UNL     1      23.102   5.047  51.469  1.00  0.00     0.086 C 
HETATM    6  C13 UNL     1      22.136   4.634  50.402  1.00  0.00     0.065 C 
HETATM    7  C14 UNL     1      22.849   3.811  49.433  1.00  0.00     0.111 C 
HETATM    8  C15 UNL     1      22.828   2.376  49.619  1.00  0.00     0.038 C 
HETATM    9  C16 UNL     1      22.865   1.614  50.837  1.00  0.00     0.044 C 
HETATM   10  C17 UNL     1      24.259   1.774  51.354  1.00  0.00     0.010 C 
HETATM   11  C18 UNL     1      23.960   3.069  51.627  1.00  0.00     0.034 C 
HETATM   12  N2  UNL     1      24.440   4.428  51.602  1.00  0.00    -0.374 N 
HETATM   13  N3  UNL     1      24.091   4.538  49.303  1.00  0.00    -0.298 NA
HETATM   14  C19 UNL     1      24.134   5.819  49.667  1.00  0.00     0.121 C 
HETATM   15  C20 UNL     1      23.490   6.388  50.972  1.00  0.00     0.289 C 
HETATM   16  H23 UNL     1      25.373   4.990  51.652  1.00  0.00     0.161 HD
ENDROOT
BRANCH   1  17
HETATM   17  N1  UNL     1      20.948   1.527  52.394  1.00  0.00    -0.403 N 
HETATM   18  H11 UNL     1      20.283   2.295  52.136  1.00  0.00     0.154 HD
BRANCH  17  19
HETATM   19  C6  UNL     1      20.366   0.276  52.281  1.00  0.00     0.095 C 
HETATM   20  C7  UNL     1      19.281   0.337  51.182  1.00  0.00     0.033 C 
BRANCH  19  21
HETATM   21  C5  UNL     1      19.692  -0.363  53.447  1.00  0.00     0.127 C 
HETATM   22 CL1  UNL     1      20.865  -1.522  54.191  1.00  0.00    -0.119 Cl
BRANCH  21  23
HETATM   23  C4  UNL     1      18.501  -1.200  53.039  1.00  0.00    -0.005 C 
HETATM   24  C3  UNL     1      18.180  -2.280  53.731  1.00  0.00    -0.007 C 
BRANCH  24  25
HETATM   25  C2  UNL     1      17.039  -3.127  53.382  1.00  0.00    -0.027 C 
HETATM   26  C1  UNL     1      17.056  -4.449  53.375  1.00  0.00     0.031 C 
ENDBRANCH  24  25
ENDBRANCH  21  23
ENDBRANCH  19  21
ENDBRANCH  17  19
ENDBRANCH   1  17
BRANCH  15  27
HETATM   27  N4  UNL     1      24.525   7.019  51.737  1.00  0.00     0.090 N 
HETATM   28  H26 UNL     1      25.413   7.078  51.194  1.00  0.00     0.313 HD
HETATM   29  H27 UNL     1      24.660   6.617  52.697  1.00  0.00     0.313 HD
ENDBRANCH  15  27
TORSDOF 6
ENDMDL
MODEL 4
REMARK VINA RESULT:      -7.3      3.557      7.666
REMARK  6 active torsions:
REMARK  status: ('A' for Active; 'I' for Inactive)
REMARK    1  A    between atoms: C2_2  and  C3_3 
REMARK    2  A    between atoms: C4_4  and  C5_5 
REMARK    3  A    between atoms: C5_5  and  C6_7 
REMARK    4  A    between atoms: C6_7  and  N1_9 
REMARK    5  A    between atoms: N1_9  and  C8_10 
REMARK    6  A    between atoms: C20_24  and  N4_25 
ROOT
HETATM    1  C8  UNL     1      22.593   2.301  50.152  1.00  0.00     0.059 C 
HETATM    2  C9  UNL     1      23.054   2.614  48.751  1.00  0.00     0.044 C 
HETATM    3  C10 UNL     1      21.405   3.190  50.363  1.00  0.00    -0.005 C 
HETATM    4  C11 UNL     1      20.708   4.210  50.918  1.00  0.00     0.018 C 
HETATM    5  C12 UNL     1      19.555   3.449  51.076  1.00  0.00     0.086 C 
HETATM    6  C13 UNL     1      19.940   2.429  52.104  1.00  0.00     0.065 C 
HETATM    7  C14 UNL     1      19.710   1.104  51.541  1.00  0.00     0.111 C 
HETATM    8  C15 UNL     1      20.816   0.448  50.878  1.00  0.00     0.038 C 
HETATM    9  C16 UNL     1      21.851   1.014  50.057  1.00  0.00     0.044 C 
HETATM   10  C17 UNL     1      21.169   1.400  48.783  1.00  0.00     0.010 C 
HETATM   11  C18 UNL     1      20.538   2.382  49.472  1.00  0.00     0.034 C 
HETATM   12  N2  UNL     1      19.294   3.085  49.665  1.00  0.00    -0.374 N 
HETATM   13  N3  UNL     1      18.439   1.294  50.881  1.00  0.00    -0.298 NA
HETATM   14  C19 UNL     1      17.661   2.311  51.249  1.00  0.00     0.121 C 
HETATM   15  C20 UNL     1      18.176   3.762  51.518  1.00  0.00     0.289 C 
HETATM   16  H23 UNL     1      18.391   3.357  49.120  1.00  0.00     0.161 HD
ENDROOT
BRANCH   1  17
HETATM   17  N1  UNL     1      23.656   2.418  50.994  1.00  0.00    -0.403 N 
HETATM   18  H11 UNL     1      24.347   3.141  50.680  1.00  0.00     0.154 HD
BRANCH  17  19
HETATM   19  C6  UNL     1      23.662   2.256  52.368  1.00  0.00     0.095 C 
HETATM   20  C7  UNL     1      23.960   3.625  53.022  1.00  0.00     0.033 C 
BRANCH  19  21
HETATM   21  C5  UNL     1      24.606   1.307  53.024  1.00  0.00     0.127 C 
HETATM   22 CL1  UNL     1      25.923   0.938  51.841  1.00  0.00    -0.119 Cl
BRANCH  21  23
HETATM   23  C4  UNL     1      23.961  -0.024  53.340  1.00  0.00    -0.005 C 
HETATM   24  C3  UNL     1      22.721  -0.068  53.795  1.00  0.00    -0.007 C 
BRANCH  24  25
HETATM   25  C2  UNL     1      22.046  -1.327  54.118  1.00  0.00    -0.027 C 
HETATM   26  C1  UNL     1      20.736  -1.482  54.191  1.00  0.00     0.031 C 
ENDBRANCH  24  25
ENDBRANCH  21  23
ENDBRANCH  19  21
ENDBRANCH  17  19
ENDBRANCH   1  17
BRANCH  15  27
HETATM   27  N4  UNL     1      17.469   4.651  50.643  1.00  0.00     0.090 N 
HETATM   28  H26 UNL     1      17.750   4.505  49.650  1.00  0.00     0.313 HD
HETATM   29  H27 UNL     1      17.501   5.660  50.932  1.00  0.00     0.313 HD
ENDBRANCH  15  27
TORSDOF 6
ENDMDL
MODEL 5
REMARK VINA RESULT:      -7.2      2.939      6.449
REMARK  6 active torsions:
REMARK  status: ('A' for Active; 'I' for Inactive)
REMARK    1  A    between atoms: C2_2  and  C3_3 
REMARK    2  A    between atoms: C4_4  and  C5_5 
REMARK    3  A    between atoms: C5_5  and  C6_7 
REMARK    4  A    between atoms: C6_7  and  N1_9 
REMARK    5  A    between atoms: N1_9  and  C8_10 
REMARK    6  A    between atoms: C20_24  and  N4_25 
ROOT
HETATM    1  C8  UNL     1      24.272   2.367  52.083  1.00  0.00     0.059 C 
HETATM    2  C9  UNL     1      25.776   2.443  52.006  1.00  0.00     0.044 C 
HETATM    3  C10 UNL     1      23.825   3.797  52.124  1.00  0.00    -0.005 C 
HETATM    4  C11 UNL     1      23.279   4.905  52.679  1.00  0.00     0.018 C 
HETATM    5  C12 UNL     1      22.546   5.217  51.539  1.00  0.00     0.086 C 
HETATM    6  C13 UNL     1      21.546   4.106  51.443  1.00  0.00     0.065 C 
HETATM    7  C14 UNL     1      21.690   3.474  50.137  1.00  0.00     0.111 C 
HETATM    8  C15 UNL     1      22.564   2.324  50.033  1.00  0.00     0.038 C 
HETATM    9  C16 UNL     1      23.811   2.065  50.700  1.00  0.00     0.044 C 
HETATM   10  C17 UNL     1      24.790   3.007  50.074  1.00  0.00     0.010 C 
HETATM   11  C18 UNL     1      24.137   4.023  50.693  1.00  0.00     0.034 C 
HETATM   12  N2  UNL     1      23.648   5.372  50.562  1.00  0.00    -0.374 N 
HETATM   13  N3  UNL     1      21.853   4.626  49.281  1.00  0.00    -0.298 NA
HETATM   14  C19 UNL     1      21.445   5.818  49.712  1.00  0.00     0.121 C 
HETATM   15  C20 UNL     1      21.699   6.370  51.152  1.00  0.00     0.289 C 
HETATM   16  H23 UNL     1      23.861   6.294  50.021  1.00  0.00     0.161 HD
ENDROOT
BRANCH   1  17
HETATM   17  N1  UNL     1      23.931   1.544  53.113  1.00  0.00    -0.403 N 
HETATM   18  H11 UNL     1      23.665   2.067  53.981  1.00  0.00     0.154 HD
BRANCH  17  19
HETATM   19  C6  UNL     1      23.302   0.315  53.033  1.00  0.00     0.095 C 
HETATM   20  C7  UNL     1      21.943   0.411  53.764  1.00  0.00     0.033 C 
BRANCH  19  21
HETATM   21  C5  UNL     1      23.945  -0.912  53.584  1.00  0.00     0.127 C 
HETATM   22 CL1  UNL     1      23.230  -1.220  55.217  1.00  0.00    -0.119 Cl
BRANCH  21  23
HETATM   23  C4  UNL     1      25.428  -0.733  53.819  1.00  0.00    -0.005 C 
HETATM   24  C3  UNL     1      26.296  -1.124  52.901  1.00  0.00    -0.007 C 
BRANCH  24  25
HETATM   25  C2  UNL     1      27.742  -0.975  53.074  1.00  0.00    -0.027 C 
HETATM   26  C1  UNL     1      28.317  -0.176  53.956  1.00  0.00     0.031 C 
ENDBRANCH  24  25
ENDBRANCH  21  23
ENDBRANCH  19  21
ENDBRANCH  17  19
ENDBRANCH   1  17
BRANCH  15  27
HETATM   27  N4  UNL     1      22.413   7.607  51.032  1.00  0.00     0.090 N 
HETATM   28  H26 UNL     1      22.554   7.866  50.032  1.00  0.00     0.313 HD
HETATM   29  H27 UNL     1      23.299   7.652  51.593  1.00  0.00     0.313 HD
ENDBRANCH  15  27
TORSDOF 6
ENDMDL
MODEL 6
REMARK VINA RESULT:      -7.0      2.632      7.059
REMARK  6 active torsions:
REMARK  status: ('A' for Active; 'I' for Inactive)
REMARK    1  A    between atoms: C2_2  and  C3_3 
REMARK    2  A    between atoms: C4_4  and  C5_5 
REMARK    3  A    between atoms: C5_5  and  C6_7 
REMARK    4  A    between atoms: C6_7  and  N1_9 
REMARK    5  A    between atoms: N1_9  and  C8_10 
REMARK    6  A    between atoms: C20_24  and  N4_25 
ROOT
HETATM    1  C8  UNL     1      24.184   2.536  51.630  1.00  0.00     0.059 C 
HETATM    2  C9  UNL     1      24.105   3.219  52.973  1.00  0.00     0.044 C 
HETATM    3  C10 UNL     1      22.770   2.148  51.323  1.00  0.00    -0.005 C 
HETATM    4  C11 UNL     1      21.740   1.293  51.116  1.00  0.00     0.018 C 
HETATM    5  C12 UNL     1      21.280   1.983  50.000  1.00  0.00     0.086 C 
HETATM    6  C13 UNL     1      22.365   1.785  48.987  1.00  0.00     0.065 C 
HETATM    7  C14 UNL     1      22.824   3.096  48.546  1.00  0.00     0.111 C 
HETATM    8  C15 UNL     1      23.954   3.685  49.233  1.00  0.00     0.038 C 
HETATM    9  C16 UNL     1      24.303   3.628  50.627  1.00  0.00     0.044 C 
HETATM   10  C17 UNL     1      23.292   4.490  51.315  1.00  0.00     0.010 C 
HETATM   11  C18 UNL     1      22.362   3.544  51.033  1.00  0.00     0.034 C 
HETATM   12  N2  UNL     1      21.005   3.303  50.611  1.00  0.00    -0.374 N 
HETATM   13  N3  UNL     1      21.572   3.803  48.410  1.00  0.00    -0.298 NA
HETATM   14  C19 UNL     1      20.443   3.107  48.283  1.00  0.00     0.121 C 
HETATM   15  C20 UNL     1      20.083   1.848  49.136  1.00  0.00     0.289 C 
HETATM   16  H23 UNL     1      20.022   3.773  50.637  1.00  0.00     0.161 HD
ENDROOT
BRANCH   1  17
HETATM   17  N1  UNL     1      25.132   1.560  51.696  1.00  0.00    -0.403 N 
HETATM   18  H11 UNL     1      25.683   1.468  50.809  1.00  0.00     0.154 HD
BRANCH  17  19
HETATM   19  C6  UNL     1      25.861   1.171  52.804  1.00  0.00     0.095 C 
HETATM   20  C7  UNL     1      27.365   1.322  52.480  1.00  0.00     0.033 C 
BRANCH  19  21
HETATM   21  C5  UNL     1      25.729  -0.205  53.364  1.00  0.00     0.127 C 
HETATM   22 CL1  UNL     1      26.699  -1.318  52.318  1.00  0.00    -0.119 Cl
BRANCH  21  23
HETATM   23  C4  UNL     1      24.310  -0.722  53.298  1.00  0.00    -0.005 C 
HETATM   24  C3  UNL     1      23.425  -0.349  54.207  1.00  0.00    -0.007 C 
BRANCH  24  25
HETATM   25  C2  UNL     1      22.039  -0.817  54.194  1.00  0.00    -0.027 C 
HETATM   26  C1  UNL     1      20.996  -0.095  54.567  1.00  0.00     0.031 C 
ENDBRANCH  24  25
ENDBRANCH  21  23
ENDBRANCH  19  21
ENDBRANCH  17  19
ENDBRANCH   1  17
BRANCH  15  27
HETATM   27  N4  UNL     1      18.844   2.109  49.809  1.00  0.00     0.090 N 
HETATM   28  H26 UNL     1      18.908   1.873  50.822  1.00  0.00     0.313 HD
HETATM   29  H27 UNL     1      18.002   1.688  49.344  1.00  0.00     0.313 HD
ENDBRANCH  15  27
TORSDOF 6
ENDMDL
MODEL 7
REMARK VINA RESULT:      -7.0      2.657      3.355
REMARK  6 active torsions:
REMARK  status: ('A' for Active; 'I' for Inactive)
REMARK    1  A    between atoms: C2_2  and  C3_3 
REMARK    2  A    between atoms: C4_4  and  C5_5 
REMARK    3  A    between atoms: C5_5  and  C6_7 
REMARK    4  A    between atoms: C6_7  and  N1_9 
REMARK    5  A    between atoms: N1_9  and  C8_10 
REMARK    6  A    between atoms: C20_24  and  N4_25 
ROOT
HETATM    1  C8  UNL     1      24.004   2.365  51.352  1.00  0.00     0.059 C 
HETATM    2  C9  UNL     1      23.405   3.715  51.653  1.00  0.00     0.044 C 
HETATM    3  C10 UNL     1      25.453   2.509  51.707  1.00  0.00    -0.005 C 
HETATM    4  C11 UNL     1      26.784   2.576  51.465  1.00  0.00     0.018 C 
HETATM    5  C12 UNL     1      27.106   1.747  52.534  1.00  0.00     0.086 C 
HETATM    6  C13 UNL     1      26.544   0.416  52.134  1.00  0.00     0.065 C 
HETATM    7  C14 UNL     1      25.627  -0.025  53.178  1.00  0.00     0.111 C 
HETATM    8  C15 UNL     1      24.224   0.301  53.028  1.00  0.00     0.038 C 
HETATM    9  C16 UNL     1      23.617   1.487  52.490  1.00  0.00     0.044 C 
HETATM   10  C17 UNL     1      23.871   2.551  53.511  1.00  0.00     0.010 C 
HETATM   11  C18 UNL     1      25.182   2.505  53.165  1.00  0.00     0.034 C 
HETATM   12  N2  UNL     1      26.539   2.537  53.650  1.00  0.00    -0.374 N 
HETATM   13  N3  UNL     1      26.362   0.330  54.370  1.00  0.00    -0.298 NA
HETATM   14  C19 UNL     1      27.678   0.520  54.289  1.00  0.00     0.121 C 
HETATM   15  C20 UNL     1      28.385   1.320  53.148  1.00  0.00     0.289 C 
HETATM   16  H23 UNL     1      27.124   2.932  54.480  1.00  0.00     0.161 HD
ENDROOT
BRANCH   1  17
HETATM   17  N1  UNL     1      23.674   2.018  50.077  1.00  0.00    -0.403 N 
HETATM   18  H11 UNL     1      23.850   1.006  49.871  1.00  0.00     0.154 HD
BRANCH  17  19
HETATM   19  C6  UNL     1      22.648   2.534  49.306  1.00  0.00     0.095 C 
HETATM   20  C7  UNL     1      21.646   1.398  48.997  1.00  0.00     0.033 C 
BRANCH  19  21
HETATM   21  C5  UNL     1      22.926   3.166  47.984  1.00  0.00     0.127 C 
HETATM   22 CL1  UNL     1      23.281   4.915  48.276  1.00  0.00    -0.119 Cl
BRANCH  21  23
HETATM   23  C4  UNL     1      21.724   3.144  47.068  1.00  0.00    -0.005 C 
HETATM   24  C3  UNL     1      21.713   3.882  45.970  1.00  0.00    -0.007 C 
BRANCH  24  25
HETATM   25  C2  UNL     1      20.577   3.901  45.048  1.00  0.00    -0.027 C 
HETATM   26  C1  UNL     1      20.673   4.042  43.737  1.00  0.00     0.031 C 
ENDBRANCH  24  25
ENDBRANCH  21  23
ENDBRANCH  19  21
ENDBRANCH  17  19
ENDBRANCH   1  17
BRANCH  15  27
HETATM   27  N4  UNL     1      29.128   2.388  53.752  1.00  0.00     0.090 N 
HETATM   28  H26 UNL     1      30.004   2.584  53.222  1.00  0.00     0.313 HD
HETATM   29  H27 UNL     1      29.293   2.272  54.782  1.00  0.00     0.313 HD
ENDBRANCH  15  27
TORSDOF 6
ENDMDL
MODEL 8
REMARK VINA RESULT:      -6.9      5.173      8.638
REMARK  6 active torsions:
REMARK  status: ('A' for Active; 'I' for Inactive)
REMARK    1  A    between atoms: C2_2  and  C3_3 
REMARK    2  A    between atoms: C4_4  and  C5_5 
REMARK    3  A    between atoms: C5_5  and  C6_7 
REMARK    4  A    between atoms: C6_7  and  N1_9 
REMARK    5  A    between atoms: N1_9  and  C8_10 
REMARK    6  A    between atoms: C20_24  and  N4_25 
ROOT
HETATM    1  C8  UNL     1      28.956   7.364  48.232  1.00  0.00     0.059 C 
HETATM    2  C9  UNL     1      28.301   7.730  46.925  1.00  0.00     0.044 C 
HETATM    3  C10 UNL     1      30.066   6.433  47.847  1.00  0.00    -0.005 C 
HETATM    4  C11 UNL     1      30.719   5.248  47.785  1.00  0.00     0.018 C 
HETATM    5  C12 UNL     1      31.953   5.816  48.082  1.00  0.00     0.086 C 
HETATM    6  C13 UNL     1      31.799   6.279  49.499  1.00  0.00     0.065 C 
HETATM    7  C14 UNL     1      32.092   7.707  49.546  1.00  0.00     0.111 C 
HETATM    8  C15 UNL     1      30.985   8.630  49.416  1.00  0.00     0.038 C 
HETATM    9  C16 UNL     1      29.806   8.529  48.599  1.00  0.00     0.044 C 
HETATM   10  C17 UNL     1      30.287   8.732  47.197  1.00  0.00     0.010 C 
HETATM   11  C18 UNL     1      30.896   7.523  47.280  1.00  0.00     0.034 C 
HETATM   12  N2  UNL     1      32.077   6.764  46.952  1.00  0.00    -0.374 N 
HETATM   13  N3  UNL     1      33.248   7.788  48.684  1.00  0.00    -0.298 NA
HETATM   14  C19 UNL     1      33.958   6.686  48.445  1.00  0.00     0.121 C 
HETATM   15  C20 UNL     1      33.337   5.288  48.125  1.00  0.00     0.289 C 
HETATM   16  H23 UNL     1      32.876   6.733  46.212  1.00  0.00     0.161 HD
ENDROOT
BRANCH   1  17
HETATM   17  N1  UNL     1      27.996   6.920  49.089  1.00  0.00    -0.403 N 
HETATM   18  H11 UNL     1      28.301   6.946  50.092  1.00  0.00     0.154 HD
BRANCH  17  19
HETATM   19  C6  UNL     1      26.626   7.058  48.960  1.00  0.00     0.095 C 
HETATM   20  C7  UNL     1      26.104   7.909  50.140  1.00  0.00     0.033 C 
BRANCH  19  21
HETATM   21  C5  UNL     1      25.735   5.862  48.930  1.00  0.00     0.127 C 
HETATM   22 CL1  UNL     1      24.456   6.098  50.187  1.00  0.00    -0.119 Cl
BRANCH  21  23
HETATM   23  C4  UNL     1      26.458   4.593  49.322  1.00  0.00    -0.005 C 
HETATM   24  C3  UNL     1      25.890   3.736  50.153  1.00  0.00    -0.007 C 
BRANCH  24  25
HETATM   25  C2  UNL     1      26.542   2.493  50.567  1.00  0.00    -0.027 C 
HETATM   26  C1  UNL     1      26.840   2.178  51.816  1.00  0.00     0.031 C 
ENDBRANCH  24  25
ENDBRANCH  21  23
ENDBRANCH  19  21
ENDBRANCH  17  19
ENDBRANCH   1  17
BRANCH  15  27
HETATM   27  N4  UNL     1      33.840   4.861  46.852  1.00  0.00     0.090 N 
HETATM   28  H26 UNL     1      34.864   5.039  46.773  1.00  0.00     0.313 HD
HETATM   29  H27 UNL     1      33.298   5.223  46.029  1.00  0.00     0.313 HD
ENDBRANCH  15  27
TORSDOF 6
ENDMDL
MODEL 9
REMARK VINA RESULT:      -6.9      2.920      6.851
REMARK  6 active torsions:
REMARK  status: ('A' for Active; 'I' for Inactive)
REMARK    1  A    between atoms: C2_2  and  C3_3 
REMARK    2  A    between atoms: C4_4  and  C5_5 
REMARK    3  A    between atoms: C5_5  and  C6_7 
REMARK    4  A    between atoms: C6_7  and  N1_9 
REMARK    5  A    between atoms: N1_9  and  C8_10 
REMARK    6  A    between atoms: C20_24  and  N4_25 
ROOT
HETATM    1  C8  UNL     1      23.418   2.819  51.660  1.00  0.00     0.059 C 
HETATM    2  C9  UNL     1      23.561   3.780  52.812  1.00  0.00     0.044 C 
HETATM    3  C10 UNL     1      22.324   1.887  52.081  1.00  0.00    -0.005 C 
HETATM    4  C11 UNL     1      21.786   0.702  52.459  1.00  0.00     0.018 C 
HETATM    5  C12 UNL     1      20.684   0.839  51.622  1.00  0.00     0.086 C 
HETATM    6  C13 UNL     1      21.271   0.757  50.246  1.00  0.00     0.065 C 
HETATM    7  C14 UNL     1      20.897   1.964  49.518  1.00  0.00     0.111 C 
HETATM    8  C15 UNL     1      21.816   3.082  49.543  1.00  0.00     0.038 C 
HETATM    9  C16 UNL     1      22.652   3.550  50.614  1.00  0.00     0.044 C 
HETATM   10  C17 UNL     1      21.710   4.157  51.605  1.00  0.00     0.010 C 
HETATM   11  C18 UNL     1      21.265   2.905  51.879  1.00  0.00     0.034 C 
HETATM   12  N2  UNL     1      20.108   2.092  52.159  1.00  0.00    -0.374 N 
HETATM   13  N3  UNL     1      19.514   2.114  49.908  1.00  0.00    -0.298 NA
HETATM   14  C19 UNL     1      18.857   1.059  50.387  1.00  0.00     0.121 C 
HETATM   15  C20 UNL     1      19.444   0.051  51.428  1.00  0.00     0.289 C 
HETATM   16  H23 UNL     1      19.111   2.172  52.591  1.00  0.00     0.161 HD
ENDROOT
BRANCH   1  17
HETATM   17  N1  UNL     1      24.645   2.301  51.373  1.00  0.00    -0.403 N 
HETATM   18  H11 UNL     1      25.139   2.823  50.610  1.00  0.00     0.154 HD
BRANCH  17  19
HETATM   19  C6  UNL     1      25.531   1.704  52.252  1.00  0.00     0.095 C 
HETATM   20  C7  UNL     1      26.956   2.212  51.934  1.00  0.00     0.033 C 
BRANCH  19  21
HETATM   21  C5  UNL     1      25.662   0.219  52.316  1.00  0.00     0.127 C 
HETATM   22 CL1  UNL     1      25.000  -0.320  53.911  1.00  0.00    -0.119 Cl
BRANCH  21  23
HETATM   23  C4  UNL     1      27.104  -0.235  52.302  1.00  0.00    -0.005 C 
HETATM   24  C3  UNL     1      27.568  -0.999  53.276  1.00  0.00    -0.007 C 
BRANCH  24  25
HETATM   25  C2  UNL     1      28.954  -1.468  53.315  1.00  0.00    -0.027 C 
HETATM   26  C1  UNL     1      30.003  -0.700  53.554  1.00  0.00     0.031 C 
ENDBRANCH  24  25
ENDBRANCH  21  23
ENDBRANCH  19  21
ENDBRANCH  17  19
ENDBRANCH   1  17
BRANCH  15  27
HETATM   27  N4  UNL     1      18.575   0.038  52.569  1.00  0.00     0.090 N 
HETATM   28  H26 UNL     1      17.680  -0.452  52.355  1.00  0.00     0.313 HD
HETATM   29  H27 UNL     1      18.431   0.977  53.014  1.00  0.00     0.313 HD
ENDBRANCH  15  27
TORSDOF 6
ENDMDL
