MODEL 1
REMARK VINA RESULT:      -9.7      0.000      0.000
REMARK  5 active torsions:
REMARK  status: ('A' for Active; 'I' for Inactive)
REMARK    1  A    between atoms: N1_1  and  C1_2 
REMARK    2  A    between atoms: C4_7  and  N4_8 
REMARK    3  A    between atoms: N4_8  and  C5_9 
REMARK    4  A    between atoms: N5_18  and  C12_19 
REMARK    5  A    between atoms: C19_28  and  O2_29 
ROOT
HETATM    1  C1  UNL     1      26.257   2.029  51.854  1.00  0.00     0.350 C 
HETATM    2  N2  UNL     1      24.856   2.277  51.959  1.00  0.00    -0.233 NA
HETATM    3  C2  UNL     1      23.765   1.743  52.388  1.00  0.00     0.174 A 
HETATM    4  C3  UNL     1      23.553   0.508  53.013  1.00  0.00     0.139 A 
HETATM    5  N3  UNL     1      22.241   0.396  53.276  1.00  0.00    -0.059 NA
HETATM    6  C4  UNL     1      21.656   1.519  52.832  1.00  0.00     0.710 A 
HETATM    7  N5  UNL     1      22.559   2.333  52.299  1.00  0.00    -0.155 N 
HETATM    8  C16 UNL     1      24.317  -0.514  53.379  1.00  0.00     0.152 C 
HETATM    9  N6  UNL     1      25.715  -0.751  53.269  1.00  0.00    -0.267 NA
HETATM   10  C17 UNL     1      26.750   0.018  53.164  1.00  0.00     0.022 C 
HETATM   11  C18 UNL     1      27.920  -0.882  53.090  1.00  0.00     0.087 C 
HETATM   12  C19 UNL     1      28.882  -0.468  54.178  1.00  0.00     0.123 C 
HETATM   13  C20 UNL     1      29.030   1.024  54.224  1.00  0.00     0.033 C 
HETATM   14  C21 UNL     1      28.407   1.734  53.038  1.00  0.00     0.017 C 
HETATM   15  C22 UNL     1      26.904   1.512  53.113  1.00  0.00     0.088 C 
ENDROOT
BRANCH   6  16
HETATM   16  N4  UNL     1      20.262   1.685  52.976  1.00  0.00    -0.186 N 
HETATM   17  H4  UNL     1      19.569   2.068  53.644  1.00  0.00     0.184 HD
BRANCH  16  18
HETATM   18  C5  UNL     1      19.347   1.249  51.979  1.00  0.00     0.096 A 
HETATM   19  C6  UNL     1      19.047   1.914  50.900  1.00  0.00     0.125 A 
HETATM   20  F1  UNL     1      19.639   3.121  50.680  1.00  0.00    -0.208 F 
HETATM   21  C7  UNL     1      18.093   1.469  49.851  1.00  0.00     0.099 A 
HETATM   22  C8  UNL     1      17.500   0.146  50.173  1.00  0.00    -0.019 A 
HETATM   23  C9  UNL     1      17.760  -0.589  51.257  1.00  0.00     0.012 A 
HETATM   24  C10 UNL     1      18.707  -0.036  52.194  1.00  0.00     0.021 A 
HETATM   25  C11 UNL     1      18.971  -0.755  53.270  1.00  0.00     0.202 C 
HETATM   26  F2  UNL     1      18.554  -1.940  53.734  1.00  0.00    -0.218 F 
ENDBRANCH  16  18
ENDBRANCH   6  16
BRANCH   7  27
HETATM   27  C12 UNL     1      22.395   3.608  51.716  1.00  0.00     0.135 C 
HETATM   28  C13 UNL     1      22.869   3.651  50.255  1.00  0.00     0.055 C 
HETATM   29  C14 UNL     1      23.070   5.125  50.063  1.00  0.00     0.169 C 
HETATM   30  O1  UNL     1      23.014   5.733  51.285  1.00  0.00    -0.389 OA
HETATM   31  C15 UNL     1      23.184   4.737  52.280  1.00  0.00     0.194 C 
ENDBRANCH   7  27
BRANCH   1  32
HETATM   32  N1  UNL     1      26.922   3.233  51.389  1.00  0.00     0.103 N 
HETATM   33  H1  UNL     1      27.101   3.206  50.380  1.00  0.00     0.315 HD
HETATM   34  H2  UNL     1      27.855   3.295  51.855  1.00  0.00     0.315 HD
ENDBRANCH   1  32
BRANCH  12  35
HETATM   35  O2  UNL     1      30.113  -1.102  53.955  1.00  0.00    -0.395 OA
HETATM   36  H21 UNL     1      30.211  -1.101  52.954  1.00  0.00     0.210 HD
ENDBRANCH  12  35
TORSDOF 5
ENDMDL
MODEL 2
REMARK VINA RESULT:      -9.1      5.560      9.557
REMARK  5 active torsions:
REMARK  status: ('A' for Active; 'I' for Inactive)
REMARK    1  A    between atoms: N1_1  and  C1_2 
REMARK    2  A    between atoms: C4_7  and  N4_8 
REMARK    3  A    between atoms: N4_8  and  C5_9 
REMARK    4  A    between atoms: N5_18  and  C12_19 
REMARK    5  A    between atoms: C19_28  and  O2_29 
ROOT
HETATM    1  C1  UNL     1      23.808   5.183  51.217  1.00  0.00     0.350 C 
HETATM    2  N2  UNL     1      24.808   5.846  50.446  1.00  0.00    -0.233 NA
HETATM    3  C2  UNL     1      25.888   5.617  49.781  1.00  0.00     0.174 A 
HETATM    4  C3  UNL     1      26.567   4.413  49.555  1.00  0.00     0.139 A 
HETATM    5  N3  UNL     1      27.646   4.681  48.802  1.00  0.00    -0.059 NA
HETATM    6  C4  UNL     1      27.641   6.002  48.568  1.00  0.00     0.710 A 
HETATM    7  N5  UNL     1      26.593   6.573  49.150  1.00  0.00    -0.155 N 
HETATM    8  C16 UNL     1      26.389   3.144  49.899  1.00  0.00     0.152 C 
HETATM    9  N6  UNL     1      25.386   2.492  50.670  1.00  0.00    -0.267 NA
HETATM   10  C17 UNL     1      24.157   2.770  50.962  1.00  0.00     0.022 C 
HETATM   11  C18 UNL     1      23.681   1.662  51.814  1.00  0.00     0.087 C 
HETATM   12  C19 UNL     1      22.428   1.106  51.179  1.00  0.00     0.123 C 
HETATM   13  C20 UNL     1      21.518   2.210  50.731  1.00  0.00     0.033 C 
HETATM   14  C21 UNL     1      21.927   3.580  51.238  1.00  0.00     0.017 C 
HETATM   15  C22 UNL     1      23.262   3.922  50.597  1.00  0.00     0.088 C 
ENDROOT
BRANCH   6  16
HETATM   16  N4  UNL     1      28.670   6.579  47.793  1.00  0.00    -0.186 N 
HETATM   17  H4  UNL     1      28.801   7.128  46.924  1.00  0.00     0.184 HD
BRANCH  16  18
HETATM   18  C5  UNL     1      30.038   6.481  48.168  1.00  0.00     0.096 A 
HETATM   19  C6  UNL     1      30.786   5.430  47.986  1.00  0.00     0.125 A 
HETATM   20  F1  UNL     1      30.248   4.329  47.393  1.00  0.00    -0.208 F 
HETATM   21  C7  UNL     1      32.216   5.315  48.374  1.00  0.00     0.099 A 
HETATM   22  C8  UNL     1      32.716   6.560  49.010  1.00  0.00    -0.019 A 
HETATM   23  C9  UNL     1      32.008   7.670  49.227  1.00  0.00     0.012 A 
HETATM   24  C10 UNL     1      30.629   7.645  48.800  1.00  0.00     0.021 A 
HETATM   25  C11 UNL     1      29.920   8.738  49.012  1.00  0.00     0.202 C 
HETATM   26  F2  UNL     1      30.176   9.935  49.555  1.00  0.00    -0.218 F 
ENDBRANCH  16  18
ENDBRANCH   6  16
BRANCH   7  27
HETATM   27  C12 UNL     1      26.194   7.927  49.167  1.00  0.00     0.135 C 
HETATM   28  C13 UNL     1      26.465   8.635  47.831  1.00  0.00     0.055 C 
HETATM   29  C14 UNL     1      26.451  10.071  48.261  1.00  0.00     0.169 C 
HETATM   30  O1  UNL     1      26.478  10.116  49.626  1.00  0.00    -0.389 OA
HETATM   31  C15 UNL     1      26.900   8.848  50.099  1.00  0.00     0.194 C 
ENDBRANCH   7  27
BRANCH   1  32
HETATM   32  N1  UNL     1      22.737   6.116  51.514  1.00  0.00     0.103 N 
HETATM   33  H1  UNL     1      22.187   5.822  52.328  1.00  0.00     0.315 HD
HETATM   34  H2  UNL     1      22.079   6.133  50.703  1.00  0.00     0.315 HD
ENDBRANCH   1  32
BRANCH  12  35
HETATM   35  O2  UNL     1      21.796   0.257  52.099  1.00  0.00    -0.395 OA
HETATM   36  H21 UNL     1      21.490  -0.523  51.543  1.00  0.00     0.210 HD
ENDBRANCH  12  35
TORSDOF 5
ENDMDL
MODEL 3
REMARK VINA RESULT:      -8.8      2.952      6.803
REMARK  5 active torsions:
REMARK  status: ('A' for Active; 'I' for Inactive)
REMARK    1  A    between atoms: N1_1  and  C1_2 
REMARK    2  A    between atoms: C4_7  and  N4_8 
REMARK    3  A    between atoms: N4_8  and  C5_9 
REMARK    4  A    between atoms: N5_18  and  C12_19 
REMARK    5  A    between atoms: C19_28  and  O2_29 
ROOT
HETATM    1  C1  UNL     1      23.912   6.670  51.195  1.00  0.00     0.350 C 
HETATM    2  N2  UNL     1      24.069   5.267  51.400  1.00  0.00    -0.233 NA
HETATM    3  C2  UNL     1      23.419   4.157  51.327  1.00  0.00     0.174 A 
HETATM    4  C3  UNL     1      22.093   3.914  50.950  1.00  0.00     0.139 A 
HETATM    5  N3  UNL     1      21.874   2.591  51.031  1.00  0.00    -0.059 NA
HETATM    6  C4  UNL     1      23.021   2.031  51.444  1.00  0.00     0.710 A 
HETATM    7  N5  UNL     1      23.954   2.959  51.625  1.00  0.00    -0.155 N 
HETATM    8  C16 UNL     1      21.067   4.657  50.553  1.00  0.00     0.152 C 
HETATM    9  N6  UNL     1      20.922   6.058  50.351  1.00  0.00    -0.267 NA
HETATM   10  C17 UNL     1      21.750   7.018  50.095  1.00  0.00     0.022 C 
HETATM   11  C18 UNL     1      20.933   8.246  50.006  1.00  0.00     0.087 C 
HETATM   12  C19 UNL     1      21.223   8.889  48.670  1.00  0.00     0.123 C 
HETATM   13  C20 UNL     1      22.695   8.892  48.384  1.00  0.00     0.033 C 
HETATM   14  C21 UNL     1      23.548   8.503  49.576  1.00  0.00     0.017 C 
HETATM   15  C22 UNL     1      23.240   7.049  49.900  1.00  0.00     0.088 C 
ENDROOT
BRANCH   6  16
HETATM   16  N4  UNL     1      23.092   0.632  51.623  1.00  0.00    -0.186 N 
HETATM   17  H4  UNL     1      23.569  -0.199  51.229  1.00  0.00     0.184 HD
BRANCH  16  18
HETATM   18  C5  UNL     1      22.332  -0.036  52.621  1.00  0.00     0.096 A 
HETATM   19  C6  UNL     1      21.038  -0.188  52.597  1.00  0.00     0.125 A 
HETATM   20  F1  UNL     1      20.332   0.320  51.548  1.00  0.00    -0.208 F 
HETATM   21  C7  UNL     1      20.233  -0.884  53.633  1.00  0.00     0.099 A 
HETATM   22  C8  UNL     1      21.084  -1.403  54.734  1.00  0.00    -0.019 A 
HETATM   23  C9  UNL     1      22.410  -1.285  54.825  1.00  0.00     0.012 A 
HETATM   24  C10 UNL     1      23.066  -0.585  53.746  1.00  0.00     0.021 A 
HETATM   25  C11 UNL     1      24.378  -0.461  53.827  1.00  0.00     0.202 C 
HETATM   26  F2  UNL     1      25.307  -0.848  54.711  1.00  0.00    -0.218 F 
ENDBRANCH  16  18
ENDBRANCH   6  16
BRANCH   7  27
HETATM   27  C12 UNL     1      25.294   2.824  52.048  1.00  0.00     0.135 C 
HETATM   28  C13 UNL     1      26.012   1.655  51.359  1.00  0.00     0.055 C 
HETATM   29  C14 UNL     1      27.150   1.420  52.307  1.00  0.00     0.169 C 
HETATM   30  O1  UNL     1      26.913   2.125  53.453  1.00  0.00    -0.389 OA
HETATM   31  C15 UNL     1      25.539   2.479  53.475  1.00  0.00     0.194 C 
ENDBRANCH   7  27
BRANCH   1  32
HETATM   32  N1  UNL     1      25.206   7.318  51.313  1.00  0.00     0.103 N 
HETATM   33  H1  UNL     1      25.174   8.125  51.944  1.00  0.00     0.315 HD
HETATM   34  H2  UNL     1      25.477   7.687  50.374  1.00  0.00     0.315 HD
ENDBRANCH   1  32
BRANCH  12  35
HETATM   35  O2  UNL     1      20.695  10.188  48.672  1.00  0.00    -0.395 OA
HETATM   36  H21 UNL     1      21.480  10.771  48.437  1.00  0.00     0.210 HD
ENDBRANCH  12  35
TORSDOF 5
ENDMDL
MODEL 4
REMARK VINA RESULT:      -8.8      3.463      7.887
REMARK  5 active torsions:
REMARK  status: ('A' for Active; 'I' for Inactive)
REMARK    1  A    between atoms: N1_1  and  C1_2 
REMARK    2  A    between atoms: C4_7  and  N4_8 
REMARK    3  A    between atoms: N4_8  and  C5_9 
REMARK    4  A    between atoms: N5_18  and  C12_19 
REMARK    5  A    between atoms: C19_28  and  O2_29 
ROOT
HETATM    1  C1  UNL     1      21.519   3.247  49.565  1.00  0.00     0.350 C 
HETATM    2  N2  UNL     1      22.129   2.385  50.525  1.00  0.00    -0.233 NA
HETATM    3  C2  UNL     1      23.264   2.134  51.079  1.00  0.00     0.174 A 
HETATM    4  C3  UNL     1      24.513   2.738  50.884  1.00  0.00     0.139 A 
HETATM    5  N3  UNL     1      25.397   2.129  51.692  1.00  0.00    -0.059 NA
HETATM    6  C4  UNL     1      24.725   1.182  52.364  1.00  0.00     0.710 A 
HETATM    7  N5  UNL     1      23.447   1.175  52.004  1.00  0.00    -0.155 N 
HETATM    8  C16 UNL     1      24.986   3.718  50.126  1.00  0.00     0.152 C 
HETATM    9  N6  UNL     1      24.368   4.572  49.170  1.00  0.00    -0.267 NA
HETATM   10  C17 UNL     1      23.154   4.978  48.982  1.00  0.00     0.022 C 
HETATM   11  C18 UNL     1      23.199   5.860  47.798  1.00  0.00     0.087 C 
HETATM   12  C19 UNL     1      22.591   7.185  48.195  1.00  0.00     0.123 C 
HETATM   13  C20 UNL     1      21.334   6.982  48.987  1.00  0.00     0.033 C 
HETATM   14  C21 UNL     1      20.835   5.550  48.982  1.00  0.00     0.017 C 
HETATM   15  C22 UNL     1      21.868   4.706  49.712  1.00  0.00     0.088 C 
ENDROOT
BRANCH   6  16
HETATM   16  N4  UNL     1      25.405   0.371  53.298  1.00  0.00    -0.186 N 
HETATM   17  H4  UNL     1      25.215  -0.356  54.011  1.00  0.00     0.184 HD
BRANCH  16  18
HETATM   18  C5  UNL     1      26.817   0.429  53.454  1.00  0.00     0.096 A 
HETATM   19  C6  UNL     1      27.479   1.470  53.871  1.00  0.00     0.125 A 
HETATM   20  F1  UNL     1      26.796   2.604  54.192  1.00  0.00    -0.208 F 
HETATM   21  C7  UNL     1      28.954   1.543  54.039  1.00  0.00     0.099 A 
HETATM   22  C8  UNL     1      29.613   0.265  53.667  1.00  0.00    -0.019 A 
HETATM   23  C9  UNL     1      29.000  -0.838  53.234  1.00  0.00     0.012 A 
HETATM   24  C10 UNL     1      27.563  -0.770  53.118  1.00  0.00     0.021 A 
HETATM   25  C11 UNL     1      26.947  -1.856  52.689  1.00  0.00     0.202 C 
HETATM   26  F2  UNL     1      27.348  -3.078  52.313  1.00  0.00    -0.218 F 
ENDBRANCH  16  18
ENDBRANCH   6  16
BRANCH   7  27
HETATM   27  C12 UNL     1      22.387   0.356  52.449  1.00  0.00     0.135 C 
HETATM   28  C13 UNL     1      21.609   0.985  53.615  1.00  0.00     0.055 C 
HETATM   29  C14 UNL     1      20.942  -0.225  54.198  1.00  0.00     0.169 C 
HETATM   30  O1  UNL     1      21.501  -1.340  53.641  1.00  0.00    -0.389 OA
HETATM   31  C15 UNL     1      22.731  -0.963  53.044  1.00  0.00     0.194 C 
ENDBRANCH   7  27
BRANCH   1  32
HETATM   32  N1  UNL     1      20.080   3.056  49.597  1.00  0.00     0.103 N 
HETATM   33  H1  UNL     1      19.674   3.051  48.656  1.00  0.00     0.315 HD
HETATM   34  H2  UNL     1      19.651   3.864  50.100  1.00  0.00     0.315 HD
ENDBRANCH   1  32
BRANCH  12  35
HETATM   35  O2  UNL     1      22.355   7.937  47.035  1.00  0.00    -0.395 OA
HETATM   36  H21 UNL     1      21.872   8.754  47.368  1.00  0.00     0.210 HD
ENDBRANCH  12  35
TORSDOF 5
ENDMDL
MODEL 5
REMARK VINA RESULT:      -8.5      4.838      6.701
REMARK  5 active torsions:
REMARK  status: ('A' for Active; 'I' for Inactive)
REMARK    1  A    between atoms: N1_1  and  C1_2 
REMARK    2  A    between atoms: C4_7  and  N4_8 
REMARK    3  A    between atoms: N4_8  and  C5_9 
REMARK    4  A    between atoms: N5_18  and  C12_19 
REMARK    5  A    between atoms: C19_28  and  O2_29 
ROOT
HETATM    1  C1  UNL     1      27.525   7.850  47.475  1.00  0.00     0.350 C 
HETATM    2  N2  UNL     1      26.266   7.388  47.963  1.00  0.00    -0.233 NA
HETATM    3  C2  UNL     1      25.714   6.369  48.527  1.00  0.00     0.174 A 
HETATM    4  C3  UNL     1      26.272   5.146  48.920  1.00  0.00     0.139 A 
HETATM    5  N3  UNL     1      25.297   4.402  49.465  1.00  0.00    -0.059 NA
HETATM    6  C4  UNL     1      24.172   5.132  49.412  1.00  0.00     0.710 A 
HETATM    7  N5  UNL     1      24.410   6.312  48.852  1.00  0.00    -0.155 N 
HETATM    8  C16 UNL     1      27.479   4.596  48.877  1.00  0.00     0.152 C 
HETATM    9  N6  UNL     1      28.729   5.067  48.387  1.00  0.00    -0.267 NA
HETATM   10  C17 UNL     1      29.231   6.243  48.192  1.00  0.00     0.022 C 
HETATM   11  C18 UNL     1      30.590   6.022  47.657  1.00  0.00     0.087 C 
HETATM   12  C19 UNL     1      31.555   6.777  48.541  1.00  0.00     0.123 C 
HETATM   13  C20 UNL     1      31.037   8.150  48.851  1.00  0.00     0.033 C 
HETATM   14  C21 UNL     1      29.833   8.548  48.019  1.00  0.00     0.017 C 
HETATM   15  C22 UNL     1      28.687   7.628  48.408  1.00  0.00     0.088 C 
ENDROOT
BRANCH   6  16
HETATM   16  N4  UNL     1      22.967   4.599  49.919  1.00  0.00    -0.186 N 
HETATM   17  H4  UNL     1      21.946   4.767  49.888  1.00  0.00     0.184 HD
BRANCH  16  18
HETATM   18  C5  UNL     1      22.950   3.458  50.768  1.00  0.00     0.096 A 
HETATM   19  C6  UNL     1      23.291   3.459  52.025  1.00  0.00     0.125 A 
HETATM   20  F1  UNL     1      23.699   4.624  52.599  1.00  0.00    -0.208 F 
HETATM   21  C7  UNL     1      23.277   2.274  52.921  1.00  0.00     0.099 A 
HETATM   22  C8  UNL     1      22.820   1.052  52.211  1.00  0.00    -0.019 A 
HETATM   23  C9  UNL     1      22.456   0.978  50.929  1.00  0.00     0.012 A 
HETATM   24  C10 UNL     1      22.517   2.206  50.174  1.00  0.00     0.021 A 
HETATM   25  C11 UNL     1      22.160   2.144  48.904  1.00  0.00     0.202 C 
HETATM   26  F2  UNL     1      21.729   1.167  48.095  1.00  0.00    -0.218 F 
ENDBRANCH  16  18
ENDBRANCH   6  16
BRANCH   7  27
HETATM   27  C12 UNL     1      23.530   7.386  48.597  1.00  0.00     0.135 C 
HETATM   28  C13 UNL     1      22.974   8.008  49.886  1.00  0.00     0.055 C 
HETATM   29  C14 UNL     1      21.756   8.708  49.363  1.00  0.00     0.169 C 
HETATM   30  O1  UNL     1      21.526   8.284  48.085  1.00  0.00    -0.389 OA
HETATM   31  C15 UNL     1      22.260   7.088  47.881  1.00  0.00     0.194 C 
ENDBRANCH   7  27
BRANCH   1  32
HETATM   32  N1  UNL     1      27.412   9.252  47.117  1.00  0.00     0.103 N 
HETATM   33  H1  UNL     1      28.296   9.754  47.254  1.00  0.00     0.315 HD
HETATM   34  H2  UNL     1      26.715   9.700  47.753  1.00  0.00     0.315 HD
ENDBRANCH   1  32
BRANCH  12  35
HETATM   35  O2  UNL     1      32.803   6.827  47.904  1.00  0.00    -0.395 OA
HETATM   36  H21 UNL     1      33.135   7.758  48.091  1.00  0.00     0.210 HD
ENDBRANCH  12  35
TORSDOF 5
ENDMDL
MODEL 6
REMARK VINA RESULT:      -8.4      7.593     11.821
REMARK  5 active torsions:
REMARK  status: ('A' for Active; 'I' for Inactive)
REMARK    1  A    between atoms: N1_1  and  C1_2 
REMARK    2  A    between atoms: C4_7  and  N4_8 
REMARK    3  A    between atoms: N4_8  and  C5_9 
REMARK    4  A    between atoms: N5_18  and  C12_19 
REMARK    5  A    between atoms: C19_28  and  O2_29 
ROOT
HETATM    1  C1  UNL     1      26.301   7.745  49.598  1.00  0.00     0.350 C 
HETATM    2  N2  UNL     1      27.579   7.990  49.013  1.00  0.00    -0.233 NA
HETATM    3  C2  UNL     1      28.579   7.378  48.478  1.00  0.00     0.174 A 
HETATM    4  C3  UNL     1      28.780   6.010  48.253  1.00  0.00     0.139 A 
HETATM    5  N3  UNL     1      29.979   5.859  47.667  1.00  0.00    -0.059 NA
HETATM    6  C4  UNL     1      30.506   7.086  47.532  1.00  0.00     0.710 A 
HETATM    7  N5  UNL     1      29.676   8.003  48.015  1.00  0.00    -0.155 N 
HETATM    8  C16 UNL     1      28.090   4.899  48.477  1.00  0.00     0.152 C 
HETATM    9  N6  UNL     1      26.814   4.667  49.063  1.00  0.00    -0.267 NA
HETATM   10  C17 UNL     1      25.751   5.389  49.213  1.00  0.00     0.022 C 
HETATM   11  C18 UNL     1      24.773   4.531  49.914  1.00  0.00     0.087 C 
HETATM   12  C19 UNL     1      23.512   4.508  49.084  1.00  0.00     0.123 C 
HETATM   13  C20 UNL     1      23.160   5.885  48.604  1.00  0.00     0.033 C 
HETATM   14  C21 UNL     1      23.974   6.984  49.259  1.00  0.00     0.017 C 
HETATM   15  C22 UNL     1      25.419   6.802  48.823  1.00  0.00     0.088 C 
ENDROOT
BRANCH   6  16
HETATM   16  N4  UNL     1      31.778   7.240  46.940  1.00  0.00    -0.186 N 
HETATM   17  H4  UNL     1      32.260   7.812  46.224  1.00  0.00     0.184 HD
BRANCH  16  18
HETATM   18  C5  UNL     1      32.886   6.436  47.323  1.00  0.00     0.096 A 
HETATM   19  C6  UNL     1      33.527   6.538  48.452  1.00  0.00     0.125 A 
HETATM   20  F1  UNL     1      33.129   7.476  49.356  1.00  0.00    -0.208 F 
HETATM   21  C7  UNL     1      34.687   5.705  48.863  1.00  0.00     0.099 A 
HETATM   22  C8  UNL     1      35.049   4.713  47.818  1.00  0.00    -0.019 A 
HETATM   23  C9  UNL     1      34.438   4.552  46.642  1.00  0.00     0.012 A 
HETATM   24  C10 UNL     1      33.325   5.430  46.373  1.00  0.00     0.021 A 
HETATM   25  C11 UNL     1      32.715   5.280  45.211  1.00  0.00     0.202 C 
HETATM   26  F2  UNL     1      32.882   4.467  44.160  1.00  0.00    -0.218 F 
ENDBRANCH  16  18
ENDBRANCH   6  16
BRANCH   7  27
HETATM   27  C12 UNL     1      29.817   9.406  48.079  1.00  0.00     0.135 C 
HETATM   28  C13 UNL     1      30.189  10.021  46.721  1.00  0.00     0.055 C 
HETATM   29  C14 UNL     1      30.760  11.339  47.152  1.00  0.00     0.169 C 
HETATM   30  O1  UNL     1      30.949  11.310  48.505  1.00  0.00    -0.389 OA
HETATM   31  C15 UNL     1      30.913   9.955  48.924  1.00  0.00     0.194 C 
ENDBRANCH   7  27
BRANCH   1  32
HETATM   32  N1  UNL     1      25.629   9.012  49.823  1.00  0.00     0.103 N 
HETATM   33  H1  UNL     1      25.228   9.391  48.959  1.00  0.00     0.315 HD
HETATM   34  H2  UNL     1      26.335   9.707  50.152  1.00  0.00     0.315 HD
ENDBRANCH   1  32
BRANCH  12  35
HETATM   35  O2  UNL     1      22.479   3.949  49.850  1.00  0.00    -0.395 OA
HETATM   36  H21 UNL     1      22.941   3.621  50.681  1.00  0.00     0.210 HD
ENDBRANCH  12  35
TORSDOF 5
ENDMDL
MODEL 7
REMARK VINA RESULT:      -8.4      4.889      6.520
REMARK  5 active torsions:
REMARK  status: ('A' for Active; 'I' for Inactive)
REMARK    1  A    between atoms: N1_1  and  C1_2 
REMARK    2  A    between atoms: C4_7  and  N4_8 
REMARK    3  A    between atoms: N4_8  and  C5_9 
REMARK    4  A    between atoms: N5_18  and  C12_19 
REMARK    5  A    between atoms: C19_28  and  O2_29 
ROOT
HETATM    1  C1  UNL     1      27.681   7.832  47.499  1.00  0.00     0.350 C 
HETATM    2  N2  UNL     1      26.395   7.439  47.975  1.00  0.00    -0.233 NA
HETATM    3  C2  UNL     1      25.784   6.452  48.535  1.00  0.00     0.174 A 
HETATM    4  C3  UNL     1      26.273   5.203  48.938  1.00  0.00     0.139 A 
HETATM    5  N3  UNL     1      25.254   4.512  49.474  1.00  0.00    -0.059 NA
HETATM    6  C4  UNL     1      24.170   5.301  49.408  1.00  0.00     0.710 A 
HETATM    7  N5  UNL     1      24.476   6.465  48.847  1.00  0.00    -0.155 N 
HETATM    8  C16 UNL     1      27.449   4.590  48.908  1.00  0.00     0.152 C 
HETATM    9  N6  UNL     1      28.727   4.993  48.430  1.00  0.00    -0.267 NA
HETATM   10  C17 UNL     1      29.292   6.141  48.238  1.00  0.00     0.022 C 
HETATM   11  C18 UNL     1      30.643   5.846  47.717  1.00  0.00     0.087 C 
HETATM   12  C19 UNL     1      31.637   6.552  48.609  1.00  0.00     0.123 C 
HETATM   13  C20 UNL     1      31.189   7.951  48.910  1.00  0.00     0.033 C 
HETATM   14  C21 UNL     1      30.017   8.410  48.065  1.00  0.00     0.017 C 
HETATM   15  C22 UNL     1      28.820   7.552  48.445  1.00  0.00     0.088 C 
ENDROOT
BRANCH   6  16
HETATM   16  N4  UNL     1      22.934   4.833  49.903  1.00  0.00    -0.186 N 
HETATM   17  H4  UNL     1      22.144   5.144  50.497  1.00  0.00     0.184 HD
BRANCH  16  18
HETATM   18  C5  UNL     1      22.443   3.536  49.592  1.00  0.00     0.096 A 
HETATM   19  C6  UNL     1      22.006   3.164  48.423  1.00  0.00     0.125 A 
HETATM   20  F1  UNL     1      22.009   4.063  47.399  1.00  0.00    -0.208 F 
HETATM   21  C7  UNL     1      21.490   1.812  48.085  1.00  0.00     0.099 A 
HETATM   22  C8  UNL     1      21.525   0.902  49.259  1.00  0.00    -0.019 A 
HETATM   23  C9  UNL     1      21.958   1.213  50.482  1.00  0.00     0.012 A 
HETATM   24  C10 UNL     1      22.432   2.564  50.670  1.00  0.00     0.021 A 
HETATM   25  C11 UNL     1      22.861   2.882  51.877  1.00  0.00     0.202 C 
HETATM   26  F2  UNL     1      22.973   2.226  53.040  1.00  0.00    -0.218 F 
ENDBRANCH  16  18
ENDBRANCH   6  16
BRANCH   7  27
HETATM   27  C12 UNL     1      23.656   7.583  48.580  1.00  0.00     0.135 C 
HETATM   28  C13 UNL     1      23.030   8.170  49.855  1.00  0.00     0.055 C 
HETATM   29  C14 UNL     1      21.880   8.939  49.280  1.00  0.00     0.169 C 
HETATM   30  O1  UNL     1      21.729   8.581  47.969  1.00  0.00    -0.389 OA
HETATM   31  C15 UNL     1      22.432   7.367  47.763  1.00  0.00     0.194 C 
ENDBRANCH   7  27
BRANCH   1  32
HETATM   32  N1  UNL     1      27.646   9.238  47.136  1.00  0.00     0.103 N 
HETATM   33  H1  UNL     1      26.691   9.609  47.134  1.00  0.00     0.315 HD
HETATM   34  H2  UNL     1      28.005   9.336  46.160  1.00  0.00     0.315 HD
ENDBRANCH   1  32
BRANCH  12  35
HETATM   35  O2  UNL     1      32.893   6.535  47.985  1.00  0.00    -0.395 OA
HETATM   36  H21 UNL     1      33.137   5.560  47.954  1.00  0.00     0.210 HD
ENDBRANCH  12  35
TORSDOF 5
ENDMDL
MODEL 8
REMARK VINA RESULT:      -8.3      7.852     11.890
REMARK  5 active torsions:
REMARK  status: ('A' for Active; 'I' for Inactive)
REMARK    1  A    between atoms: N1_1  and  C1_2 
REMARK    2  A    between atoms: C4_7  and  N4_8 
REMARK    3  A    between atoms: N4_8  and  C5_9 
REMARK    4  A    between atoms: N5_18  and  C12_19 
REMARK    5  A    between atoms: C19_28  and  O2_29 
ROOT
HETATM    1  C1  UNL     1      26.397   7.870  49.396  1.00  0.00     0.350 C 
HETATM    2  N2  UNL     1      27.732   8.122  48.960  1.00  0.00    -0.233 NA
HETATM    3  C2  UNL     1      28.793   7.515  48.552  1.00  0.00     0.174 A 
HETATM    4  C3  UNL     1      29.031   6.148  48.366  1.00  0.00     0.139 A 
HETATM    5  N3  UNL     1      30.291   6.004  47.925  1.00  0.00    -0.059 NA
HETATM    6  C4  UNL     1      30.819   7.235  47.839  1.00  0.00     0.710 A 
HETATM    7  N5  UNL     1      29.930   8.148  48.212  1.00  0.00    -0.155 N 
HETATM    8  C16 UNL     1      28.330   5.032  48.521  1.00  0.00     0.152 C 
HETATM    9  N6  UNL     1      26.997   4.792  48.957  1.00  0.00    -0.267 NA
HETATM   10  C17 UNL     1      25.917   5.504  48.976  1.00  0.00     0.022 C 
HETATM   11  C18 UNL     1      24.873   4.643  49.567  1.00  0.00     0.087 C 
HETATM   12  C19 UNL     1      23.716   4.599  48.597  1.00  0.00     0.123 C 
HETATM   13  C20 UNL     1      23.410   5.967  48.065  1.00  0.00     0.033 C 
HETATM   14  C21 UNL     1      24.132   7.081  48.798  1.00  0.00     0.017 C 
HETATM   15  C22 UNL     1      25.620   6.910  48.534  1.00  0.00     0.088 C 
ENDROOT
BRANCH   6  16
HETATM   16  N4  UNL     1      32.149   7.396  47.397  1.00  0.00    -0.186 N 
HETATM   17  H4  UNL     1      32.937   8.066  47.466  1.00  0.00     0.184 HD
BRANCH  16  18
HETATM   18  C5  UNL     1      32.792   6.426  46.580  1.00  0.00     0.096 A 
HETATM   19  C6  UNL     1      32.534   6.224  45.319  1.00  0.00     0.125 A 
HETATM   20  F1  UNL     1      31.583   6.984  44.708  1.00  0.00    -0.208 F 
HETATM   21  C7  UNL     1      33.198   5.213  44.456  1.00  0.00     0.099 A 
HETATM   22  C8  UNL     1      34.217   4.434  45.204  1.00  0.00    -0.019 A 
HETATM   23  C9  UNL     1      34.533   4.587  46.492  1.00  0.00     0.012 A 
HETATM   24  C10 UNL     1      33.809   5.607  47.213  1.00  0.00     0.021 A 
HETATM   25  C11 UNL     1      34.113   5.765  48.488  1.00  0.00     0.202 C 
HETATM   26  F2  UNL     1      34.977   5.181  49.328  1.00  0.00    -0.218 F 
ENDBRANCH  16  18
ENDBRANCH   6  16
BRANCH   7  27
HETATM   27  C12 UNL     1      30.050   9.553  48.277  1.00  0.00     0.135 C 
HETATM   28  C13 UNL     1      30.729  10.142  47.032  1.00  0.00     0.055 C 
HETATM   29  C14 UNL     1      31.181  11.472  47.555  1.00  0.00     0.169 C 
HETATM   30  O1  UNL     1      31.046  11.473  48.915  1.00  0.00    -0.389 OA
HETATM   31  C15 UNL     1      30.915  10.127  49.343  1.00  0.00     0.194 C 
ENDBRANCH   7  27
BRANCH   1  32
HETATM   32  N1  UNL     1      25.691   9.132  49.528  1.00  0.00     0.103 N 
HETATM   33  H1  UNL     1      24.858   9.045  50.119  1.00  0.00     0.315 HD
HETATM   34  H2  UNL     1      25.354   9.421  48.582  1.00  0.00     0.315 HD
ENDBRANCH   1  32
BRANCH  12  35
HETATM   35  O2  UNL     1      22.607   4.036  49.244  1.00  0.00    -0.395 OA
HETATM   36  H21 UNL     1      22.911   3.110  49.489  1.00  0.00     0.210 HD
ENDBRANCH  12  35
TORSDOF 5
ENDMDL
MODEL 9
REMARK VINA RESULT:      -8.1      3.425      6.486
REMARK  5 active torsions:
REMARK  status: ('A' for Active; 'I' for Inactive)
REMARK    1  A    between atoms: N1_1  and  C1_2 
REMARK    2  A    between atoms: C4_7  and  N4_8 
REMARK    3  A    between atoms: N4_8  and  C5_9 
REMARK    4  A    between atoms: N5_18  and  C12_19 
REMARK    5  A    between atoms: C19_28  and  O2_29 
ROOT
HETATM    1  C1  UNL     1      25.861   6.611  49.646  1.00  0.00     0.350 C 
HETATM    2  N2  UNL     1      24.992   5.715  50.336  1.00  0.00    -0.233 NA
HETATM    3  C2  UNL     1      23.771   5.594  50.731  1.00  0.00     0.174 A 
HETATM    4  C3  UNL     1      22.688   6.470  50.585  1.00  0.00     0.139 A 
HETATM    5  N3  UNL     1      21.617   5.903  51.163  1.00  0.00    -0.059 NA
HETATM    6  C4  UNL     1      22.017   4.719  51.653  1.00  0.00     0.710 A 
HETATM    7  N5  UNL     1      23.306   4.524  51.400  1.00  0.00    -0.155 N 
HETATM    8  C16 UNL     1      22.499   7.662  50.034  1.00  0.00     0.152 C 
HETATM    9  N6  UNL     1      23.374   8.549  49.346  1.00  0.00    -0.267 NA
HETATM   10  C17 UNL     1      24.475   8.389  48.685  1.00  0.00     0.022 C 
HETATM   11  C18 UNL     1      24.870   9.736  48.224  1.00  0.00     0.087 C 
HETATM   12  C19 UNL     1      25.051   9.668  46.726  1.00  0.00     0.123 C 
HETATM   13  C20 UNL     1      25.814   8.438  46.333  1.00  0.00     0.033 C 
HETATM   14  C21 UNL     1      26.437   7.707  47.506  1.00  0.00     0.017 C 
HETATM   15  C22 UNL     1      25.300   7.175  48.365  1.00  0.00     0.088 C 
ENDROOT
BRANCH   6  16
HETATM   16  N4  UNL     1      21.092   3.891  52.324  1.00  0.00    -0.186 N 
HETATM   17  H4  UNL     1      20.678   3.757  53.264  1.00  0.00     0.184 HD
BRANCH  16  18
HETATM   18  C5  UNL     1      20.401   2.843  51.657  1.00  0.00     0.096 A 
HETATM   19  C6  UNL     1      19.815   2.955  50.499  1.00  0.00     0.125 A 
HETATM   20  F1  UNL     1      19.850   4.153  49.853  1.00  0.00    -0.208 F 
HETATM   21  C7  UNL     1      19.089   1.867  49.793  1.00  0.00     0.099 A 
HETATM   22  C8  UNL     1      19.103   0.601  50.570  1.00  0.00    -0.019 A 
HETATM   23  C9  UNL     1      19.682   0.415  51.758  1.00  0.00     0.012 A 
HETATM   24  C10 UNL     1      20.353   1.558  52.330  1.00  0.00     0.021 A 
HETATM   25  C11 UNL     1      20.928   1.385  53.506  1.00  0.00     0.202 C 
HETATM   26  F2  UNL     1      21.051   0.351  54.349  1.00  0.00    -0.218 F 
ENDBRANCH  16  18
ENDBRANCH   6  16
BRANCH   7  27
HETATM   27  C12 UNL     1      24.135   3.429  51.726  1.00  0.00     0.135 C 
HETATM   28  C13 UNL     1      23.688   2.129  51.040  1.00  0.00     0.055 C 
HETATM   29  C14 UNL     1      24.354   1.105  51.908  1.00  0.00     0.169 C 
HETATM   30  O1  UNL     1      24.817   1.724  53.035  1.00  0.00    -0.389 OA
HETATM   31  C15 UNL     1      24.166   2.980  53.144  1.00  0.00     0.194 C 
ENDBRANCH   7  27
BRANCH   1  32
HETATM   32  N1  UNL     1      27.133   5.954  49.406  1.00  0.00     0.103 N 
HETATM   33  H1  UNL     1      27.797   6.570  48.926  1.00  0.00     0.315 HD
HETATM   34  H2  UNL     1      26.970   5.141  48.770  1.00  0.00     0.315 HD
ENDBRANCH   1  32
BRANCH  12  35
HETATM   35  O2  UNL     1      25.698  10.836  46.298  1.00  0.00    -0.395 OA
HETATM   36  H21 UNL     1      26.110  11.209  47.136  1.00  0.00     0.210 HD
ENDBRANCH  12  35
TORSDOF 5
ENDMDL
