MODEL 1
REMARK VINA RESULT:      -8.1      0.000      0.000
REMARK  7 active torsions:
REMARK  status: ('A' for Active; 'I' for Inactive)
REMARK    1  A    between atoms: O1_2  and  C2_3 
REMARK    2  A    between atoms: C4_5  and  O2_6 
REMARK    3  A    between atoms: O2_6  and  C5_7 
REMARK    4  A    between atoms: C5_7  and  C6_8 
REMARK    5  A    between atoms: C6_8  and  N1_9 
REMARK    6  A    between atoms: C14_17  and  N2_18 
REMARK    7  A    between atoms: N2_18  and  C15_19 
ROOT
HETATM    1  C2  UNL     1      19.823  -0.453  53.071  1.00  0.00     0.100 A 
HETATM    2  C3  UNL     1      19.598   0.173  51.862  1.00  0.00     0.076 A 
HETATM    3  C4  UNL     1      20.656   0.659  51.124  1.00  0.00     0.072 A 
HETATM    4  C12 UNL     1      21.939   0.488  51.650  1.00  0.00     0.054 A 
HETATM    5  C13 UNL     1      22.170  -0.134  52.852  1.00  0.00     0.044 A 
HETATM    6  C14 UNL     1      23.458  -0.277  53.324  1.00  0.00     0.142 A 
HETATM    7  N3  UNL     1      23.685  -0.890  54.506  1.00  0.00    -0.224 NA
HETATM    8  C20 UNL     1      22.620  -1.361  55.220  1.00  0.00     0.236 A 
HETATM    9  N4  UNL     1      21.352  -1.229  54.770  1.00  0.00    -0.238 NA
HETATM   10  C21 UNL     1      21.091  -0.618  53.585  1.00  0.00     0.105 A 
ENDROOT
BRANCH   3  11
HETATM   11  O2  UNL     1      20.598   1.301  49.911  1.00  0.00    -0.349 OA
BRANCH  11  12
HETATM   12  C5  UNL     1      21.721   2.047  49.481  1.00  0.00     0.206 C 
BRANCH  12  13
HETATM   13  C6  UNL     1      21.503   3.530  49.743  1.00  0.00     0.299 C 
BRANCH  13  14
HETATM   14  N1  UNL     1      22.799   4.173  49.870  1.00  0.00     0.090 N 
HETATM   15  C7  UNL     1      23.846   3.213  50.154  1.00  0.00     0.272 C 
HETATM   16  C8  UNL     1      24.616   3.583  51.387  1.00  0.00     0.030 C 
HETATM   17  C9  UNL     1      23.673   3.628  52.556  1.00  0.00     0.003 C 
HETATM   18  C10 UNL     1      22.608   4.663  52.262  1.00  0.00     0.030 C 
HETATM   19  C11 UNL     1      22.761   5.230  50.867  1.00  0.00     0.272 C 
ENDBRANCH  13  14
ENDBRANCH  12  13
ENDBRANCH  11  12
ENDBRANCH   3  11
BRANCH   1  20
HETATM   20  O1  UNL     1      18.770  -0.946  53.826  1.00  0.00    -0.353 OA
HETATM   21  C1  UNL     1      17.797  -1.754  53.195  1.00  0.00     0.210 C 
ENDBRANCH   1  20
BRANCH   6  22
HETATM   22  N2  UNL     1      24.590   0.186  52.641  1.00  0.00    -0.340 N 
HETATM   23  H20 UNL     1      24.717   0.712  51.751  1.00  0.00     0.167 HD
BRANCH  22  24
HETATM   24  C15 UNL     1      25.950   0.037  53.028  1.00  0.00     0.034 A 
HETATM   25  C16 UNL     1      26.711   0.941  53.664  1.00  0.00     0.045 A 
HETATM   26  C17 UNL     1      28.111   0.450  53.917  1.00  0.00     0.240 A 
HETATM   27  F1  UNL     1      28.203   0.352  55.297  1.00  0.00    -0.239 F 
HETATM   28  C18 UNL     1      28.041  -0.919  53.313  1.00  0.00     0.051 A 
HETATM   29 CL1  UNL     1      29.274  -2.164  53.189  1.00  0.00    -0.086 Cl
HETATM   30  C19 UNL     1      26.823  -1.111  52.827  1.00  0.00     0.052 A 
ENDBRANCH  22  24
ENDBRANCH   6  22
TORSDOF 7
ENDMDL
MODEL 2
REMARK VINA RESULT:      -7.8      1.820      2.334
REMARK  7 active torsions:
REMARK  status: ('A' for Active; 'I' for Inactive)
REMARK    1  A    between atoms: O1_2  and  C2_3 
REMARK    2  A    between atoms: C4_5  and  O2_6 
REMARK    3  A    between atoms: O2_6  and  C5_7 
REMARK    4  A    between atoms: C5_7  and  C6_8 
REMARK    5  A    between atoms: C6_8  and  N1_9 
REMARK    6  A    between atoms: C14_17  and  N2_18 
REMARK    7  A    between atoms: N2_18  and  C15_19 
ROOT
HETATM    1  C2  UNL     1      20.607   0.486  51.376  1.00  0.00     0.100 A 
HETATM    2  C3  UNL     1      20.736   1.361  50.317  1.00  0.00     0.076 A 
HETATM    3  C4  UNL     1      21.944   1.975  50.068  1.00  0.00     0.072 A 
HETATM    4  C12 UNL     1      23.008   1.674  50.922  1.00  0.00     0.054 A 
HETATM    5  C13 UNL     1      22.886   0.804  51.978  1.00  0.00     0.044 A 
HETATM    6  C14 UNL     1      23.969   0.543  52.790  1.00  0.00     0.142 A 
HETATM    7  N3  UNL     1      23.849  -0.314  53.828  1.00  0.00    -0.224 NA
HETATM    8  C20 UNL     1      22.641  -0.910  54.056  1.00  0.00     0.236 A 
HETATM    9  N4  UNL     1      21.571  -0.662  53.268  1.00  0.00    -0.238 NA
HETATM   10  C21 UNL     1      21.659   0.193  52.217  1.00  0.00     0.105 A 
ENDROOT
BRANCH   3  11
HETATM   11  O2  UNL     1      22.233   2.864  49.060  1.00  0.00    -0.349 OA
BRANCH  11  12
HETATM   12  C5  UNL     1      22.495   4.213  49.397  1.00  0.00     0.206 C 
BRANCH  12  13
HETATM   13  C6  UNL     1      23.626   4.762  48.540  1.00  0.00     0.299 C 
BRANCH  13  14
HETATM   14  N1  UNL     1      24.491   5.572  49.379  1.00  0.00     0.090 N 
HETATM   15  C7  UNL     1      25.388   6.391  48.590  1.00  0.00     0.272 C 
HETATM   16  C8  UNL     1      26.821   6.176  48.980  1.00  0.00     0.030 C 
HETATM   17  C9  UNL     1      27.173   4.732  48.767  1.00  0.00     0.003 C 
HETATM   18  C10 UNL     1      26.254   3.891  49.627  1.00  0.00     0.030 C 
HETATM   19  C11 UNL     1      25.220   4.746  50.328  1.00  0.00     0.272 C 
ENDBRANCH  13  14
ENDBRANCH  12  13
ENDBRANCH  11  12
ENDBRANCH   3  11
BRANCH   1  20
HETATM   20  O1  UNL     1      19.399  -0.140  51.641  1.00  0.00    -0.353 OA
HETATM   21  C1  UNL     1      18.211   0.414  51.110  1.00  0.00     0.210 C 
ENDBRANCH   1  20
BRANCH   6  22
HETATM   22  N2  UNL     1      25.231   1.122  52.611  1.00  0.00    -0.340 N 
HETATM   23  H20 UNL     1      25.548   2.015  52.178  1.00  0.00     0.167 HD
BRANCH  22  24
HETATM   24  C15 UNL     1      26.488   0.588  53.005  1.00  0.00     0.034 A 
HETATM   25  C16 UNL     1      27.450   1.218  53.699  1.00  0.00     0.045 A 
HETATM   26  C17 UNL     1      28.655   0.351  53.943  1.00  0.00     0.240 A 
HETATM   27  F1  UNL     1      28.681   0.165  55.317  1.00  0.00    -0.239 F 
HETATM   28  C18 UNL     1      28.232  -0.915  53.265  1.00  0.00     0.051 A 
HETATM   29 CL1  UNL     1      29.082  -2.443  53.091  1.00  0.00    -0.086 Cl
HETATM   30  C19 UNL     1      27.020  -0.744  52.755  1.00  0.00     0.052 A 
ENDBRANCH  22  24
ENDBRANCH   6  22
TORSDOF 7
ENDMDL
MODEL 3
REMARK VINA RESULT:      -7.8      3.713      6.076
REMARK  7 active torsions:
REMARK  status: ('A' for Active; 'I' for Inactive)
REMARK    1  A    between atoms: O1_2  and  C2_3 
REMARK    2  A    between atoms: C4_5  and  O2_6 
REMARK    3  A    between atoms: O2_6  and  C5_7 
REMARK    4  A    between atoms: C5_7  and  C6_8 
REMARK    5  A    between atoms: C6_8  and  N1_9 
REMARK    6  A    between atoms: C14_17  and  N2_18 
REMARK    7  A    between atoms: N2_18  and  C15_19 
ROOT
HETATM    1  C2  UNL     1      26.476  -0.105  53.655  1.00  0.00     0.100 A 
HETATM    2  C3  UNL     1      26.753   0.742  52.602  1.00  0.00     0.076 A 
HETATM    3  C4  UNL     1      25.728   1.375  51.932  1.00  0.00     0.072 A 
HETATM    4  C12 UNL     1      24.424   1.121  52.365  1.00  0.00     0.054 A 
HETATM    5  C13 UNL     1      24.141   0.280  53.413  1.00  0.00     0.044 A 
HETATM    6  C14 UNL     1      22.835   0.066  53.799  1.00  0.00     0.142 A 
HETATM    7  N3  UNL     1      22.558  -0.761  54.830  1.00  0.00    -0.224 NA
HETATM    8  C20 UNL     1      23.591  -1.378  55.478  1.00  0.00     0.236 A 
HETATM    9  N4  UNL     1      24.876  -1.178  55.110  1.00  0.00    -0.238 NA
HETATM   10  C21 UNL     1      25.188  -0.352  54.077  1.00  0.00     0.105 A 
ENDROOT
BRANCH   3  11
HETATM   11  O2  UNL     1      25.838   2.241  50.871  1.00  0.00    -0.349 OA
BRANCH  11  12
HETATM   12  C5  UNL     1      25.092   3.443  50.895  1.00  0.00     0.206 C 
BRANCH  12  13
HETATM   13  C6  UNL     1      24.729   3.870  49.480  1.00  0.00     0.299 C 
BRANCH  13  14
HETATM   14  N1  UNL     1      23.328   4.254  49.457  1.00  0.00     0.090 N 
HETATM   15  C7  UNL     1      22.647   3.860  50.672  1.00  0.00     0.272 C 
HETATM   16  C8  UNL     1      21.429   3.032  50.380  1.00  0.00     0.030 C 
HETATM   17  C9  UNL     1      21.848   1.794  49.639  1.00  0.00     0.003 C 
HETATM   18  C10 UNL     1      22.524   2.220  48.354  1.00  0.00     0.030 C 
HETATM   19  C11 UNL     1      22.663   3.726  48.277  1.00  0.00     0.272 C 
ENDBRANCH  13  14
ENDBRANCH  12  13
ENDBRANCH  11  12
ENDBRANCH   3  11
BRANCH   1  20
HETATM   20  O1  UNL     1      27.495  -0.749  54.339  1.00  0.00    -0.353 OA
HETATM   21  C1  UNL     1      28.631  -0.005  54.733  1.00  0.00     0.210 C 
ENDBRANCH   1  20
BRANCH   6  22
HETATM   22  N2  UNL     1      21.734   0.666  53.176  1.00  0.00    -0.340 N 
HETATM   23  H20 UNL     1      21.594   1.590  52.715  1.00  0.00     0.167 HD
BRANCH  22  24
HETATM   24  C15 UNL     1      20.433   0.116  53.009  1.00  0.00     0.034 A 
HETATM   25  C16 UNL     1      19.436   0.617  52.262  1.00  0.00     0.045 A 
HETATM   26  C17 UNL     1      18.190  -0.225  52.315  1.00  0.00     0.240 A 
HETATM   27  F1  UNL     1      18.045  -0.717  51.026  1.00  0.00    -0.239 F 
HETATM   28  C18 UNL     1      18.631  -1.322  53.233  1.00  0.00     0.051 A 
HETATM   29 CL1  UNL     1      17.754  -2.728  53.818  1.00  0.00    -0.086 Cl
HETATM   30  C19 UNL     1      19.885  -1.097  53.599  1.00  0.00     0.052 A 
ENDBRANCH  22  24
ENDBRANCH   6  22
TORSDOF 7
ENDMDL
MODEL 4
REMARK VINA RESULT:      -7.7      2.033      5.443
REMARK  7 active torsions:
REMARK  status: ('A' for Active; 'I' for Inactive)
REMARK    1  A    between atoms: O1_2  and  C2_3 
REMARK    2  A    between atoms: C4_5  and  O2_6 
REMARK    3  A    between atoms: O2_6  and  C5_7 
REMARK    4  A    between atoms: C5_7  and  C6_8 
REMARK    5  A    between atoms: C6_8  and  N1_9 
REMARK    6  A    between atoms: C14_17  and  N2_18 
REMARK    7  A    between atoms: N2_18  and  C15_19 
ROOT
HETATM    1  C2  UNL     1      23.313   4.737  49.356  1.00  0.00     0.100 A 
HETATM    2  C3  UNL     1      22.134   4.569  50.052  1.00  0.00     0.076 A 
HETATM    3  C4  UNL     1      22.114   3.831  51.216  1.00  0.00     0.072 A 
HETATM    4  C12 UNL     1      23.322   3.276  51.646  1.00  0.00     0.054 A 
HETATM    5  C13 UNL     1      24.499   3.439  50.958  1.00  0.00     0.044 A 
HETATM    6  C14 UNL     1      25.663   2.869  51.428  1.00  0.00     0.142 A 
HETATM    7  N3  UNL     1      26.821   3.031  50.751  1.00  0.00    -0.224 NA
HETATM    8  C20 UNL     1      26.815   3.766  49.599  1.00  0.00     0.236 A 
HETATM    9  N4  UNL     1      25.681   4.331  49.127  1.00  0.00    -0.238 NA
HETATM   10  C21 UNL     1      24.502   4.186  49.784  1.00  0.00     0.105 A 
ENDROOT
BRANCH   3  11
HETATM   11  O2  UNL     1      21.029   3.574  52.019  1.00  0.00    -0.349 OA
BRANCH  11  12
HETATM   12  C5  UNL     1      20.332   2.354  51.850  1.00  0.00     0.206 C 
BRANCH  12  13
HETATM   13  C6  UNL     1      20.410   1.519  53.120  1.00  0.00     0.299 C 
BRANCH  13  14
HETATM   14  N1  UNL     1      20.627   0.132  52.749  1.00  0.00     0.090 N 
HETATM   15  C7  UNL     1      20.186  -0.774  53.788  1.00  0.00     0.272 C 
HETATM   16  C8  UNL     1      21.278  -1.718  54.199  1.00  0.00     0.030 C 
HETATM   17  C9  UNL     1      22.443  -0.921  54.715  1.00  0.00     0.003 C 
HETATM   18  C10 UNL     1      22.916  -0.007  53.606  1.00  0.00     0.030 C 
HETATM   19  C11 UNL     1      22.016  -0.101  52.392  1.00  0.00     0.272 C 
ENDBRANCH  13  14
ENDBRANCH  12  13
ENDBRANCH  11  12
ENDBRANCH   3  11
BRANCH   1  20
HETATM   20  O1  UNL     1      23.350   5.476  48.183  1.00  0.00    -0.353 OA
HETATM   21  C1  UNL     1      23.250   6.884  48.259  1.00  0.00     0.210 C 
ENDBRANCH   1  20
BRANCH   6  22
HETATM   22  N2  UNL     1      25.734   2.105  52.599  1.00  0.00    -0.340 N 
HETATM   23  H20 UNL     1      25.146   2.064  53.458  1.00  0.00     0.167 HD
BRANCH  22  24
HETATM   24  C15 UNL     1      26.706   1.121  52.928  1.00  0.00     0.034 A 
HETATM   25  C16 UNL     1      27.840   1.308  53.623  1.00  0.00     0.045 A 
HETATM   26  C17 UNL     1      28.639   0.043  53.786  1.00  0.00     0.240 A 
HETATM   27  F1  UNL     1      28.606  -0.218  55.147  1.00  0.00    -0.239 F 
HETATM   28  C18 UNL     1      27.768  -0.934  53.058  1.00  0.00     0.051 A 
HETATM   29 CL1  UNL     1      27.987  -2.655  52.781  1.00  0.00    -0.086 Cl
HETATM   30  C19 UNL     1      26.703  -0.296  52.594  1.00  0.00     0.052 A 
ENDBRANCH  22  24
ENDBRANCH   6  22
TORSDOF 7
ENDMDL
MODEL 5
REMARK VINA RESULT:      -7.6      2.755      5.189
REMARK  7 active torsions:
REMARK  status: ('A' for Active; 'I' for Inactive)
REMARK    1  A    between atoms: O1_2  and  C2_3 
REMARK    2  A    between atoms: C4_5  and  O2_6 
REMARK    3  A    between atoms: O2_6  and  C5_7 
REMARK    4  A    between atoms: C5_7  and  C6_8 
REMARK    5  A    between atoms: C6_8  and  N1_9 
REMARK    6  A    between atoms: C14_17  and  N2_18 
REMARK    7  A    between atoms: N2_18  and  C15_19 
ROOT
HETATM    1  C2  UNL     1      19.284  -0.786  53.183  1.00  0.00     0.100 A 
HETATM    2  C3  UNL     1      20.384  -1.107  53.951  1.00  0.00     0.076 A 
HETATM    3  C4  UNL     1      21.647  -0.731  53.547  1.00  0.00     0.072 A 
HETATM    4  C12 UNL     1      21.754  -0.023  52.347  1.00  0.00     0.054 A 
HETATM    5  C13 UNL     1      20.663   0.300  51.577  1.00  0.00     0.044 A 
HETATM    6  C14 UNL     1      20.826   1.000  50.401  1.00  0.00     0.142 A 
HETATM    7  N3  UNL     1      19.753   1.319  49.645  1.00  0.00    -0.224 NA
HETATM    8  C20 UNL     1      18.511   0.934  50.066  1.00  0.00     0.236 A 
HETATM    9  N4  UNL     1      18.337   0.246  51.217  1.00  0.00    -0.238 NA
HETATM   10  C21 UNL     1      19.396  -0.089  51.999  1.00  0.00     0.105 A 
ENDROOT
BRANCH   3  11
HETATM   11  O2  UNL     1      22.834  -0.972  54.196  1.00  0.00    -0.349 OA
BRANCH  11  12
HETATM   12  C5  UNL     1      24.046  -0.664  53.534  1.00  0.00     0.206 C 
BRANCH  12  13
HETATM   13  C6  UNL     1      25.199  -0.633  54.526  1.00  0.00     0.299 C 
BRANCH  13  14
HETATM   14  N1  UNL     1      25.865   0.654  54.421  1.00  0.00     0.090 N 
HETATM   15  C7  UNL     1      25.276   1.477  53.386  1.00  0.00     0.272 C 
HETATM   16  C8  UNL     1      26.306   1.947  52.401  1.00  0.00     0.030 C 
HETATM   17  C9  UNL     1      26.948   0.751  51.758  1.00  0.00     0.003 C 
HETATM   18  C10 UNL     1      27.591  -0.080  52.848  1.00  0.00     0.030 C 
HETATM   19  C11 UNL     1      27.295   0.485  54.220  1.00  0.00     0.272 C 
ENDBRANCH  13  14
ENDBRANCH  12  13
ENDBRANCH  11  12
ENDBRANCH   3  11
BRANCH   1  20
HETATM   20  O1  UNL     1      18.007  -1.158  53.574  1.00  0.00    -0.353 OA
HETATM   21  C1  UNL     1      17.669  -2.530  53.588  1.00  0.00     0.210 C 
ENDBRANCH   1  20
BRANCH   6  22
HETATM   22  N2  UNL     1      22.070   1.422  49.915  1.00  0.00    -0.340 N 
HETATM   23  H20 UNL     1      22.745   1.008  49.237  1.00  0.00     0.167 HD
BRANCH  22  24
HETATM   24  C15 UNL     1      22.772   2.610  50.258  1.00  0.00     0.034 A 
HETATM   25  C16 UNL     1      22.408   3.527  51.168  1.00  0.00     0.045 A 
HETATM   26  C17 UNL     1      23.388   4.663  51.274  1.00  0.00     0.240 A 
HETATM   27  F1  UNL     1      23.923   4.548  52.549  1.00  0.00    -0.239 F 
HETATM   28  C18 UNL     1      24.406   4.251  50.256  1.00  0.00     0.051 A 
HETATM   29 CL1  UNL     1      25.891   5.046  49.757  1.00  0.00    -0.086 Cl
HETATM   30  C19 UNL     1      24.027   3.104  49.711  1.00  0.00     0.052 A 
ENDBRANCH  22  24
ENDBRANCH   6  22
TORSDOF 7
ENDMDL
MODEL 6
REMARK VINA RESULT:      -7.6      3.546      5.832
REMARK  7 active torsions:
REMARK  status: ('A' for Active; 'I' for Inactive)
REMARK    1  A    between atoms: O1_2  and  C2_3 
REMARK    2  A    between atoms: C4_5  and  O2_6 
REMARK    3  A    between atoms: O2_6  and  C5_7 
REMARK    4  A    between atoms: C5_7  and  C6_8 
REMARK    5  A    between atoms: C6_8  and  N1_9 
REMARK    6  A    between atoms: C14_17  and  N2_18 
REMARK    7  A    between atoms: N2_18  and  C15_19 
ROOT
HETATM    1  C2  UNL     1      27.285   2.049  53.494  1.00  0.00     0.100 A 
HETATM    2  C3  UNL     1      27.128   2.596  52.238  1.00  0.00     0.076 A 
HETATM    3  C4  UNL     1      26.103   2.174  51.420  1.00  0.00     0.072 A 
HETATM    4  C12 UNL     1      25.250   1.185  51.916  1.00  0.00     0.054 A 
HETATM    5  C13 UNL     1      25.400   0.636  53.165  1.00  0.00     0.044 A 
HETATM    6  C14 UNL     1      24.529  -0.337  53.605  1.00  0.00     0.142 A 
HETATM    7  N3  UNL     1      24.676  -0.877  54.835  1.00  0.00    -0.224 NA
HETATM    8  C20 UNL     1      25.701  -0.443  55.628  1.00  0.00     0.236 A 
HETATM    9  N4  UNL     1      26.563   0.511  55.209  1.00  0.00    -0.238 NA
HETATM   10  C21 UNL     1      26.441   1.073  53.979  1.00  0.00     0.105 A 
ENDROOT
BRANCH   3  11
HETATM   11  O2  UNL     1      25.815   2.618  50.151  1.00  0.00    -0.349 OA
BRANCH  11  12
HETATM   12  C5  UNL     1      25.707   4.010  49.926  1.00  0.00     0.206 C 
BRANCH  12  13
HETATM   13  C6  UNL     1      24.438   4.325  49.148  1.00  0.00     0.299 C 
BRANCH  13  14
HETATM   14  N1  UNL     1      23.618   5.222  49.944  1.00  0.00     0.090 N 
HETATM   15  C7  UNL     1      24.169   5.415  51.269  1.00  0.00     0.272 C 
HETATM   16  C8  UNL     1      23.162   5.102  52.337  1.00  0.00     0.030 C 
HETATM   17  C9  UNL     1      22.732   3.669  52.197  1.00  0.00     0.003 C 
HETATM   18  C10 UNL     1      22.124   3.492  50.822  1.00  0.00     0.030 C 
HETATM   19  C11 UNL     1      22.242   4.758  50.000  1.00  0.00     0.272 C 
ENDBRANCH  13  14
ENDBRANCH  12  13
ENDBRANCH  11  12
ENDBRANCH   3  11
BRANCH   1  20
HETATM   20  O1  UNL     1      28.311   2.462  54.330  1.00  0.00    -0.353 OA
HETATM   21  C1  UNL     1      29.535   1.755  54.311  1.00  0.00     0.210 C 
ENDBRANCH   1  20
BRANCH   6  22
HETATM   22  N2  UNL     1      23.462  -0.826  52.841  1.00  0.00    -0.340 N 
HETATM   23  H20 UNL     1      23.344  -1.671  52.243  1.00  0.00     0.167 HD
BRANCH  22  24
HETATM   24  C15 UNL     1      22.176  -0.239  52.682  1.00  0.00     0.034 A 
HETATM   25  C16 UNL     1      21.397   0.271  53.649  1.00  0.00     0.045 A 
HETATM   26  C17 UNL     1      20.095   0.812  53.123  1.00  0.00     0.240 A 
HETATM   27  F1  UNL     1      20.167   2.178  53.350  1.00  0.00    -0.239 F 
HETATM   28  C18 UNL     1      20.244   0.529  51.660  1.00  0.00     0.051 A 
HETATM   29 CL1  UNL     1      19.146   0.855  50.328  1.00  0.00    -0.086 Cl
HETATM   30  C19 UNL     1      21.415  -0.057  51.454  1.00  0.00     0.052 A 
ENDBRANCH  22  24
ENDBRANCH   6  22
TORSDOF 7
ENDMDL
MODEL 7
REMARK VINA RESULT:      -7.5      2.813      5.412
REMARK  7 active torsions:
REMARK  status: ('A' for Active; 'I' for Inactive)
REMARK    1  A    between atoms: O1_2  and  C2_3 
REMARK    2  A    between atoms: C4_5  and  O2_6 
REMARK    3  A    between atoms: O2_6  and  C5_7 
REMARK    4  A    between atoms: C5_7  and  C6_8 
REMARK    5  A    between atoms: C6_8  and  N1_9 
REMARK    6  A    between atoms: C14_17  and  N2_18 
REMARK    7  A    between atoms: N2_18  and  C15_19 
ROOT
HETATM    1  C2  UNL     1      19.706   0.142  52.589  1.00  0.00     0.100 A 
HETATM    2  C3  UNL     1      20.737  -0.526  53.216  1.00  0.00     0.076 A 
HETATM    3  C4  UNL     1      21.915   0.129  53.503  1.00  0.00     0.072 A 
HETATM    4  C12 UNL     1      22.009   1.473  53.136  1.00  0.00     0.054 A 
HETATM    5  C13 UNL     1      20.987   2.144  52.512  1.00  0.00     0.044 A 
HETATM    6  C14 UNL     1      21.133   3.472  52.172  1.00  0.00     0.142 A 
HETATM    7  N3  UNL     1      20.127   4.132  51.559  1.00  0.00    -0.224 NA
HETATM    8  C20 UNL     1      18.969   3.462  51.284  1.00  0.00     0.236 A 
HETATM    9  N4  UNL     1      18.811   2.159  51.611  1.00  0.00    -0.238 NA
HETATM   10  C21 UNL     1      19.804   1.468  52.228  1.00  0.00     0.105 A 
ENDROOT
BRANCH   3  11
HETATM   11  O2  UNL     1      23.027  -0.393  54.119  1.00  0.00    -0.349 OA
BRANCH  11  12
HETATM   12  C5  UNL     1      24.298  -0.153  53.545  1.00  0.00     0.206 C 
BRANCH  12  13
HETATM   13  C6  UNL     1      25.400  -0.619  54.486  1.00  0.00     0.299 C 
BRANCH  13  14
HETATM   14  N1  UNL     1      26.264   0.511  54.781  1.00  0.00     0.090 N 
HETATM   15  C7  UNL     1      25.942   1.659  53.959  1.00  0.00     0.272 C 
HETATM   16  C8  UNL     1      27.145   2.166  53.220  1.00  0.00     0.030 C 
HETATM   17  C9  UNL     1      27.670   1.071  52.334  1.00  0.00     0.003 C 
HETATM   18  C10 UNL     1      28.038  -0.107  53.210  1.00  0.00     0.030 C 
HETATM   19  C11 UNL     1      27.665   0.142  54.656  1.00  0.00     0.272 C 
ENDBRANCH  13  14
ENDBRANCH  12  13
ENDBRANCH  11  12
ENDBRANCH   3  11
BRANCH   1  20
HETATM   20  O1  UNL     1      18.514  -0.502  52.293  1.00  0.00    -0.353 OA
HETATM   21  C1  UNL     1      17.947  -1.367  53.257  1.00  0.00     0.210 C 
ENDBRANCH   1  20
BRANCH   6  22
HETATM   22  N2  UNL     1      22.294   4.214  52.425  1.00  0.00    -0.340 N 
HETATM   23  H20 UNL     1      22.656   4.700  53.272  1.00  0.00     0.167 HD
BRANCH  22  24
HETATM   24  C15 UNL     1      23.343   4.510  51.512  1.00  0.00     0.034 A 
HETATM   25  C16 UNL     1      23.574   5.684  50.902  1.00  0.00     0.045 A 
HETATM   26  C17 UNL     1      24.776   5.644  49.997  1.00  0.00     0.240 A 
HETATM   27  F1  UNL     1      25.688   6.504  50.588  1.00  0.00    -0.239 F 
HETATM   28  C18 UNL     1      25.219   4.225  50.183  1.00  0.00     0.051 A 
HETATM   29 CL1  UNL     1      26.570   3.360  49.466  1.00  0.00    -0.086 Cl
HETATM   30  C19 UNL     1      24.396   3.626  51.032  1.00  0.00     0.052 A 
ENDBRANCH  22  24
ENDBRANCH   6  22
TORSDOF 7
ENDMDL
MODEL 8
REMARK VINA RESULT:      -7.4      3.899      7.492
REMARK  7 active torsions:
REMARK  status: ('A' for Active; 'I' for Inactive)
REMARK    1  A    between atoms: O1_2  and  C2_3 
REMARK    2  A    between atoms: C4_5  and  O2_6 
REMARK    3  A    between atoms: O2_6  and  C5_7 
REMARK    4  A    between atoms: C5_7  and  C6_8 
REMARK    5  A    between atoms: C6_8  and  N1_9 
REMARK    6  A    between atoms: C14_17  and  N2_18 
REMARK    7  A    between atoms: N2_18  and  C15_19 
ROOT
HETATM    1  C2  UNL     1      24.995   5.723  48.867  1.00  0.00     0.100 A 
HETATM    2  C3  UNL     1      26.052   5.160  49.551  1.00  0.00     0.076 A 
HETATM    3  C4  UNL     1      25.957   3.874  50.039  1.00  0.00     0.072 A 
HETATM    4  C12 UNL     1      24.763   3.186  49.810  1.00  0.00     0.054 A 
HETATM    5  C13 UNL     1      23.707   3.741  49.129  1.00  0.00     0.044 A 
HETATM    6  C14 UNL     1      22.551   3.016  48.931  1.00  0.00     0.142 A 
HETATM    7  N3  UNL     1      21.513   3.562  48.261  1.00  0.00    -0.224 NA
HETATM    8  C20 UNL     1      21.631   4.839  47.788  1.00  0.00     0.236 A 
HETATM    9  N4  UNL     1      22.758   5.561  47.976  1.00  0.00    -0.238 NA
HETATM   10  C21 UNL     1      23.819   5.040  48.645  1.00  0.00     0.105 A 
ENDROOT
BRANCH   3  11
HETATM   11  O2  UNL     1      26.914   3.176  50.735  1.00  0.00    -0.349 OA
BRANCH  11  12
HETATM   12  C5  UNL     1      26.498   2.212  51.684  1.00  0.00     0.206 C 
BRANCH  12  13
HETATM   13  C6  UNL     1      27.554   2.045  52.767  1.00  0.00     0.299 C 
BRANCH  13  14
HETATM   14  N1  UNL     1      27.837   0.629  52.923  1.00  0.00     0.090 N 
HETATM   15  C7  UNL     1      26.907  -0.187  52.171  1.00  0.00     0.272 C 
HETATM   16  C8  UNL     1      26.238  -1.210  53.043  1.00  0.00     0.030 C 
HETATM   17  C9  UNL     1      25.485  -0.503  54.134  1.00  0.00     0.003 C 
HETATM   18  C10 UNL     1      26.475   0.316  54.935  1.00  0.00     0.030 C 
HETATM   19  C11 UNL     1      27.861   0.254  54.327  1.00  0.00     0.272 C 
ENDBRANCH  13  14
ENDBRANCH  12  13
ENDBRANCH  11  12
ENDBRANCH   3  11
BRANCH   1  20
HETATM   20  O1  UNL     1      25.075   7.015  48.371  1.00  0.00    -0.353 OA
HETATM   21  C1  UNL     1      25.398   8.069  49.256  1.00  0.00     0.210 C 
ENDBRANCH   1  20
BRANCH   6  22
HETATM   22  N2  UNL     1      22.368   1.707  49.391  1.00  0.00    -0.340 N 
HETATM   23  H20 UNL     1      22.656   0.776  49.021  1.00  0.00     0.167 HD
BRANCH  22  24
HETATM   24  C15 UNL     1      21.688   1.294  50.570  1.00  0.00     0.034 A 
HETATM   25  C16 UNL     1      20.361   1.273  50.769  1.00  0.00     0.045 A 
HETATM   26  C17 UNL     1      19.985   0.778  52.140  1.00  0.00     0.240 A 
HETATM   27  F1  UNL     1      19.323  -0.419  51.911  1.00  0.00    -0.239 F 
HETATM   28  C18 UNL     1      21.339   0.508  52.721  1.00  0.00     0.051 A 
HETATM   29 CL1  UNL     1      21.787  -0.099  54.308  1.00  0.00    -0.086 Cl
HETATM   30  C19 UNL     1      22.261   0.809  51.817  1.00  0.00     0.052 A 
ENDBRANCH  22  24
ENDBRANCH   6  22
TORSDOF 7
ENDMDL
MODEL 9
REMARK VINA RESULT:      -7.4      3.888      6.082
REMARK  7 active torsions:
REMARK  status: ('A' for Active; 'I' for Inactive)
REMARK    1  A    between atoms: O1_2  and  C2_3 
REMARK    2  A    between atoms: C4_5  and  O2_6 
REMARK    3  A    between atoms: O2_6  and  C5_7 
REMARK    4  A    between atoms: C5_7  and  C6_8 
REMARK    5  A    between atoms: C6_8  and  N1_9 
REMARK    6  A    between atoms: C14_17  and  N2_18 
REMARK    7  A    between atoms: N2_18  and  C15_19 
ROOT
HETATM    1  C2  UNL     1      27.114   0.035  53.305  1.00  0.00     0.100 A 
HETATM    2  C3  UNL     1      27.629   1.017  52.485  1.00  0.00     0.076 A 
HETATM    3  C4  UNL     1      26.793   1.952  51.913  1.00  0.00     0.072 A 
HETATM    4  C12 UNL     1      25.429   1.858  52.201  1.00  0.00     0.054 A 
HETATM    5  C13 UNL     1      24.910   0.883  53.017  1.00  0.00     0.044 A 
HETATM    6  C14 UNL     1      23.556   0.836  53.268  1.00  0.00     0.142 A 
HETATM    7  N3  UNL     1      23.045  -0.122  54.072  1.00  0.00    -0.224 NA
HETATM    8  C20 UNL     1      23.893  -1.039  54.626  1.00  0.00     0.236 A 
HETATM    9  N4  UNL     1      25.224  -1.006  54.388  1.00  0.00    -0.238 NA
HETATM   10  C21 UNL     1      25.767  -0.054  53.585  1.00  0.00     0.105 A 
ENDROOT
BRANCH   3  11
HETATM   11  O2  UNL     1      27.149   2.985  51.080  1.00  0.00    -0.349 OA
BRANCH  11  12
HETATM   12  C5  UNL     1      26.428   3.167  49.875  1.00  0.00     0.206 C 
BRANCH  12  13
HETATM   13  C6  UNL     1      25.895   4.589  49.786  1.00  0.00     0.299 C 
BRANCH  13  14
HETATM   14  N1  UNL     1      24.445   4.545  49.862  1.00  0.00     0.090 N 
HETATM   15  C7  UNL     1      23.830   5.210  48.732  1.00  0.00     0.272 C 
HETATM   16  C8  UNL     1      22.859   6.266  49.173  1.00  0.00     0.030 C 
HETATM   17  C9  UNL     1      23.591   7.288  49.995  1.00  0.00     0.003 C 
HETATM   18  C10 UNL     1      24.195   6.585  51.192  1.00  0.00     0.030 C 
HETATM   19  C11 UNL     1      23.972   5.089  51.124  1.00  0.00     0.272 C 
ENDBRANCH  13  14
ENDBRANCH  12  13
ENDBRANCH  11  12
ENDBRANCH   3  11
BRANCH   1  20
HETATM   20  O1  UNL     1      27.940  -0.914  53.887  1.00  0.00    -0.353 OA
HETATM   21  C1  UNL     1      29.289  -0.579  54.146  1.00  0.00     0.210 C 
ENDBRANCH   1  20
BRANCH   6  22
HETATM   22  N2  UNL     1      22.635   1.744  52.730  1.00  0.00    -0.340 N 
HETATM   23  H20 UNL     1      22.350   2.710  52.998  1.00  0.00     0.167 HD
BRANCH  22  24
HETATM   24  C15 UNL     1      21.798   1.553  51.597  1.00  0.00     0.034 A 
HETATM   25  C16 UNL     1      22.109   1.798  50.314  1.00  0.00     0.045 A 
HETATM   26  C17 UNL     1      20.981   1.482  49.370  1.00  0.00     0.240 A 
HETATM   27  F1  UNL     1      21.447   0.420  48.610  1.00  0.00    -0.239 F 
HETATM   28  C18 UNL     1      19.938   1.001  50.331  1.00  0.00     0.051 A 
HETATM   29 CL1  UNL     1      18.302   0.434  50.033  1.00  0.00    -0.086 Cl
HETATM   30  C19 UNL     1      20.430   1.057  51.561  1.00  0.00     0.052 A 
ENDBRANCH  22  24
ENDBRANCH   6  22
TORSDOF 7
ENDMDL
