MODEL 1
REMARK VINA RESULT:      -8.5      0.000      0.000
REMARK  2 active torsions:
REMARK  status: ('A' for Active; 'I' for Inactive)
REMARK    1  A    between atoms: C3_3  and  N1_4 
REMARK    2  A    between atoms: N1_4  and  C4_5 
ROOT
HETATM    1  C4  UNL     1      24.718   0.508  52.947  1.00  0.00     0.160 A 
HETATM    2  N2  UNL     1      25.355   1.364  52.157  1.00  0.00    -0.222 NA
HETATM    3  C5  UNL     1      24.645   2.115  51.267  1.00  0.00     0.238 A 
HETATM    4  N3  UNL     1      23.314   1.985  51.196  1.00  0.00    -0.215 NA
HETATM    5  C6  UNL     1      22.711   1.110  52.011  1.00  0.00     0.202 A 
HETATM    6  C7  UNL     1      23.354   0.318  52.933  1.00  0.00     0.129 A 
HETATM    7  N4  UNL     1      22.915  -0.654  53.872  1.00  0.00    -0.379 N 
HETATM    8  C8  UNL     1      21.583  -0.680  54.423  1.00  0.00     0.161 C 
HETATM    9  C9  UNL     1      20.517  -0.460  53.439  1.00  0.00    -0.007 A 
HETATM   10  C10 UNL     1      19.381  -1.218  53.749  1.00  0.00     0.011 A 
HETATM   11  C11 UNL     1      18.204  -1.244  53.031  1.00  0.00     0.001 A 
HETATM   12  C12 UNL     1      18.128  -0.455  51.901  1.00  0.00     0.003 A 
HETATM   13  C13 UNL     1      19.219   0.328  51.527  1.00  0.00     0.038 A 
HETATM   14  C14 UNL     1      20.372   0.305  52.296  1.00  0.00     0.086 A 
HETATM   15  O1  UNL     1      21.334   1.146  51.762  1.00  0.00    -0.289 OA
HETATM   16  H3  UNL     1      23.696  -1.313  54.078  1.00  0.00     0.160 HD
ENDROOT
BRANCH   1  17
HETATM   17  N1  UNL     1      25.563  -0.212  53.825  1.00  0.00    -0.338 N 
HETATM   18  H1  UNL     1      25.692  -0.571  54.789  1.00  0.00     0.167 HD
BRANCH  17  19
HETATM   19  C3  UNL     1      26.808  -0.748  53.387  1.00  0.00     0.045 C 
HETATM   20  C2  UNL     1      26.887  -1.854  52.737  1.00  0.00     0.015 C 
HETATM   21  C1  UNL     1      27.982  -2.507  52.635  1.00  0.00    -0.011 C 
HETATM   22  C17 UNL     1      29.076  -2.153  53.262  1.00  0.00     0.013 C 
HETATM   23  C16 UNL     1      29.163  -0.743  53.614  1.00  0.00     0.003 C 
HETATM   24  C15 UNL     1      28.049  -0.015  53.684  1.00  0.00     0.030 C 
ENDBRANCH  17  19
ENDBRANCH   1  17
TORSDOF 2
ENDMDL
MODEL 2
REMARK VINA RESULT:      -8.5      2.553      7.224
REMARK  2 active torsions:
REMARK  status: ('A' for Active; 'I' for Inactive)
REMARK    1  A    between atoms: C3_3  and  N1_4 
REMARK    2  A    between atoms: N1_4  and  C4_5 
ROOT
HETATM    1  C4  UNL     1      24.172   2.514  52.836  1.00  0.00     0.160 A 
HETATM    2  N2  UNL     1      22.947   2.017  52.709  1.00  0.00    -0.222 NA
HETATM    3  C5  UNL     1      22.754   0.670  52.804  1.00  0.00     0.238 A 
HETATM    4  N3  UNL     1      23.797  -0.140  53.026  1.00  0.00    -0.215 NA
HETATM    5  C6  UNL     1      25.016   0.403  53.148  1.00  0.00     0.202 A 
HETATM    6  C7  UNL     1      25.293   1.747  53.063  1.00  0.00     0.129 A 
HETATM    7  N4  UNL     1      26.484   2.515  53.160  1.00  0.00    -0.379 N 
HETATM    8  C8  UNL     1      27.656   2.074  53.876  1.00  0.00     0.161 C 
HETATM    9  C9  UNL     1      28.016   0.671  53.642  1.00  0.00    -0.007 A 
HETATM   10  C10 UNL     1      29.406   0.501  53.644  1.00  0.00     0.011 A 
HETATM   11  C11 UNL     1      30.076  -0.690  53.453  1.00  0.00     0.001 A 
HETATM   12  C12 UNL     1      29.317  -1.823  53.240  1.00  0.00     0.003 A 
HETATM   13  C13 UNL     1      27.926  -1.733  53.225  1.00  0.00     0.038 A 
HETATM   14  C14 UNL     1      27.319  -0.503  53.423  1.00  0.00     0.086 A 
HETATM   15  O1  UNL     1      25.940  -0.624  53.372  1.00  0.00    -0.289 OA
HETATM   16  H3  UNL     1      26.362   3.411  52.641  1.00  0.00     0.160 HD
ENDROOT
BRANCH   1  17
HETATM   17  N1  UNL     1      24.242   3.922  52.717  1.00  0.00    -0.338 N 
HETATM   18  H1  UNL     1      24.407   4.819  53.213  1.00  0.00     0.167 HD
BRANCH  17  19
HETATM   19  C3  UNL     1      24.022   4.576  51.470  1.00  0.00     0.045 C 
HETATM   20  C2  UNL     1      23.037   5.381  51.284  1.00  0.00     0.015 C 
HETATM   21  C1  UNL     1      22.634   5.703  50.114  1.00  0.00    -0.011 C 
HETATM   22  C17 UNL     1      23.124   5.165  49.025  1.00  0.00     0.013 C 
HETATM   23  C16 UNL     1      24.472   4.629  49.148  1.00  0.00     0.003 C 
HETATM   24  C15 UNL     1      24.948   4.325  50.355  1.00  0.00     0.030 C 
ENDBRANCH  17  19
ENDBRANCH   1  17
TORSDOF 2
ENDMDL
MODEL 3
REMARK VINA RESULT:      -8.2      2.882      5.309
REMARK  2 active torsions:
REMARK  status: ('A' for Active; 'I' for Inactive)
REMARK    1  A    between atoms: C3_3  and  N1_4 
REMARK    2  A    between atoms: N1_4  and  C4_5 
ROOT
HETATM    1  C4  UNL     1      25.607   2.594  50.816  1.00  0.00     0.160 A 
HETATM    2  N2  UNL     1      26.860   2.605  51.255  1.00  0.00    -0.222 NA
HETATM    3  C5  UNL     1      27.203   1.841  52.332  1.00  0.00     0.238 A 
HETATM    4  N3  UNL     1      26.277   1.086  52.937  1.00  0.00    -0.215 NA
HETATM    5  C6  UNL     1      25.025   1.104  52.461  1.00  0.00     0.202 A 
HETATM    6  C7  UNL     1      24.600   1.846  51.384  1.00  0.00     0.129 A 
HETATM    7  N4  UNL     1      23.348   2.007  50.732  1.00  0.00    -0.379 N 
HETATM    8  C8  UNL     1      22.303   1.015  50.765  1.00  0.00     0.161 C 
HETATM    9  C9  UNL     1      22.073   0.422  52.088  1.00  0.00    -0.007 A 
HETATM   10  C10 UNL     1      20.716   0.141  52.285  1.00  0.00     0.011 A 
HETATM   11  C11 UNL     1      20.160  -0.418  53.417  1.00  0.00     0.001 A 
HETATM   12  C12 UNL     1      21.012  -0.734  54.456  1.00  0.00     0.003 A 
HETATM   13  C13 UNL     1      22.377  -0.484  54.334  1.00  0.00     0.038 A 
HETATM   14  C14 UNL     1      22.867   0.081  53.168  1.00  0.00     0.086 A 
HETATM   15  O1  UNL     1      24.240   0.248  53.242  1.00  0.00    -0.289 OA
HETATM   16  H3  UNL     1      23.326   2.932  50.251  1.00  0.00     0.160 HD
ENDROOT
BRANCH   1  17
HETATM   17  N1  UNL     1      25.377   3.427  49.696  1.00  0.00    -0.338 N 
HETATM   18  H1  UNL     1      24.837   3.558  48.820  1.00  0.00     0.167 HD
BRANCH  17  19
HETATM   19  C3  UNL     1      26.093   4.646  49.515  1.00  0.00     0.045 C 
HETATM   20  C2  UNL     1      25.645   5.773  49.941  1.00  0.00     0.015 C 
HETATM   21  C1  UNL     1      26.089   6.890  49.505  1.00  0.00    -0.011 C 
HETATM   22  C17 UNL     1      26.957   6.972  48.527  1.00  0.00     0.013 C 
HETATM   23  C16 UNL     1      27.792   5.795  48.336  1.00  0.00     0.003 C 
HETATM   24  C15 UNL     1      27.388   4.620  48.817  1.00  0.00     0.030 C 
ENDBRANCH  17  19
ENDBRANCH   1  17
TORSDOF 2
ENDMDL
MODEL 4
REMARK VINA RESULT:      -8.1      3.327      6.219
REMARK  2 active torsions:
REMARK  status: ('A' for Active; 'I' for Inactive)
REMARK    1  A    between atoms: C3_3  and  N1_4 
REMARK    2  A    between atoms: N1_4  and  C4_5 
ROOT
HETATM    1  C4  UNL     1      25.434   1.954  51.745  1.00  0.00     0.160 A 
HETATM    2  N2  UNL     1      24.506   1.362  52.487  1.00  0.00    -0.222 NA
HETATM    3  C5  UNL     1      23.366   2.040  52.808  1.00  0.00     0.238 A 
HETATM    4  N3  UNL     1      23.191   3.294  52.372  1.00  0.00    -0.215 NA
HETATM    5  C6  UNL     1      24.152   3.854  51.626  1.00  0.00     0.202 A 
HETATM    6  C7  UNL     1      25.327   3.239  51.261  1.00  0.00     0.129 A 
HETATM    7  N4  UNL     1      26.453   3.643  50.494  1.00  0.00    -0.379 N 
HETATM    8  C8  UNL     1      26.397   4.670  49.484  1.00  0.00     0.161 C 
HETATM    9  C9  UNL     1      25.639   5.864  49.875  1.00  0.00    -0.007 A 
HETATM   10  C10 UNL     1      26.211   7.022  49.334  1.00  0.00     0.011 A 
HETATM   11  C11 UNL     1      25.748   8.310  49.508  1.00  0.00     0.001 A 
HETATM   12  C12 UNL     1      24.620   8.484  50.283  1.00  0.00     0.003 A 
HETATM   13  C13 UNL     1      23.995   7.378  50.856  1.00  0.00     0.038 A 
HETATM   14  C14 UNL     1      24.514   6.112  50.640  1.00  0.00     0.086 A 
HETATM   15  O1  UNL     1      23.755   5.153  51.290  1.00  0.00    -0.289 OA
HETATM   16  H3  UNL     1      27.286   3.088  50.785  1.00  0.00     0.160 HD
ENDROOT
BRANCH   1  17
HETATM   17  N1  UNL     1      26.568   1.149  51.481  1.00  0.00    -0.338 N 
HETATM   18  H1  UNL     1      27.127   0.665  50.753  1.00  0.00     0.167 HD
BRANCH  17  19
HETATM   19  C3  UNL     1      27.431   0.714  52.528  1.00  0.00     0.045 C 
HETATM   20  C2  UNL     1      28.122   1.538  53.232  1.00  0.00     0.015 C 
HETATM   21  C1  UNL     1      29.129   1.163  53.925  1.00  0.00    -0.011 C 
HETATM   22  C17 UNL     1      29.592  -0.062  53.893  1.00  0.00     0.013 C 
HETATM   23  C16 UNL     1      28.629  -1.080  53.498  1.00  0.00     0.003 C 
HETATM   24  C15 UNL     1      27.541  -0.724  52.817  1.00  0.00     0.030 C 
ENDBRANCH  17  19
ENDBRANCH   1  17
TORSDOF 2
ENDMDL
MODEL 5
REMARK VINA RESULT:      -8.0      1.503      2.394
REMARK  2 active torsions:
REMARK  status: ('A' for Active; 'I' for Inactive)
REMARK    1  A    between atoms: C3_3  and  N1_4 
REMARK    2  A    between atoms: N1_4  and  C4_5 
ROOT
HETATM    1  C4  UNL     1      25.484   1.972  51.585  1.00  0.00     0.160 A 
HETATM    2  N2  UNL     1      25.500   3.182  51.039  1.00  0.00    -0.222 NA
HETATM    3  C5  UNL     1      24.355   3.924  51.013  1.00  0.00     0.238 A 
HETATM    4  N3  UNL     1      23.227   3.429  51.538  1.00  0.00    -0.215 NA
HETATM    5  C6  UNL     1      23.255   2.204  52.079  1.00  0.00     0.202 A 
HETATM    6  C7  UNL     1      24.365   1.395  52.144  1.00  0.00     0.129 A 
HETATM    7  N4  UNL     1      24.607   0.094  52.661  1.00  0.00    -0.379 N 
HETATM    8  C8  UNL     1      23.815  -0.502  53.709  1.00  0.00     0.161 C 
HETATM    9  C9  UNL     1      22.368  -0.317  53.555  1.00  0.00    -0.007 A 
HETATM   10  C10 UNL     1      21.665  -1.437  54.013  1.00  0.00     0.011 A 
HETATM   11  C11 UNL     1      20.294  -1.590  54.011  1.00  0.00     0.001 A 
HETATM   12  C12 UNL     1      19.537  -0.548  53.514  1.00  0.00     0.003 A 
HETATM   13  C13 UNL     1      20.165   0.601  53.040  1.00  0.00     0.038 A 
HETATM   14  C14 UNL     1      21.548   0.687  53.072  1.00  0.00     0.086 A 
HETATM   15  O1  UNL     1      21.976   1.900  52.560  1.00  0.00    -0.289 OA
HETATM   16  H3  UNL     1      25.420  -0.329  52.166  1.00  0.00     0.160 HD
ENDROOT
BRANCH   1  17
HETATM   17  N1  UNL     1      26.731   1.303  51.551  1.00  0.00    -0.338 N 
HETATM   18  H1  UNL     1      27.402   0.768  50.969  1.00  0.00     0.167 HD
BRANCH  17  19
HETATM   19  C3  UNL     1      27.561   1.218  52.705  1.00  0.00     0.045 C 
HETATM   20  C2  UNL     1      28.012   2.263  53.303  1.00  0.00     0.015 C 
HETATM   21  C1  UNL     1      29.005   2.211  54.108  1.00  0.00    -0.011 C 
HETATM   22  C17 UNL     1      29.696   1.117  54.308  1.00  0.00     0.013 C 
HETATM   23  C16 UNL     1      28.988  -0.125  54.032  1.00  0.00     0.003 C 
HETATM   24  C15 UNL     1      27.919  -0.107  53.236  1.00  0.00     0.030 C 
ENDBRANCH  17  19
ENDBRANCH   1  17
TORSDOF 2
ENDMDL
MODEL 6
REMARK VINA RESULT:      -7.9      2.881      7.656
REMARK  2 active torsions:
REMARK  status: ('A' for Active; 'I' for Inactive)
REMARK    1  A    between atoms: C3_3  and  N1_4 
REMARK    2  A    between atoms: N1_4  and  C4_5 
ROOT
HETATM    1  C4  UNL     1      18.353  -0.584  52.741  1.00  0.00     0.160 A 
HETATM    2  N2  UNL     1      17.705   0.004  51.743  1.00  0.00    -0.222 NA
HETATM    3  C5  UNL     1      18.405   0.716  50.813  1.00  0.00     0.238 A 
HETATM    4  N3  UNL     1      19.737   0.815  50.912  1.00  0.00    -0.215 NA
HETATM    5  C6  UNL     1      20.350   0.205  51.934  1.00  0.00     0.202 A 
HETATM    6  C7  UNL     1      19.718  -0.528  52.911  1.00  0.00     0.129 A 
HETATM    7  N4  UNL     1      20.169  -1.238  54.055  1.00  0.00    -0.379 N 
HETATM    8  C8  UNL     1      21.504  -1.769  54.185  1.00  0.00     0.161 C 
HETATM    9  C9  UNL     1      22.564  -0.853  53.751  1.00  0.00    -0.007 A 
HETATM   10  C10 UNL     1      23.708  -0.993  54.546  1.00  0.00     0.011 A 
HETATM   11  C11 UNL     1      24.883  -0.283  54.407  1.00  0.00     0.001 A 
HETATM   12  C12 UNL     1      24.947   0.653  53.395  1.00  0.00     0.003 A 
HETATM   13  C13 UNL     1      23.848   0.850  52.562  1.00  0.00     0.038 A 
HETATM   14  C14 UNL     1      22.698   0.102  52.758  1.00  0.00     0.086 A 
HETATM   15  O1  UNL     1      21.726   0.444  51.833  1.00  0.00    -0.289 OA
HETATM   16  H3  UNL     1      19.395  -1.300  54.751  1.00  0.00     0.160 HD
ENDROOT
BRANCH   1  17
HETATM   17  N1  UNL     1      17.518  -1.291  53.639  1.00  0.00    -0.338 N 
HETATM   18  H1  UNL     1      17.101  -1.310  54.589  1.00  0.00     0.167 HD
BRANCH  17  19
HETATM   19  C3  UNL     1      16.896  -2.517  53.268  1.00  0.00     0.045 C 
HETATM   20  C2  UNL     1      15.815  -2.554  52.573  1.00  0.00     0.015 C 
HETATM   21  C1  UNL     1      15.075  -3.596  52.520  1.00  0.00    -0.011 C 
HETATM   22  C17 UNL     1      15.306  -4.664  53.242  1.00  0.00     0.013 C 
HETATM   23  C16 UNL     1      16.687  -4.840  53.667  1.00  0.00     0.003 C 
HETATM   24  C15 UNL     1      17.505  -3.788  53.691  1.00  0.00     0.030 C 
ENDBRANCH  17  19
ENDBRANCH   1  17
TORSDOF 2
ENDMDL
MODEL 7
REMARK VINA RESULT:      -7.9      4.083      7.801
REMARK  2 active torsions:
REMARK  status: ('A' for Active; 'I' for Inactive)
REMARK    1  A    between atoms: C3_3  and  N1_4 
REMARK    2  A    between atoms: N1_4  and  C4_5 
ROOT
HETATM    1  C4  UNL     1      23.479   4.341  51.723  1.00  0.00     0.160 A 
HETATM    2  N2  UNL     1      22.306   4.942  51.884  1.00  0.00    -0.222 NA
HETATM    3  C5  UNL     1      21.997   6.031  51.122  1.00  0.00     0.238 A 
HETATM    4  N3  UNL     1      22.875   6.484  50.218  1.00  0.00    -0.215 NA
HETATM    5  C6  UNL     1      24.047   5.848  50.089  1.00  0.00     0.202 A 
HETATM    6  C7  UNL     1      24.433   4.748  50.818  1.00  0.00     0.129 A 
HETATM    7  N4  UNL     1      25.602   3.942  50.838  1.00  0.00    -0.379 N 
HETATM    8  C8  UNL     1      26.492   3.806  49.711  1.00  0.00     0.161 C 
HETATM    9  C9  UNL     1      26.801   5.067  49.028  1.00  0.00    -0.007 A 
HETATM   10  C10 UNL     1      28.118   5.075  48.555  1.00  0.00     0.011 A 
HETATM   11  C11 UNL     1      28.727   6.106  47.870  1.00  0.00     0.001 A 
HETATM   12  C12 UNL     1      27.977   7.238  47.623  1.00  0.00     0.003 A 
HETATM   13  C13 UNL     1      26.657   7.305  48.063  1.00  0.00     0.038 A 
HETATM   14  C14 UNL     1      26.109   6.232  48.746  1.00  0.00     0.086 A 
HETATM   15  O1  UNL     1      24.794   6.492  49.096  1.00  0.00    -0.289 OA
HETATM   16  H3  UNL     1      25.695   3.490  51.773  1.00  0.00     0.160 HD
ENDROOT
BRANCH   1  17
HETATM   17  N1  UNL     1      23.681   3.226  52.571  1.00  0.00    -0.338 N 
HETATM   18  H1  UNL     1      24.111   2.883  53.450  1.00  0.00     0.167 HD
BRANCH  17  19
HETATM   19  C3  UNL     1      23.151   1.943  52.252  1.00  0.00     0.045 C 
HETATM   20  C2  UNL     1      22.455   1.734  51.191  1.00  0.00     0.015 C 
HETATM   21  C1  UNL     1      21.706   0.706  51.061  1.00  0.00    -0.011 C 
HETATM   22  C17 UNL     1      21.513  -0.154  52.029  1.00  0.00     0.013 C 
HETATM   23  C16 UNL     1      22.571  -0.216  53.026  1.00  0.00     0.003 C 
HETATM   24  C15 UNL     1      23.404   0.815  53.162  1.00  0.00     0.030 C 
ENDBRANCH  17  19
ENDBRANCH   1  17
TORSDOF 2
ENDMDL
MODEL 8
REMARK VINA RESULT:      -7.8      3.887      6.902
REMARK  2 active torsions:
REMARK  status: ('A' for Active; 'I' for Inactive)
REMARK    1  A    between atoms: C3_3  and  N1_4 
REMARK    2  A    between atoms: N1_4  and  C4_5 
ROOT
HETATM    1  C4  UNL     1      24.023   3.538  51.938  1.00  0.00     0.160 A 
HETATM    2  N2  UNL     1      22.733   3.366  52.198  1.00  0.00    -0.222 NA
HETATM    3  C5  UNL     1      21.800   3.980  51.414  1.00  0.00     0.238 A 
HETATM    4  N3  UNL     1      22.190   4.748  50.389  1.00  0.00    -0.215 NA
HETATM    5  C6  UNL     1      23.502   4.894  50.162  1.00  0.00     0.202 A 
HETATM    6  C7  UNL     1      24.502   4.312  50.904  1.00  0.00     0.129 A 
HETATM    7  N4  UNL     1      25.921   4.336  50.836  1.00  0.00    -0.379 N 
HETATM    8  C8  UNL     1      26.652   4.608  49.623  1.00  0.00     0.161 C 
HETATM    9  C9  UNL     1      26.122   5.727  48.835  1.00  0.00    -0.007 A 
HETATM   10  C10 UNL     1      27.155   6.438  48.212  1.00  0.00     0.011 A 
HETATM   11  C11 UNL     1      27.003   7.543  47.401  1.00  0.00     0.001 A 
HETATM   12  C12 UNL     1      25.719   7.998  47.177  1.00  0.00     0.003 A 
HETATM   13  C13 UNL     1      24.639   7.342  47.763  1.00  0.00     0.038 A 
HETATM   14  C14 UNL     1      24.865   6.237  48.568  1.00  0.00     0.086 A 
HETATM   15  O1  UNL     1      23.670   5.731  49.052  1.00  0.00    -0.289 OA
HETATM   16  H3  UNL     1      26.316   4.133  51.779  1.00  0.00     0.160 HD
ENDROOT
BRANCH   1  17
HETATM   17  N1  UNL     1      24.890   2.851  52.820  1.00  0.00    -0.338 N 
HETATM   18  H1  UNL     1      25.509   2.929  53.649  1.00  0.00     0.167 HD
BRANCH  17  19
HETATM   19  C3  UNL     1      25.157   1.460  52.669  1.00  0.00     0.045 C 
HETATM   20  C2  UNL     1      24.442   0.559  53.244  1.00  0.00     0.015 C 
HETATM   21  C1  UNL     1      24.853  -0.642  53.395  1.00  0.00    -0.011 C 
HETATM   22  C17 UNL     1      26.064  -1.020  53.069  1.00  0.00     0.013 C 
HETATM   23  C16 UNL     1      26.716  -0.209  52.052  1.00  0.00     0.003 C 
HETATM   24  C15 UNL     1      26.286   1.032  51.829  1.00  0.00     0.030 C 
ENDBRANCH  17  19
ENDBRANCH   1  17
TORSDOF 2
ENDMDL
MODEL 9
REMARK VINA RESULT:      -7.7      3.706      6.821
REMARK  2 active torsions:
REMARK  status: ('A' for Active; 'I' for Inactive)
REMARK    1  A    between atoms: C3_3  and  N1_4 
REMARK    2  A    between atoms: N1_4  and  C4_5 
ROOT
HETATM    1  C4  UNL     1      24.276   4.714  50.201  1.00  0.00     0.160 A 
HETATM    2  N2  UNL     1      23.269   5.506  50.547  1.00  0.00    -0.222 NA
HETATM    3  C5  UNL     1      22.551   5.230  51.674  1.00  0.00     0.238 A 
HETATM    4  N3  UNL     1      22.867   4.165  52.422  1.00  0.00    -0.215 NA
HETATM    5  C6  UNL     1      23.891   3.392  52.036  1.00  0.00     0.202 A 
HETATM    6  C7  UNL     1      24.661   3.602  50.917  1.00  0.00     0.129 A 
HETATM    7  N4  UNL     1      25.765   2.920  50.340  1.00  0.00    -0.379 N 
HETATM    8  C8  UNL     1      26.667   2.087  51.097  1.00  0.00     0.161 C 
HETATM    9  C9  UNL     1      26.006   1.191  52.051  1.00  0.00    -0.007 A 
HETATM   10  C10 UNL     1      26.686  -0.029  52.150  1.00  0.00     0.011 A 
HETATM   11  C11 UNL     1      26.330  -1.092  52.956  1.00  0.00     0.001 A 
HETATM   12  C12 UNL     1      25.203  -0.949  53.739  1.00  0.00     0.003 A 
HETATM   13  C13 UNL     1      24.473   0.237  53.694  1.00  0.00     0.038 A 
HETATM   14  C14 UNL     1      24.887   1.264  52.862  1.00  0.00     0.086 A 
HETATM   15  O1  UNL     1      24.034   2.351  52.961  1.00  0.00    -0.289 OA
HETATM   16  H3  UNL     1      25.801   3.122  49.318  1.00  0.00     0.160 HD
ENDROOT
BRANCH   1  17
HETATM   17  N1  UNL     1      24.942   5.104  49.015  1.00  0.00    -0.338 N 
HETATM   18  H1  UNL     1      24.940   5.070  47.978  1.00  0.00     0.167 HD
BRANCH  17  19
HETATM   19  C3  UNL     1      26.141   5.873  49.053  1.00  0.00     0.045 C 
HETATM   20  C2  UNL     1      26.169   7.076  49.504  1.00  0.00     0.015 C 
HETATM   21  C1  UNL     1      27.129   7.879  49.241  1.00  0.00    -0.011 C 
HETATM   22  C17 UNL     1      28.100   7.573  48.418  1.00  0.00     0.013 C 
HETATM   23  C16 UNL     1      28.350   6.149  48.253  1.00  0.00     0.003 C 
HETATM   24  C15 UNL     1      27.392   5.275  48.562  1.00  0.00     0.030 C 
ENDBRANCH  17  19
ENDBRANCH   1  17
TORSDOF 2
ENDMDL
