MODEL 1
REMARK VINA RESULT:      -7.5      0.000      0.000
REMARK  5 active torsions:
REMARK  status: ('A' for Active; 'I' for Inactive)
REMARK    1  A    between atoms: C3_3  and  C4_4 
REMARK    2  A    between atoms: C4_4  and  C5_5 
REMARK    3  A    between atoms: C5_5  and  C6_6 
REMARK    4  A    between atoms: C6_6  and  N1_8 
REMARK    5  A    between atoms: C14_19  and  C15_20 
ROOT
HETATM    1  C1  UNL     1      21.539  -1.420  54.283  1.00  0.00     0.096 C 
HETATM    2  C2  UNL     1      22.693  -1.230  54.905  1.00  0.00    -0.155 C 
HETATM    3  C3  UNL     1      23.910  -1.181  55.375  1.00  0.00     0.050 C 
ENDROOT
BRANCH   3   4
HETATM    4  C4  UNL     1      24.947  -0.817  54.465  1.00  0.00     0.006 C 
BRANCH   4   5
HETATM    5  C5  UNL     1      25.318   0.387  54.130  1.00  0.00    -0.002 C 
BRANCH   5   6
HETATM    6  C6  UNL     1      25.764   0.716  52.768  1.00  0.00     0.102 C 
HETATM    7  C7  UNL     1      27.193   1.273  52.914  1.00  0.00     0.036 C 
BRANCH   6   8
HETATM    8  N1  UNL     1      24.930   1.596  52.096  1.00  0.00    -0.360 N 
HETATM    9  C8  UNL     1      24.121   2.460  51.446  1.00  0.00     0.172 A 
HETATM   10  N2  UNL     1      24.462   3.581  52.092  1.00  0.00    -0.247 NA
HETATM   11  C16 UNL     1      23.094   1.922  50.450  1.00  0.00     0.115 A 
HETATM   12  C15 UNL     1      24.017   1.756  51.278  1.00  0.00     0.107 A 
HETATM   13  C9  UNL     1      23.765   4.807  51.685  1.00  0.00     0.226 C 
HETATM   14  N3  UNL     1      22.684   4.168  51.904  1.00  0.00    -0.258 NA
HETATM   15  C10 UNL     1      21.308   4.407  51.827  1.00  0.00     0.317 C 
HETATM   16  O1  UNL     1      20.371   3.533  51.757  1.00  0.00    -0.368 OA
HETATM   17  C11 UNL     1      19.635   2.572  52.094  1.00  0.00     0.196 C 
HETATM   18  C12 UNL     1      19.925   1.128  52.310  1.00  0.00     0.195 C 
HETATM   19  O2  UNL     1      20.423   0.439  51.105  1.00  0.00    -0.369 OA
HETATM   20  C13 UNL     1      21.607   1.137  50.691  1.00  0.00     0.139 A 
HETATM   21  C14 UNL     1      22.755   1.127  51.417  1.00  0.00     0.087 A 
HETATM   22  C18 UNL     1      21.121   1.693  49.551  1.00  0.00     0.113 A 
HETATM   23  C17 UNL     1      22.381   2.337  49.385  1.00  0.00     0.097 A 
HETATM   24  O3  UNL     1      20.199   1.948  48.584  1.00  0.00    -0.347 OA
HETATM   25  O4  UNL     1      22.794   3.231  48.316  1.00  0.00    -0.349 OA
HETATM   26  C20 UNL     1      21.953   2.956  47.174  1.00  0.00     0.202 C 
HETATM   27  C19 UNL     1      20.506   2.899  47.550  1.00  0.00     0.202 C 
ENDBRANCH   6   8
ENDBRANCH   5   6
ENDBRANCH   4   5
ENDBRANCH   3   4
TORSDOF 5
ENDMDL
MODEL 2
REMARK VINA RESULT:      -7.1      1.785      2.497
REMARK  5 active torsions:
REMARK  status: ('A' for Active; 'I' for Inactive)
REMARK    1  A    between atoms: C3_3  and  C4_4 
REMARK    2  A    between atoms: C4_4  and  C5_5 
REMARK    3  A    between atoms: C5_5  and  C6_6 
REMARK    4  A    between atoms: C6_6  and  N1_8 
REMARK    5  A    between atoms: C14_19  and  C15_20 
ROOT
HETATM    1  C1  UNL     1      20.542  -0.215  54.535  1.00  0.00     0.096 C 
HETATM    2  C2  UNL     1      21.830  -0.521  54.489  1.00  0.00    -0.155 C 
HETATM    3  C3  UNL     1      23.069  -0.841  54.233  1.00  0.00     0.050 C 
ENDROOT
BRANCH   3   4
HETATM    4  C4  UNL     1      23.769  -0.037  53.285  1.00  0.00     0.006 C 
BRANCH   4   5
HETATM    5  C5  UNL     1      25.057   0.023  53.098  1.00  0.00    -0.002 C 
BRANCH   5   6
HETATM    6  C6  UNL     1      25.650   0.777  51.983  1.00  0.00     0.102 C 
HETATM    7  C7  UNL     1      27.135   0.966  52.342  1.00  0.00     0.036 C 
BRANCH   6   8
HETATM    8  N1  UNL     1      25.022   1.986  51.720  1.00  0.00    -0.360 N 
HETATM    9  C8  UNL     1      24.410   3.163  51.472  1.00  0.00     0.172 A 
HETATM   10  N2  UNL     1      24.076   3.485  52.728  1.00  0.00    -0.247 NA
HETATM   11  C16 UNL     1      24.172   3.595  50.025  1.00  0.00     0.115 A 
HETATM   12  C15 UNL     1      24.599   2.785  50.876  1.00  0.00     0.107 A 
HETATM   13  C9  UNL     1      23.341   4.744  52.905  1.00  0.00     0.226 C 
HETATM   14  N3  UNL     1      22.513   4.286  52.050  1.00  0.00    -0.258 NA
HETATM   15  C10 UNL     1      21.332   4.704  51.429  1.00  0.00     0.317 C 
HETATM   16  O1  UNL     1      20.827   4.254  50.339  1.00  0.00    -0.368 OA
HETATM   17  C11 UNL     1      20.323   3.436  49.529  1.00  0.00     0.196 C 
HETATM   18  C12 UNL     1      20.868   2.207  48.890  1.00  0.00     0.195 C 
HETATM   19  O2  UNL     1      22.046   2.458  48.039  1.00  0.00    -0.369 OA
HETATM   20  C13 UNL     1      23.035   3.076  48.876  1.00  0.00     0.139 A 
HETATM   21  C14 UNL     1      23.656   2.414  49.887  1.00  0.00     0.087 A 
HETATM   22  C18 UNL     1      23.010   4.318  48.328  1.00  0.00     0.113 A 
HETATM   23  C17 UNL     1      23.961   4.718  49.310  1.00  0.00     0.097 A 
HETATM   24  O3  UNL     1      22.623   5.287  47.455  1.00  0.00    -0.347 OA
HETATM   25  O4  UNL     1      24.560   6.029  49.494  1.00  0.00    -0.349 OA
HETATM   26  C20 UNL     1      24.472   6.724  48.230  1.00  0.00     0.202 C 
HETATM   27  C19 UNL     1      23.101   6.632  47.639  1.00  0.00     0.202 C 
ENDBRANCH   6   8
ENDBRANCH   5   6
ENDBRANCH   4   5
ENDBRANCH   3   4
TORSDOF 5
ENDMDL
MODEL 3
REMARK VINA RESULT:      -7.0      1.631      3.026
REMARK  5 active torsions:
REMARK  status: ('A' for Active; 'I' for Inactive)
REMARK    1  A    between atoms: C3_3  and  C4_4 
REMARK    2  A    between atoms: C4_4  and  C5_5 
REMARK    3  A    between atoms: C5_5  and  C6_6 
REMARK    4  A    between atoms: C6_6  and  N1_8 
REMARK    5  A    between atoms: C14_19  and  C15_20 
ROOT
HETATM    1  C1  UNL     1      21.484  -1.465  54.509  1.00  0.00     0.096 C 
HETATM    2  C2  UNL     1      22.666  -1.273  55.077  1.00  0.00    -0.155 C 
HETATM    3  C3  UNL     1      23.903  -1.222  55.490  1.00  0.00     0.050 C 
ENDROOT
BRANCH   3   4
HETATM    4  C4  UNL     1      24.897  -0.864  54.532  1.00  0.00     0.006 C 
BRANCH   4   5
HETATM    5  C5  UNL     1      25.081   0.303  53.983  1.00  0.00    -0.002 C 
BRANCH   5   6
HETATM    6  C6  UNL     1      24.825   0.545  52.556  1.00  0.00     0.102 C 
HETATM    7  C7  UNL     1      26.139   1.101  51.977  1.00  0.00     0.036 C 
BRANCH   6   8
HETATM    8  N1  UNL     1      23.751   1.387  52.308  1.00  0.00    -0.360 N 
HETATM    9  C8  UNL     1      22.701   2.201  52.072  1.00  0.00     0.172 A 
HETATM   10  N2  UNL     1      21.772   1.542  52.774  1.00  0.00    -0.247 NA
HETATM   11  C16 UNL     1      22.851   3.349  51.073  1.00  0.00     0.115 A 
HETATM   12  C15 UNL     1      23.305   2.363  51.693  1.00  0.00     0.107 A 
HETATM   13  C9  UNL     1      20.418   2.110  52.761  1.00  0.00     0.226 C 
HETATM   14  N3  UNL     1      20.502   2.070  51.490  1.00  0.00    -0.258 NA
HETATM   15  C10 UNL     1      19.704   2.404  50.391  1.00  0.00     0.317 C 
HETATM   16  O1  UNL     1      20.091   2.614  49.185  1.00  0.00    -0.368 OA
HETATM   17  C11 UNL     1      20.599   2.385  48.059  1.00  0.00     0.196 C 
HETATM   18  C12 UNL     1      21.994   2.071  47.644  1.00  0.00     0.195 C 
HETATM   19  O2  UNL     1      22.957   3.142  47.958  1.00  0.00    -0.369 OA
HETATM   20  C13 UNL     1      22.887   3.357  49.375  1.00  0.00     0.139 A 
HETATM   21  C14 UNL     1      23.310   2.434  50.278  1.00  0.00     0.087 A 
HETATM   22  C18 UNL     1      22.305   4.583  49.361  1.00  0.00     0.113 A 
HETATM   23  C17 UNL     1      22.289   4.540  50.785  1.00  0.00     0.097 A 
HETATM   24  O3  UNL     1      21.787   5.710  48.802  1.00  0.00    -0.347 OA
HETATM   25  O4  UNL     1      21.784   5.544  51.705  1.00  0.00    -0.349 OA
HETATM   26  C20 UNL     1      21.794   6.811  51.009  1.00  0.00     0.202 C 
HETATM   27  C19 UNL     1      21.180   6.702  49.650  1.00  0.00     0.202 C 
ENDBRANCH   6   8
ENDBRANCH   5   6
ENDBRANCH   4   5
ENDBRANCH   3   4
TORSDOF 5
ENDMDL
MODEL 4
REMARK VINA RESULT:      -6.6      3.051      5.234
REMARK  5 active torsions:
REMARK  status: ('A' for Active; 'I' for Inactive)
REMARK    1  A    between atoms: C3_3  and  C4_4 
REMARK    2  A    between atoms: C4_4  and  C5_5 
REMARK    3  A    between atoms: C5_5  and  C6_6 
REMARK    4  A    between atoms: C6_6  and  N1_8 
REMARK    5  A    between atoms: C14_19  and  C15_20 
ROOT
HETATM    1  C1  UNL     1      28.822   8.408  48.738  1.00  0.00     0.096 C 
HETATM    2  C2  UNL     1      27.928   7.444  48.578  1.00  0.00    -0.155 C 
HETATM    3  C3  UNL     1      27.196   6.399  48.301  1.00  0.00     0.050 C 
ENDROOT
BRANCH   3   4
HETATM    4  C4  UNL     1      27.734   5.120  48.630  1.00  0.00     0.006 C 
BRANCH   4   5
HETATM    5  C5  UNL     1      27.078   4.060  49.008  1.00  0.00    -0.002 C 
BRANCH   5   6
HETATM    6  C6  UNL     1      26.261   4.042  50.230  1.00  0.00     0.102 C 
HETATM    7  C7  UNL     1      26.409   2.627  50.819  1.00  0.00     0.036 C 
BRANCH   6   8
HETATM    8  N1  UNL     1      24.932   4.384  50.028  1.00  0.00    -0.360 N 
HETATM    9  C8  UNL     1      23.638   4.721  49.840  1.00  0.00     0.172 A 
HETATM   10  N2  UNL     1      23.402   5.290  51.028  1.00  0.00    -0.247 NA
HETATM   11  C16 UNL     1      22.916   4.248  48.577  1.00  0.00     0.115 A 
HETATM   12  C15 UNL     1      23.931   4.315  49.306  1.00  0.00     0.107 A 
HETATM   13  C9  UNL     1      22.042   5.794  51.251  1.00  0.00     0.226 C 
HETATM   14  N3  UNL     1      21.644   4.625  50.937  1.00  0.00    -0.258 NA
HETATM   15  C10 UNL     1      20.428   3.946  50.808  1.00  0.00     0.317 C 
HETATM   16  O1  UNL     1      20.206   2.869  50.148  1.00  0.00    -0.368 OA
HETATM   17  C11 UNL     1      20.292   1.662  49.808  1.00  0.00     0.196 C 
HETATM   18  C12 UNL     1      21.421   0.866  49.251  1.00  0.00     0.195 C 
HETATM   19  O2  UNL     1      21.905   1.361  47.949  1.00  0.00    -0.369 OA
HETATM   20  C13 UNL     1      22.298   2.727  48.147  1.00  0.00     0.139 A 
HETATM   21  C14 UNL     1      23.368   3.079  48.906  1.00  0.00     0.087 A 
HETATM   22  C18 UNL     1      21.310   3.323  47.431  1.00  0.00     0.113 A 
HETATM   23  C17 UNL     1      21.856   4.581  47.815  1.00  0.00     0.097 A 
HETATM   24  O3  UNL     1      20.209   3.379  46.634  1.00  0.00    -0.347 OA
HETATM   25  O4  UNL     1      21.377   5.908  47.466  1.00  0.00    -0.349 OA
HETATM   26  C20 UNL     1      20.606   5.782  46.251  1.00  0.00     0.202 C 
HETATM   27  C19 UNL     1      19.624   4.657  46.330  1.00  0.00     0.202 C 
ENDBRANCH   6   8
ENDBRANCH   5   6
ENDBRANCH   4   5
ENDBRANCH   3   4
TORSDOF 5
ENDMDL
MODEL 5
REMARK VINA RESULT:      -6.6      4.102      6.368
REMARK  5 active torsions:
REMARK  status: ('A' for Active; 'I' for Inactive)
REMARK    1  A    between atoms: C3_3  and  C4_4 
REMARK    2  A    between atoms: C4_4  and  C5_5 
REMARK    3  A    between atoms: C5_5  and  C6_6 
REMARK    4  A    between atoms: C6_6  and  N1_8 
REMARK    5  A    between atoms: C14_19  and  C15_20 
ROOT
HETATM    1  C1  UNL     1      31.803   7.716  49.439  1.00  0.00     0.096 C 
HETATM    2  C2  UNL     1      31.353   6.617  48.851  1.00  0.00    -0.155 C 
HETATM    3  C3  UNL     1      30.737   5.560  48.396  1.00  0.00     0.050 C 
ENDROOT
BRANCH   3   4
HETATM    4  C4  UNL     1      29.432   5.749  47.851  1.00  0.00     0.006 C 
BRANCH   4   5
HETATM    5  C5  UNL     1      28.293   5.648  48.475  1.00  0.00    -0.002 C 
BRANCH   5   6
HETATM    6  C6  UNL     1      27.209   6.623  48.285  1.00  0.00     0.102 C 
HETATM    7  C7  UNL     1      27.726   7.951  48.866  1.00  0.00     0.036 C 
BRANCH   6   8
HETATM    8  N1  UNL     1      26.001   6.244  48.850  1.00  0.00    -0.360 N 
HETATM    9  C8  UNL     1      24.823   5.884  49.404  1.00  0.00     0.172 A 
HETATM   10  N2  UNL     1      24.534   7.032  50.028  1.00  0.00    -0.247 NA
HETATM   11  C16 UNL     1      24.360   4.430  49.303  1.00  0.00     0.115 A 
HETATM   12  C15 UNL     1      25.186   5.341  49.075  1.00  0.00     0.107 A 
HETATM   13  C9  UNL     1      23.287   7.057  50.802  1.00  0.00     0.226 C 
HETATM   14  N3  UNL     1      23.732   6.023  51.400  1.00  0.00    -0.258 NA
HETATM   15  C10 UNL     1      23.311   5.150  52.408  1.00  0.00     0.317 C 
HETATM   16  O1  UNL     1      23.740   3.963  52.637  1.00  0.00    -0.368 OA
HETATM   17  C11 UNL     1      24.544   3.041  52.925  1.00  0.00     0.196 C 
HETATM   18  C12 UNL     1      25.752   2.523  52.226  1.00  0.00     0.195 C 
HETATM   19  O2  UNL     1      25.470   1.977  50.886  1.00  0.00    -0.369 OA
HETATM   20  C13 UNL     1      24.863   3.035  50.130  1.00  0.00     0.139 A 
HETATM   21  C14 UNL     1      25.542   4.151  49.754  1.00  0.00     0.087 A 
HETATM   22  C18 UNL     1      23.609   2.523  50.044  1.00  0.00     0.113 A 
HETATM   23  C17 UNL     1      23.222   3.709  49.356  1.00  0.00     0.097 A 
HETATM   24  O3  UNL     1      22.623   1.604  50.229  1.00  0.00    -0.347 OA
HETATM   25  O4  UNL     1      21.911   4.055  48.836  1.00  0.00    -0.349 OA
HETATM   26  C20 UNL     1      21.187   2.820  48.635  1.00  0.00     0.202 C 
HETATM   27  C19 UNL     1      21.278   1.922  49.827  1.00  0.00     0.202 C 
ENDBRANCH   6   8
ENDBRANCH   5   6
ENDBRANCH   4   5
ENDBRANCH   3   4
TORSDOF 5
ENDMDL
MODEL 6
REMARK VINA RESULT:      -6.5      2.740      5.172
REMARK  5 active torsions:
REMARK  status: ('A' for Active; 'I' for Inactive)
REMARK    1  A    between atoms: C3_3  and  C4_4 
REMARK    2  A    between atoms: C4_4  and  C5_5 
REMARK    3  A    between atoms: C5_5  and  C6_6 
REMARK    4  A    between atoms: C6_6  and  N1_8 
REMARK    5  A    between atoms: C14_19  and  C15_20 
ROOT
HETATM    1  C1  UNL     1      21.192  -0.137  54.251  1.00  0.00     0.096 C 
HETATM    2  C2  UNL     1      20.097  -0.725  53.794  1.00  0.00    -0.155 C 
HETATM    3  C3  UNL     1      18.928  -1.112  53.361  1.00  0.00     0.050 C 
ENDROOT
BRANCH   3   4
HETATM    4  C4  UNL     1      18.388  -0.422  52.235  1.00  0.00     0.006 C 
BRANCH   4   5
HETATM    5  C5  UNL     1      18.995   0.443  51.473  1.00  0.00    -0.002 C 
BRANCH   5   6
HETATM    6  C6  UNL     1      18.830   1.893  51.653  1.00  0.00     0.102 C 
HETATM    7  C7  UNL     1      17.397   2.217  51.192  1.00  0.00     0.036 C 
BRANCH   6   8
HETATM    8  N1  UNL     1      19.776   2.657  50.986  1.00  0.00    -0.360 N 
HETATM    9  C8  UNL     1      20.694   3.396  50.328  1.00  0.00     0.172 A 
HETATM   10  N2  UNL     1      20.642   2.777  49.143  1.00  0.00    -0.247 NA
HETATM   11  C16 UNL     1      21.511   4.435  51.097  1.00  0.00     0.115 A 
HETATM   12  C15 UNL     1      20.638   3.541  51.043  1.00  0.00     0.107 A 
HETATM   13  C9  UNL     1      21.545   3.283  48.102  1.00  0.00     0.226 C 
HETATM   14  N3  UNL     1      22.484   3.110  48.946  1.00  0.00    -0.258 NA
HETATM   15  C10 UNL     1      23.869   3.290  49.003  1.00  0.00     0.317 C 
HETATM   16  O1  UNL     1      24.598   3.386  50.055  1.00  0.00    -0.368 OA
HETATM   17  C11 UNL     1      25.142   3.058  51.139  1.00  0.00     0.196 C 
HETATM   18  C12 UNL     1      24.577   2.761  52.484  1.00  0.00     0.195 C 
HETATM   19  O2  UNL     1      23.859   3.899  53.086  1.00  0.00    -0.369 OA
HETATM   20  C13 UNL     1      22.817   4.262  52.168  1.00  0.00     0.139 A 
HETATM   21  C14 UNL     1      21.750   3.461  51.918  1.00  0.00     0.087 A 
HETATM   22  C18 UNL     1      23.321   5.454  51.758  1.00  0.00     0.113 A 
HETATM   23  C17 UNL     1      22.213   5.563  50.870  1.00  0.00     0.097 A 
HETATM   24  O3  UNL     1      24.201   6.492  51.730  1.00  0.00    -0.347 OA
HETATM   25  O4  UNL     1      21.914   6.639  49.940  1.00  0.00    -0.349 OA
HETATM   26  C20 UNL     1      22.592   7.822  50.417  1.00  0.00     0.202 C 
HETATM   27  C19 UNL     1      24.020   7.542  50.764  1.00  0.00     0.202 C 
ENDBRANCH   6   8
ENDBRANCH   5   6
ENDBRANCH   4   5
ENDBRANCH   3   4
TORSDOF 5
ENDMDL
MODEL 7
REMARK VINA RESULT:      -6.5      2.236      5.609
REMARK  5 active torsions:
REMARK  status: ('A' for Active; 'I' for Inactive)
REMARK    1  A    between atoms: C3_3  and  C4_4 
REMARK    2  A    between atoms: C4_4  and  C5_5 
REMARK    3  A    between atoms: C5_5  and  C6_6 
REMARK    4  A    between atoms: C6_6  and  N1_8 
REMARK    5  A    between atoms: C14_19  and  C15_20 
ROOT
HETATM    1  C1  UNL     1      21.069   5.652  47.645  1.00  0.00     0.096 C 
HETATM    2  C2  UNL     1      20.618   6.418  48.627  1.00  0.00    -0.155 C 
HETATM    3  C3  UNL     1      20.295   7.052  49.722  1.00  0.00     0.050 C 
ENDROOT
BRANCH   3   4
HETATM    4  C4  UNL     1      21.361   7.594  50.501  1.00  0.00     0.006 C 
BRANCH   4   5
HETATM    5  C5  UNL     1      22.632   7.578  50.219  1.00  0.00    -0.002 C 
BRANCH   5   6
HETATM    6  C6  UNL     1      23.584   6.732  50.954  1.00  0.00     0.102 C 
HETATM    7  C7  UNL     1      24.986   7.168  50.488  1.00  0.00     0.036 C 
BRANCH   6   8
HETATM    8  N1  UNL     1      23.381   5.371  50.783  1.00  0.00    -0.360 N 
HETATM    9  C8  UNL     1      23.186   4.046  50.608  1.00  0.00     0.172 A 
HETATM   10  N2  UNL     1      23.518   3.962  49.315  1.00  0.00    -0.247 NA
HETATM   11  C16 UNL     1      22.563   3.224  51.738  1.00  0.00     0.115 A 
HETATM   12  C15 UNL     1      22.974   4.304  51.259  1.00  0.00     0.107 A 
HETATM   13  C9  UNL     1      23.417   2.632  48.701  1.00  0.00     0.226 C 
HETATM   14  N3  UNL     1      22.214   2.618  49.122  1.00  0.00    -0.258 NA
HETATM   15  C10 UNL     1      21.118   1.750  49.092  1.00  0.00     0.317 C 
HETATM   16  O1  UNL     1      20.096   1.761  49.868  1.00  0.00    -0.368 OA
HETATM   17  C11 UNL     1      19.056   2.183  50.433  1.00  0.00     0.196 C 
HETATM   18  C12 UNL     1      18.824   3.320  51.366  1.00  0.00     0.195 C 
HETATM   19  O2  UNL     1      19.571   3.204  52.633  1.00  0.00    -0.369 OA
HETATM   20  C13 UNL     1      20.960   3.110  52.285  1.00  0.00     0.139 A 
HETATM   21  C14 UNL     1      21.650   4.144  51.738  1.00  0.00     0.087 A 
HETATM   22  C18 UNL     1      21.165   1.815  52.638  1.00  0.00     0.113 A 
HETATM   23  C17 UNL     1      22.502   1.947  52.165  1.00  0.00     0.097 A 
HETATM   24  O3  UNL     1      20.838   0.593  53.139  1.00  0.00    -0.347 OA
HETATM   25  O4  UNL     1      23.550   0.941  52.150  1.00  0.00    -0.349 OA
HETATM   26  C20 UNL     1      23.221  -0.039  53.160  1.00  0.00     0.202 C 
HETATM   27  C19 UNL     1      21.795  -0.478  53.065  1.00  0.00     0.202 C 
ENDBRANCH   6   8
ENDBRANCH   5   6
ENDBRANCH   4   5
ENDBRANCH   3   4
TORSDOF 5
ENDMDL
MODEL 8
REMARK VINA RESULT:      -6.5     11.673     14.163
REMARK  5 active torsions:
REMARK  status: ('A' for Active; 'I' for Inactive)
REMARK    1  A    between atoms: C3_3  and  C4_4 
REMARK    2  A    between atoms: C4_4  and  C5_5 
REMARK    3  A    between atoms: C5_5  and  C6_6 
REMARK    4  A    between atoms: C6_6  and  N1_8 
REMARK    5  A    between atoms: C14_19  and  C15_20 
ROOT
HETATM    1  C1  UNL     1      34.039   1.583  39.922  1.00  0.00     0.096 C 
HETATM    2  C2  UNL     1      34.335   2.874  39.908  1.00  0.00    -0.155 C 
HETATM    3  C3  UNL     1      34.432   4.174  39.977  1.00  0.00     0.050 C 
ENDROOT
BRANCH   3   4
HETATM    4  C4  UNL     1      34.224   4.777  41.253  1.00  0.00     0.006 C 
BRANCH   4   5
HETATM    5  C5  UNL     1      33.872   6.007  41.498  1.00  0.00    -0.002 C 
BRANCH   5   6
HETATM    6  C6  UNL     1      34.715   6.918  42.286  1.00  0.00     0.102 C 
HETATM    7  C7  UNL     1      36.120   6.287  42.305  1.00  0.00     0.036 C 
BRANCH   6   8
HETATM    8  N1  UNL     1      34.240   7.165  43.566  1.00  0.00    -0.360 N 
HETATM    9  C8  UNL     1      33.782   7.413  44.811  1.00  0.00     0.172 A 
HETATM   10  N2  UNL     1      34.536   8.482  45.095  1.00  0.00    -0.247 NA
HETATM   11  C16 UNL     1      32.819   6.422  45.468  1.00  0.00     0.115 A 
HETATM   12  C15 UNL     1      33.533   6.794  44.511  1.00  0.00     0.107 A 
HETATM   13  C9  UNL     1      34.355   9.073  46.426  1.00  0.00     0.226 C 
HETATM   14  N3  UNL     1      34.584   7.907  46.886  1.00  0.00    -0.258 NA
HETATM   15  C10 UNL     1      34.661   7.286  48.137  1.00  0.00     0.317 C 
HETATM   16  O1  UNL     1      34.561   6.032  48.389  1.00  0.00    -0.368 OA
HETATM   17  C11 UNL     1      34.834   4.805  48.368  1.00  0.00     0.196 C 
HETATM   18  C12 UNL     1      34.834   3.806  47.264  1.00  0.00     0.195 C 
HETATM   19  O2  UNL     1      33.510   3.613  46.644  1.00  0.00    -0.369 OA
HETATM   20  C13 UNL     1      33.087   4.897  46.165  1.00  0.00     0.139 A 
HETATM   21  C14 UNL     1      33.701   5.533  45.133  1.00  0.00     0.087 A 
HETATM   22  C18 UNL     1      32.078   5.115  47.046  1.00  0.00     0.113 A 
HETATM   23  C17 UNL     1      31.885   6.388  46.438  1.00  0.00     0.097 A 
HETATM   24  O3  UNL     1      31.237   4.822  48.075  1.00  0.00    -0.347 OA
HETATM   25  O4  UNL     1      30.909   7.407  46.786  1.00  0.00    -0.349 OA
HETATM   26  C20 UNL     1      29.820   6.747  47.468  1.00  0.00     0.202 C 
HETATM   27  C19 UNL     1      30.313   5.823  48.536  1.00  0.00     0.202 C 
ENDBRANCH   6   8
ENDBRANCH   5   6
ENDBRANCH   4   5
ENDBRANCH   3   4
TORSDOF 5
ENDMDL
MODEL 9
REMARK VINA RESULT:      -6.4      2.347      4.516
REMARK  5 active torsions:
REMARK  status: ('A' for Active; 'I' for Inactive)
REMARK    1  A    between atoms: C3_3  and  C4_4 
REMARK    2  A    between atoms: C4_4  and  C5_5 
REMARK    3  A    between atoms: C5_5  and  C6_6 
REMARK    4  A    between atoms: C6_6  and  N1_8 
REMARK    5  A    between atoms: C14_19  and  C15_20 
ROOT
HETATM    1  C1  UNL     1      24.832   0.329  53.179  1.00  0.00     0.096 C 
HETATM    2  C2  UNL     1      23.785  -0.394  53.547  1.00  0.00    -0.155 C 
HETATM    3  C3  UNL     1      22.669  -0.921  53.973  1.00  0.00     0.050 C 
ENDROOT
BRANCH   3   4
HETATM    4  C4  UNL     1      21.455  -0.409  53.426  1.00  0.00     0.006 C 
BRANCH   4   5
HETATM    5  C5  UNL     1      20.994   0.806  53.525  1.00  0.00    -0.002 C 
BRANCH   5   6
HETATM    6  C6  UNL     1      19.778   1.240  52.821  1.00  0.00     0.102 C 
HETATM    7  C7  UNL     1      19.327   0.036  51.973  1.00  0.00     0.036 C 
BRANCH   6   8
HETATM    8  N1  UNL     1      19.945   2.383  52.054  1.00  0.00    -0.360 N 
HETATM    9  C8  UNL     1      20.099   3.496  51.306  1.00  0.00     0.172 A 
HETATM   10  N2  UNL     1      18.811   3.736  51.033  1.00  0.00    -0.247 NA
HETATM   11  C16 UNL     1      21.506   3.952  50.919  1.00  0.00     0.115 A 
HETATM   12  C15 UNL     1      20.723   3.162  51.490  1.00  0.00     0.107 A 
HETATM   13  C9  UNL     1      18.529   4.901  50.186  1.00  0.00     0.226 C 
HETATM   14  N3  UNL     1      19.344   4.389  49.350  1.00  0.00    -0.258 NA
HETATM   15  C10 UNL     1      19.864   4.700  48.090  1.00  0.00     0.317 C 
HETATM   16  O1  UNL     1      20.935   4.238  47.556  1.00  0.00    -0.368 OA
HETATM   17  C11 UNL     1      21.743   3.400  47.082  1.00  0.00     0.196 C 
HETATM   18  C12 UNL     1      22.471   2.260  47.705  1.00  0.00     0.195 C 
HETATM   19  O2  UNL     1      23.389   2.666  48.784  1.00  0.00    -0.369 OA
HETATM   20  C13 UNL     1      22.596   3.355  49.762  1.00  0.00     0.139 A 
HETATM   21  C14 UNL     1      21.660   2.729  50.520  1.00  0.00     0.087 A 
HETATM   22  C18 UNL     1      23.086   4.607  49.568  1.00  0.00     0.113 A 
HETATM   23  C17 UNL     1      22.156   5.071  50.541  1.00  0.00     0.097 A 
HETATM   24  O3  UNL     1      23.887   5.560  49.020  1.00  0.00    -0.347 OA
HETATM   25  O4  UNL     1      21.957   6.431  51.012  1.00  0.00    -0.349 OA
HETATM   26  C20 UNL     1      23.181   7.157  50.761  1.00  0.00     0.202 C 
HETATM   27  C19 UNL     1      23.679   6.941  49.367  1.00  0.00     0.202 C 
ENDBRANCH   6   8
ENDBRANCH   5   6
ENDBRANCH   4   5
ENDBRANCH   3   4
TORSDOF 5
ENDMDL
