MODEL 1
REMARK VINA RESULT:      -7.5      0.000      0.000
REMARK  11 active torsions:
REMARK  status: ('A' for Active; 'I' for Inactive)
REMARK    1  A    between atoms: O1_2  and  C2_3 
REMARK    2  A    between atoms: C2_3  and  C3_4 
REMARK    3  A    between atoms: C3_4  and  N1_5 
REMARK    4  A    between atoms: N1_5  and  C4_6 
REMARK    5  A    between atoms: N1_5  and  O4_30 
REMARK    6  A    between atoms: C4_6  and  C5_7 
REMARK    7  A    between atoms: C5_7  and  O2_8 
REMARK    8  A    between atoms: O2_8  and  C6_9 
REMARK    9  A    between atoms: C11_16  and  N4_17 
REMARK   10  A    between atoms: N4_17  and  C12_18 
REMARK   11  A    between atoms: C19_27  and  O3_28 
ROOT
HETATM    1  C6  UNL     1      21.079   0.579  51.551  1.00  0.00     0.182 A 
HETATM    2  C7  UNL     1      22.521   0.417  52.029  1.00  0.00     0.084 A 
HETATM    3  C8  UNL     1      22.611  -0.289  53.291  1.00  0.00     0.019 A 
HETATM    4  C9  UNL     1      21.660  -0.862  54.102  1.00  0.00     0.070 A 
HETATM    5  N2  UNL     1      21.987  -1.489  55.254  1.00  0.00    -0.241 NA
HETATM    6  C10 UNL     1      23.266  -1.578  55.658  1.00  0.00     0.235 A 
HETATM    7  N3  UNL     1      24.226  -1.040  54.910  1.00  0.00    -0.224 NA
HETATM    8  C11 UNL     1      23.929  -0.414  53.766  1.00  0.00     0.138 A 
HETATM    9  C18 UNL     1      20.294  -0.724  53.631  1.00  0.00     0.067 A 
HETATM   10  C19 UNL     1      20.112  -0.077  52.498  1.00  0.00     0.077 A 
ENDROOT
BRANCH   1  11
HETATM   11  O2  UNL     1      20.733   1.737  51.209  1.00  0.00    -0.378 OA
BRANCH  11  12
HETATM   12  C5  UNL     1      20.396   2.883  50.880  1.00  0.00     0.185 C 
BRANCH  12  13
HETATM   13  C4  UNL     1      20.827   4.107  51.725  1.00  0.00     0.147 C 
BRANCH  13  14
HETATM   14  N1  UNL     1      21.959   4.786  51.196  1.00  0.00    -0.194 NA
BRANCH  14  15
HETATM   15  C3  UNL     1      23.146   4.239  51.813  1.00  0.00     0.146 C 
BRANCH  15  16
HETATM   16  C2  UNL     1      24.098   3.581  50.859  1.00  0.00     0.183 C 
BRANCH  16  17
HETATM   17  O1  UNL     1      25.098   2.864  51.545  1.00  0.00    -0.395 OA
HETATM   18  C1  UNL     1      26.298   2.902  50.838  1.00  0.00     0.201 C 
ENDBRANCH  16  17
ENDBRANCH  15  16
ENDBRANCH  14  15
BRANCH  14  19
HETATM   19  O4  UNL     1      21.898   6.086  51.476  1.00  0.00    -0.308 OA
HETATM   20  C21 UNL     1      22.280   6.863  50.385  1.00  0.00     0.229 C 
ENDBRANCH  14  19
ENDBRANCH  13  14
ENDBRANCH  12  13
ENDBRANCH  11  12
ENDBRANCH   1  11
BRANCH  10  21
HETATM   21  O3  UNL     1      18.779   0.006  52.126  1.00  0.00    -0.357 OA
HETATM   22  C20 UNL     1      17.738  -0.768  52.645  1.00  0.00     0.209 C 
ENDBRANCH  10  21
BRANCH   8  23
HETATM   23  N4  UNL     1      25.076   0.091  53.121  1.00  0.00    -0.340 N 
HETATM   24  H16 UNL     1      24.796   0.784  52.364  1.00  0.00     0.167 HD
BRANCH  23  25
HETATM   25  C12 UNL     1      26.473  -0.110  53.250  1.00  0.00     0.035 A 
HETATM   26  C13 UNL     1      27.143  -1.257  52.889  1.00  0.00     0.032 A 
HETATM   27  C14 UNL     1      28.501  -1.454  53.013  1.00  0.00     0.046 A 
HETATM   28  C15 UNL     1      29.180  -0.399  53.541  1.00  0.00     0.138 A 
HETATM   29  F1  UNL     1      30.519  -0.485  53.706  1.00  0.00    -0.204 F 
HETATM   30  C16 UNL     1      28.596   0.777  53.925  1.00  0.00     0.074 A 
HETATM   31 CL1  UNL     1      29.540   2.087  54.595  1.00  0.00    -0.081 Cl
HETATM   32  C17 UNL     1      27.243   0.905  53.773  1.00  0.00     0.056 A 
ENDBRANCH  23  25
ENDBRANCH   8  23
TORSDOF 11
ENDMDL
MODEL 2
REMARK VINA RESULT:      -7.5      3.490      6.640
REMARK  11 active torsions:
REMARK  status: ('A' for Active; 'I' for Inactive)
REMARK    1  A    between atoms: O1_2  and  C2_3 
REMARK    2  A    between atoms: C2_3  and  C3_4 
REMARK    3  A    between atoms: C3_4  and  N1_5 
REMARK    4  A    between atoms: N1_5  and  C4_6 
REMARK    5  A    between atoms: N1_5  and  O4_30 
REMARK    6  A    between atoms: C4_6  and  C5_7 
REMARK    7  A    between atoms: C5_7  and  O2_8 
REMARK    8  A    between atoms: O2_8  and  C6_9 
REMARK    9  A    between atoms: C11_16  and  N4_17 
REMARK   10  A    between atoms: N4_17  and  C12_18 
REMARK   11  A    between atoms: C19_27  and  O3_28 
ROOT
HETATM    1  C6  UNL     1      23.038   1.152  52.864  1.00  0.00     0.182 A 
HETATM    2  C7  UNL     1      23.288   2.315  51.905  1.00  0.00     0.084 A 
HETATM    3  C8  UNL     1      22.573   2.166  50.654  1.00  0.00     0.019 A 
HETATM    4  C9  UNL     1      21.697   1.210  50.195  1.00  0.00     0.070 A 
HETATM    5  N2  UNL     1      21.135   1.287  48.969  1.00  0.00    -0.241 NA
HETATM    6  C10 UNL     1      21.411   2.309  48.140  1.00  0.00     0.235 A 
HETATM    7  N3  UNL     1      22.252   3.261  48.534  1.00  0.00    -0.224 NA
HETATM    8  C11 UNL     1      22.822   3.209  49.743  1.00  0.00     0.138 A 
HETATM    9  C18 UNL     1      21.446   0.120  51.119  1.00  0.00     0.067 A 
HETATM   10  C19 UNL     1      22.071   0.159  52.279  1.00  0.00     0.077 A 
ENDROOT
BRANCH   1  11
HETATM   11  O2  UNL     1      24.056   0.617  53.368  1.00  0.00    -0.378 OA
BRANCH  11  12
HETATM   12  C5  UNL     1      25.063   0.085  53.857  1.00  0.00     0.185 C 
BRANCH  12  13
HETATM   13  C4  UNL     1      26.188  -0.463  52.945  1.00  0.00     0.147 C 
BRANCH  13  14
HETATM   14  N1  UNL     1      27.234  -1.104  53.665  1.00  0.00    -0.194 NA
BRANCH  14  15
HETATM   15  C3  UNL     1      28.383  -0.228  53.673  1.00  0.00     0.146 C 
BRANCH  15  16
HETATM   16  C2  UNL     1      28.654   0.433  54.992  1.00  0.00     0.183 C 
BRANCH  16  17
HETATM   17  O1  UNL     1      28.906   1.810  54.833  1.00  0.00    -0.395 OA
HETATM   18  C1  UNL     1      28.585   2.219  53.540  1.00  0.00     0.201 C 
ENDBRANCH  16  17
ENDBRANCH  15  16
ENDBRANCH  14  15
BRANCH  14  19
HETATM   19  O4  UNL     1      27.577  -2.247  53.073  1.00  0.00    -0.308 OA
HETATM   20  C21 UNL     1      28.953  -2.452  53.116  1.00  0.00     0.229 C 
ENDBRANCH  14  19
ENDBRANCH  13  14
ENDBRANCH  12  13
ENDBRANCH  11  12
ENDBRANCH   1  11
BRANCH  10  21
HETATM   21  O3  UNL     1      21.772  -0.920  53.096  1.00  0.00    -0.357 OA
HETATM   22  C20 UNL     1      20.999  -0.874  54.258  1.00  0.00     0.209 C 
ENDBRANCH  10  21
BRANCH   8  23
HETATM   23  N4  UNL     1      23.683   4.301  49.974  1.00  0.00    -0.340 N 
HETATM   24  H16 UNL     1      23.254   4.960  50.691  1.00  0.00     0.167 HD
BRANCH  23  25
HETATM   25  C12 UNL     1      24.948   4.706  49.483  1.00  0.00     0.035 A 
HETATM   26  C13 UNL     1      26.079   3.921  49.469  1.00  0.00     0.032 A 
HETATM   27  C14 UNL     1      27.311   4.313  48.991  1.00  0.00     0.046 A 
HETATM   28  C15 UNL     1      27.352   5.585  48.510  1.00  0.00     0.138 A 
HETATM   29  F1  UNL     1      28.512   6.072  48.016  1.00  0.00    -0.204 F 
HETATM   30  C16 UNL     1      26.279   6.433  48.484  1.00  0.00     0.074 A 
HETATM   31 CL1  UNL     1      26.414   8.056  47.849  1.00  0.00    -0.081 Cl
HETATM   32  C17 UNL     1      25.086   5.979  48.974  1.00  0.00     0.056 A 
ENDBRANCH  23  25
ENDBRANCH   8  23
TORSDOF 11
ENDMDL
MODEL 3
REMARK VINA RESULT:      -7.1      2.309      5.180
REMARK  11 active torsions:
REMARK  status: ('A' for Active; 'I' for Inactive)
REMARK    1  A    between atoms: O1_2  and  C2_3 
REMARK    2  A    between atoms: C2_3  and  C3_4 
REMARK    3  A    between atoms: C3_4  and  N1_5 
REMARK    4  A    between atoms: N1_5  and  C4_6 
REMARK    5  A    between atoms: N1_5  and  O4_30 
REMARK    6  A    between atoms: C4_6  and  C5_7 
REMARK    7  A    between atoms: C5_7  and  O2_8 
REMARK    8  A    between atoms: O2_8  and  C6_9 
REMARK    9  A    between atoms: C11_16  and  N4_17 
REMARK   10  A    between atoms: N4_17  and  C12_18 
REMARK   11  A    between atoms: C19_27  and  O3_28 
ROOT
HETATM    1  C6  UNL     1      22.545   4.334  52.324  1.00  0.00     0.182 A 
HETATM    2  C7  UNL     1      23.734   3.375  52.293  1.00  0.00     0.084 A 
HETATM    3  C8  UNL     1      24.681   3.698  51.246  1.00  0.00     0.019 A 
HETATM    4  C9  UNL     1      24.726   4.712  50.318  1.00  0.00     0.070 A 
HETATM    5  N2  UNL     1      25.735   4.819  49.426  1.00  0.00    -0.241 NA
HETATM    6  C10 UNL     1      26.744   3.932  49.408  1.00  0.00     0.235 A 
HETATM    7  N3  UNL     1      26.750   2.930  50.284  1.00  0.00    -0.224 NA
HETATM    8  C11 UNL     1      25.763   2.802  51.178  1.00  0.00     0.138 A 
HETATM    9  C18 UNL     1      23.605   5.633  50.367  1.00  0.00     0.067 A 
HETATM   10  C19 UNL     1      22.680   5.406  51.277  1.00  0.00     0.077 A 
ENDROOT
BRANCH   1  11
HETATM   11  O2  UNL     1      21.405   3.808  52.353  1.00  0.00    -0.378 OA
BRANCH  11  12
HETATM   12  C5  UNL     1      20.276   3.298  52.381  1.00  0.00     0.185 C 
BRANCH  12  13
HETATM   13  C4  UNL     1      20.102   1.759  52.344  1.00  0.00     0.147 C 
BRANCH  13  14
HETATM   14  N1  UNL     1      20.999   1.113  51.450  1.00  0.00    -0.194 NA
BRANCH  14  15
HETATM   15  C3  UNL     1      20.332   0.944  50.179  1.00  0.00     0.146 C 
BRANCH  15  16
HETATM   16  C2  UNL     1      20.776   1.897  49.110  1.00  0.00     0.183 C 
BRANCH  16  17
HETATM   17  O1  UNL     1      22.124   2.268  49.281  1.00  0.00    -0.395 OA
HETATM   18  C1  UNL     1      22.713   2.553  48.050  1.00  0.00     0.201 C 
ENDBRANCH  16  17
ENDBRANCH  15  16
ENDBRANCH  14  15
BRANCH  14  19
HETATM   19  O4  UNL     1      21.337  -0.089  51.913  1.00  0.00    -0.308 OA
HETATM   20  C21 UNL     1      22.222   0.005  52.984  1.00  0.00     0.229 C 
ENDBRANCH  14  19
ENDBRANCH  13  14
ENDBRANCH  12  13
ENDBRANCH  11  12
ENDBRANCH   1  11
BRANCH  10  21
HETATM   21  O3  UNL     1      21.650   6.333  51.250  1.00  0.00    -0.357 OA
HETATM   22  C20 UNL     1      21.626   7.503  50.487  1.00  0.00     0.209 C 
ENDBRANCH  10  21
BRANCH   8  23
HETATM   23  N4  UNL     1      25.944   1.681  52.014  1.00  0.00    -0.340 N 
HETATM   24  H16 UNL     1      25.003   1.242  52.246  1.00  0.00     0.167 HD
BRANCH  23  25
HETATM   25  C12 UNL     1      27.059   1.031  52.597  1.00  0.00     0.035 A 
HETATM   26  C13 UNL     1      28.089   1.664  53.256  1.00  0.00     0.032 A 
HETATM   27  C14 UNL     1      29.174   1.033  53.823  1.00  0.00     0.046 A 
HETATM   28  C15 UNL     1      29.174  -0.321  53.690  1.00  0.00     0.138 A 
HETATM   29  F1  UNL     1      30.194  -1.040  54.210  1.00  0.00    -0.204 F 
HETATM   30  C16 UNL     1      28.195  -1.032  53.053  1.00  0.00     0.074 A 
HETATM   31 CL1  UNL     1      28.269  -2.773  52.923  1.00  0.00    -0.081 Cl
HETATM   32  C17 UNL     1      27.145  -0.342  52.513  1.00  0.00     0.056 A 
ENDBRANCH  23  25
ENDBRANCH   8  23
TORSDOF 11
ENDMDL
MODEL 4
REMARK VINA RESULT:      -7.1      3.610      6.337
REMARK  11 active torsions:
REMARK  status: ('A' for Active; 'I' for Inactive)
REMARK    1  A    between atoms: O1_2  and  C2_3 
REMARK    2  A    between atoms: C2_3  and  C3_4 
REMARK    3  A    between atoms: C3_4  and  N1_5 
REMARK    4  A    between atoms: N1_5  and  C4_6 
REMARK    5  A    between atoms: N1_5  and  O4_30 
REMARK    6  A    between atoms: C4_6  and  C5_7 
REMARK    7  A    between atoms: C5_7  and  O2_8 
REMARK    8  A    between atoms: O2_8  and  C6_9 
REMARK    9  A    between atoms: C11_16  and  N4_17 
REMARK   10  A    between atoms: N4_17  and  C12_18 
REMARK   11  A    between atoms: C19_27  and  O3_28 
ROOT
HETATM    1  C6  UNL     1      22.888   1.024  53.077  1.00  0.00     0.182 A 
HETATM    2  C7  UNL     1      23.696   1.867  52.091  1.00  0.00     0.084 A 
HETATM    3  C8  UNL     1      23.076   1.939  50.784  1.00  0.00     0.019 A 
HETATM    4  C9  UNL     1      21.899   1.431  50.287  1.00  0.00     0.070 A 
HETATM    5  N2  UNL     1      21.514   1.639  49.009  1.00  0.00    -0.241 NA
HETATM    6  C10 UNL     1      22.273   2.357  48.162  1.00  0.00     0.235 A 
HETATM    7  N3  UNL     1      23.423   2.870  48.591  1.00  0.00    -0.224 NA
HETATM    8  C11 UNL     1      23.826   2.679  49.852  1.00  0.00     0.138 A 
HETATM    9  C18 UNL     1      21.124   0.650  51.234  1.00  0.00     0.067 A 
HETATM   10  C19 UNL     1      21.621   0.512  52.447  1.00  0.00     0.077 A 
ENDROOT
BRANCH   1  11
HETATM   11  O2  UNL     1      23.521   0.141  53.706  1.00  0.00    -0.378 OA
BRANCH  11  12
HETATM   12  C5  UNL     1      24.149  -0.723  54.334  1.00  0.00     0.185 C 
BRANCH  12  13
HETATM   13  C4  UNL     1      25.668  -0.569  54.590  1.00  0.00     0.147 C 
BRANCH  13  14
HETATM   14  N1  UNL     1      26.304   0.320  53.681  1.00  0.00    -0.194 NA
BRANCH  14  15
HETATM   15  C3  UNL     1      27.389  -0.388  53.038  1.00  0.00     0.146 C 
BRANCH  15  16
HETATM   16  C2  UNL     1      27.113  -1.836  52.765  1.00  0.00     0.183 C 
BRANCH  16  17
HETATM   17  O1  UNL     1      28.232  -2.637  53.065  1.00  0.00    -0.395 OA
HETATM   18  C1  UNL     1      29.337  -1.841  53.360  1.00  0.00     0.201 C 
ENDBRANCH  16  17
ENDBRANCH  15  16
ENDBRANCH  14  15
BRANCH  14  19
HETATM   19  O4  UNL     1      26.808   1.369  54.327  1.00  0.00    -0.308 OA
HETATM   20  C21 UNL     1      27.663   2.109  53.514  1.00  0.00     0.229 C 
ENDBRANCH  14  19
ENDBRANCH  13  14
ENDBRANCH  12  13
ENDBRANCH  11  12
ENDBRANCH   1  11
BRANCH  10  21
HETATM   21  O3  UNL     1      20.815  -0.247  53.282  1.00  0.00    -0.357 OA
HETATM   22  C20 UNL     1      19.446  -0.465  53.117  1.00  0.00     0.209 C 
ENDBRANCH  10  21
BRANCH   8  23
HETATM   23  N4  UNL     1      25.067   3.295  50.115  1.00  0.00    -0.340 N 
HETATM   24  H16 UNL     1      25.643   2.692  50.775  1.00  0.00     0.167 HD
BRANCH  23  25
HETATM   25  C12 UNL     1      25.698   4.498  49.710  1.00  0.00     0.035 A 
HETATM   26  C13 UNL     1      26.851   4.573  48.962  1.00  0.00     0.032 A 
HETATM   27  C14 UNL     1      27.466   5.741  48.568  1.00  0.00     0.046 A 
HETATM   28  C15 UNL     1      26.839   6.877  48.981  1.00  0.00     0.138 A 
HETATM   29  F1  UNL     1      27.358   8.081  48.649  1.00  0.00    -0.204 F 
HETATM   30  C16 UNL     1      25.692   6.896  49.725  1.00  0.00     0.074 A 
HETATM   31 CL1  UNL     1      24.948   8.399  50.216  1.00  0.00    -0.081 Cl
HETATM   32  C17 UNL     1      25.134   5.699  50.081  1.00  0.00     0.056 A 
ENDBRANCH  23  25
ENDBRANCH   8  23
TORSDOF 11
ENDMDL
MODEL 5
REMARK VINA RESULT:      -7.0      5.305      8.446
REMARK  11 active torsions:
REMARK  status: ('A' for Active; 'I' for Inactive)
REMARK    1  A    between atoms: O1_2  and  C2_3 
REMARK    2  A    between atoms: C2_3  and  C3_4 
REMARK    3  A    between atoms: C3_4  and  N1_5 
REMARK    4  A    between atoms: N1_5  and  C4_6 
REMARK    5  A    between atoms: N1_5  and  O4_30 
REMARK    6  A    between atoms: C4_6  and  C5_7 
REMARK    7  A    between atoms: C5_7  and  O2_8 
REMARK    8  A    between atoms: O2_8  and  C6_9 
REMARK    9  A    between atoms: C11_16  and  N4_17 
REMARK   10  A    between atoms: N4_17  and  C12_18 
REMARK   11  A    between atoms: C19_27  and  O3_28 
ROOT
HETATM    1  C6  UNL     1      27.686   5.422  48.336  1.00  0.00     0.182 A 
HETATM    2  C7  UNL     1      27.145   4.248  49.151  1.00  0.00     0.084 A 
HETATM    3  C8  UNL     1      25.981   4.606  49.935  1.00  0.00     0.019 A 
HETATM    4  C9  UNL     1      25.263   5.774  50.049  1.00  0.00     0.070 A 
HETATM    5  N2  UNL     1      24.183   5.873  50.854  1.00  0.00    -0.241 NA
HETATM    6  C10 UNL     1      23.761   4.825  51.584  1.00  0.00     0.235 A 
HETATM    7  N3  UNL     1      24.420   3.671  51.511  1.00  0.00    -0.224 NA
HETATM    8  C11 UNL     1      25.492   3.547  50.722  1.00  0.00     0.138 A 
HETATM    9  C18 UNL     1      25.768   6.879  49.255  1.00  0.00     0.067 A 
HETATM   10  C19 UNL     1      26.840   6.652  48.523  1.00  0.00     0.077 A 
ENDROOT
BRANCH   1  11
HETATM   11  O2  UNL     1      28.917   5.646  48.432  1.00  0.00    -0.378 OA
BRANCH  11  12
HETATM   12  C5  UNL     1      30.134   5.859  48.531  1.00  0.00     0.185 C 
BRANCH  12  13
HETATM   13  C4  UNL     1      31.120   5.332  47.459  1.00  0.00     0.147 C 
BRANCH  13  14
HETATM   14  N1  UNL     1      32.372   4.928  47.996  1.00  0.00    -0.194 NA
BRANCH  14  15
HETATM   15  C3  UNL     1      33.405   5.262  47.042  1.00  0.00     0.146 C 
BRANCH  15  16
HETATM   16  C2  UNL     1      34.275   6.415  47.443  1.00  0.00     0.183 C 
BRANCH  16  17
HETATM   17  O1  UNL     1      34.478   6.445  48.836  1.00  0.00    -0.395 OA
HETATM   18  C1  UNL     1      35.669   5.802  49.170  1.00  0.00     0.201 C 
ENDBRANCH  16  17
ENDBRANCH  15  16
ENDBRANCH  14  15
BRANCH  14  19
HETATM   19  O4  UNL     1      32.392   3.612  48.197  1.00  0.00    -0.308 OA
HETATM   20  C21 UNL     1      32.934   2.936  47.107  1.00  0.00     0.229 C 
ENDBRANCH  14  19
ENDBRANCH  13  14
ENDBRANCH  12  13
ENDBRANCH  11  12
ENDBRANCH   1  11
BRANCH  10  21
HETATM   21  O3  UNL     1      27.251   7.762  47.800  1.00  0.00    -0.357 OA
HETATM   22  C20 UNL     1      27.280   9.076  48.270  1.00  0.00     0.209 C 
ENDBRANCH  10  21
BRANCH   8  23
HETATM   23  N4  UNL     1      26.053   2.255  50.784  1.00  0.00    -0.340 N 
HETATM   24  H16 UNL     1      25.950   1.766  49.845  1.00  0.00     0.167 HD
BRANCH  23  25
HETATM   25  C12 UNL     1      26.702   1.488  51.783  1.00  0.00     0.035 A 
HETATM   26  C13 UNL     1      26.452   0.160  52.046  1.00  0.00     0.032 A 
HETATM   27  C14 UNL     1      27.082  -0.588  53.017  1.00  0.00     0.046 A 
HETATM   28  C15 UNL     1      28.013   0.092  53.740  1.00  0.00     0.138 A 
HETATM   29  F1  UNL     1      28.692  -0.547  54.719  1.00  0.00    -0.204 F 
HETATM   30  C16 UNL     1      28.325   1.410  53.547  1.00  0.00     0.074 A 
HETATM   31 CL1  UNL     1      29.535   2.213  54.520  1.00  0.00    -0.081 Cl
HETATM   32  C17 UNL     1      27.661   2.093  52.565  1.00  0.00     0.056 A 
ENDBRANCH  23  25
ENDBRANCH   8  23
TORSDOF 11
ENDMDL
MODEL 6
REMARK VINA RESULT:      -7.0      2.109      5.262
REMARK  11 active torsions:
REMARK  status: ('A' for Active; 'I' for Inactive)
REMARK    1  A    between atoms: O1_2  and  C2_3 
REMARK    2  A    between atoms: C2_3  and  C3_4 
REMARK    3  A    between atoms: C3_4  and  N1_5 
REMARK    4  A    between atoms: N1_5  and  C4_6 
REMARK    5  A    between atoms: N1_5  and  O4_30 
REMARK    6  A    between atoms: C4_6  and  C5_7 
REMARK    7  A    between atoms: C5_7  and  O2_8 
REMARK    8  A    between atoms: O2_8  and  C6_9 
REMARK    9  A    between atoms: C11_16  and  N4_17 
REMARK   10  A    between atoms: N4_17  and  C12_18 
REMARK   11  A    between atoms: C19_27  and  O3_28 
ROOT
HETATM    1  C6  UNL     1      22.385   4.612  51.982  1.00  0.00     0.182 A 
HETATM    2  C7  UNL     1      23.666   3.826  52.259  1.00  0.00     0.084 A 
HETATM    3  C8  UNL     1      24.631   3.940  51.185  1.00  0.00     0.019 A 
HETATM    4  C9  UNL     1      24.622   4.642  50.002  1.00  0.00     0.070 A 
HETATM    5  N2  UNL     1      25.662   4.602  49.140  1.00  0.00    -0.241 NA
HETATM    6  C10 UNL     1      26.756   3.868  49.405  1.00  0.00     0.235 A 
HETATM    7  N3  UNL     1      26.816   3.168  50.535  1.00  0.00    -0.224 NA
HETATM    8  C11 UNL     1      25.801   3.191  51.405  1.00  0.00     0.138 A 
HETATM    9  C18 UNL     1      23.413   5.405  49.755  1.00  0.00     0.067 A 
HETATM   10  C19 UNL     1      22.467   5.346  50.672  1.00  0.00     0.077 A 
ENDROOT
BRANCH   1  11
HETATM   11  O2  UNL     1      21.306   3.991  52.138  1.00  0.00    -0.378 OA
BRANCH  11  12
HETATM   12  C5  UNL     1      20.235   3.385  52.288  1.00  0.00     0.185 C 
BRANCH  12  13
HETATM   13  C4  UNL     1      20.158   1.852  52.086  1.00  0.00     0.147 C 
BRANCH  13  14
HETATM   14  N1  UNL     1      20.918   1.120  53.039  1.00  0.00    -0.194 NA
BRANCH  14  15
HETATM   15  C3  UNL     1      21.664   0.100  52.338  1.00  0.00     0.146 C 
BRANCH  15  16
HETATM   16  C2  UNL     1      23.138   0.360  52.243  1.00  0.00     0.183 C 
BRANCH  16  17
HETATM   17  O1  UNL     1      23.725   0.458  53.520  1.00  0.00    -0.395 OA
HETATM   18  C1  UNL     1      23.595  -0.745  54.212  1.00  0.00     0.201 C 
ENDBRANCH  16  17
ENDBRANCH  15  16
ENDBRANCH  14  15
BRANCH  14  19
HETATM   19  O4  UNL     1      20.116   0.527  53.921  1.00  0.00    -0.308 OA
HETATM   20  C21 UNL     1      19.493  -0.592  53.374  1.00  0.00     0.229 C 
ENDBRANCH  14  19
ENDBRANCH  13  14
ENDBRANCH  12  13
ENDBRANCH  11  12
ENDBRANCH   1  11
BRANCH  10  21
HETATM   21  O3  UNL     1      21.351   6.103  50.352  1.00  0.00    -0.357 OA
HETATM   22  C20 UNL     1      21.079   6.669  49.104  1.00  0.00     0.209 C 
ENDBRANCH  10  21
BRANCH   8  23
HETATM   23  N4  UNL     1      26.049   2.386  52.536  1.00  0.00    -0.340 N 
HETATM   24  H16 UNL     1      25.261   2.494  53.242  1.00  0.00     0.167 HD
BRANCH  23  25
HETATM   25  C12 UNL     1      27.078   1.496  52.930  1.00  0.00     0.035 A 
HETATM   26  C13 UNL     1      28.243   1.865  53.566  1.00  0.00     0.032 A 
HETATM   27  C14 UNL     1      29.244   1.000  53.950  1.00  0.00     0.046 A 
HETATM   28  C15 UNL     1      29.009  -0.306  53.651  1.00  0.00     0.138 A 
HETATM   29  F1  UNL     1      29.928  -1.241  53.984  1.00  0.00    -0.204 F 
HETATM   30  C16 UNL     1      27.883  -0.762  53.023  1.00  0.00     0.074 A 
HETATM   31 CL1  UNL     1      27.656  -2.459  52.673  1.00  0.00    -0.081 Cl
HETATM   32  C17 UNL     1      26.928   0.151  52.669  1.00  0.00     0.056 A 
ENDBRANCH  23  25
ENDBRANCH   8  23
TORSDOF 11
ENDMDL
MODEL 7
REMARK VINA RESULT:      -6.9      3.877      7.490
REMARK  11 active torsions:
REMARK  status: ('A' for Active; 'I' for Inactive)
REMARK    1  A    between atoms: O1_2  and  C2_3 
REMARK    2  A    between atoms: C2_3  and  C3_4 
REMARK    3  A    between atoms: C3_4  and  N1_5 
REMARK    4  A    between atoms: N1_5  and  C4_6 
REMARK    5  A    between atoms: N1_5  and  O4_30 
REMARK    6  A    between atoms: C4_6  and  C5_7 
REMARK    7  A    between atoms: C5_7  and  O2_8 
REMARK    8  A    between atoms: O2_8  and  C6_9 
REMARK    9  A    between atoms: C11_16  and  N4_17 
REMARK   10  A    between atoms: N4_17  and  C12_18 
REMARK   11  A    between atoms: C19_27  and  O3_28 
ROOT
HETATM    1  C6  UNL     1      25.092   3.318  50.023  1.00  0.00     0.182 A 
HETATM    2  C7  UNL     1      23.707   2.692  50.183  1.00  0.00     0.084 A 
HETATM    3  C8  UNL     1      22.655   3.685  50.267  1.00  0.00     0.019 A 
HETATM    4  C9  UNL     1      22.669   5.058  50.192  1.00  0.00     0.070 A 
HETATM    5  N2  UNL     1      21.538   5.790  50.290  1.00  0.00    -0.241 NA
HETATM    6  C10 UNL     1      20.342   5.201  50.468  1.00  0.00     0.235 A 
HETATM    7  N3  UNL     1      20.273   3.875  50.548  1.00  0.00    -0.224 NA
HETATM    8  C11 UNL     1      21.377   3.128  50.454  1.00  0.00     0.138 A 
HETATM    9  C18 UNL     1      23.984   5.646  50.017  1.00  0.00     0.067 A 
HETATM   10  C19 UNL     1      25.008   4.819  49.950  1.00  0.00     0.077 A 
ENDROOT
BRANCH   1  11
HETATM   11  O2  UNL     1      25.983   2.908  50.806  1.00  0.00    -0.378 OA
BRANCH  11  12
HETATM   12  C5  UNL     1      26.861   2.493  51.576  1.00  0.00     0.185 C 
BRANCH  12  13
HETATM   13  C4  UNL     1      26.492   1.615  52.797  1.00  0.00     0.147 C 
BRANCH  13  14
HETATM   14  N1  UNL     1      27.066   2.074  54.014  1.00  0.00    -0.194 NA
BRANCH  14  15
HETATM   15  C3  UNL     1      28.479   2.289  53.797  1.00  0.00     0.146 C 
BRANCH  15  16
HETATM   16  C2  UNL     1      29.367   1.222  54.364  1.00  0.00     0.183 C 
BRANCH  16  17
HETATM   17  O1  UNL     1      29.835   0.356  53.358  1.00  0.00    -0.395 OA
HETATM   18  C1  UNL     1      29.690  -0.974  53.752  1.00  0.00     0.201 C 
ENDBRANCH  16  17
ENDBRANCH  15  16
ENDBRANCH  14  15
BRANCH  14  19
HETATM   19  O4  UNL     1      26.920   1.161  54.973  1.00  0.00    -0.308 OA
HETATM   20  C21 UNL     1      26.039   0.153  54.591  1.00  0.00     0.229 C 
ENDBRANCH  14  19
ENDBRANCH  13  14
ENDBRANCH  12  13
ENDBRANCH  11  12
ENDBRANCH   1  11
BRANCH  10  21
HETATM   21  O3  UNL     1      26.222   5.467  49.783  1.00  0.00    -0.357 OA
HETATM   22  C20 UNL     1      27.010   5.439  48.630  1.00  0.00     0.209 C 
ENDBRANCH  10  21
BRANCH   8  23
HETATM   23  N4  UNL     1      21.101   1.750  50.566  1.00  0.00    -0.340 N 
HETATM   24  H16 UNL     1      20.902   1.336  49.606  1.00  0.00     0.167 HD
BRANCH  23  25
HETATM   25  C12 UNL     1      21.031   0.822  51.635  1.00  0.00     0.035 A 
HETATM   26  C13 UNL     1      22.108   0.379  52.370  1.00  0.00     0.032 A 
HETATM   27  C14 UNL     1      22.041  -0.523  53.410  1.00  0.00     0.046 A 
HETATM   28  C15 UNL     1      20.788  -0.976  53.685  1.00  0.00     0.138 A 
HETATM   29  F1  UNL     1      20.608  -1.865  54.688  1.00  0.00    -0.204 F 
HETATM   30  C16 UNL     1      19.664  -0.590  53.009  1.00  0.00     0.074 A 
HETATM   31 CL1  UNL     1      18.088  -1.220  53.426  1.00  0.00    -0.081 Cl
HETATM   32  C17 UNL     1      19.802   0.309  51.988  1.00  0.00     0.056 A 
ENDBRANCH  23  25
ENDBRANCH   8  23
TORSDOF 11
ENDMDL
MODEL 8
REMARK VINA RESULT:      -6.7      3.557      5.586
REMARK  11 active torsions:
REMARK  status: ('A' for Active; 'I' for Inactive)
REMARK    1  A    between atoms: O1_2  and  C2_3 
REMARK    2  A    between atoms: C2_3  and  C3_4 
REMARK    3  A    between atoms: C3_4  and  N1_5 
REMARK    4  A    between atoms: N1_5  and  C4_6 
REMARK    5  A    between atoms: N1_5  and  O4_30 
REMARK    6  A    between atoms: C4_6  and  C5_7 
REMARK    7  A    between atoms: C5_7  and  O2_8 
REMARK    8  A    between atoms: O2_8  and  C6_9 
REMARK    9  A    between atoms: C11_16  and  N4_17 
REMARK   10  A    between atoms: N4_17  and  C12_18 
REMARK   11  A    between atoms: C19_27  and  O3_28 
ROOT
HETATM    1  C6  UNL     1      22.625   0.633  52.096  1.00  0.00     0.182 A 
HETATM    2  C7  UNL     1      23.582   1.595  51.394  1.00  0.00     0.084 A 
HETATM    3  C8  UNL     1      24.932   1.511  51.911  1.00  0.00     0.019 A 
HETATM    4  C9  UNL     1      25.508   0.714  52.873  1.00  0.00     0.070 A 
HETATM    5  N2  UNL     1      26.819   0.810  53.188  1.00  0.00    -0.241 NA
HETATM    6  C10 UNL     1      27.619   1.697  52.572  1.00  0.00     0.235 A 
HETATM    7  N3  UNL     1      27.112   2.493  51.635  1.00  0.00    -0.224 NA
HETATM    8  C11 UNL     1      25.819   2.418  51.303  1.00  0.00     0.138 A 
HETATM    9  C18 UNL     1      24.599  -0.213  53.520  1.00  0.00     0.067 A 
HETATM   10  C19 UNL     1      23.342  -0.195  53.128  1.00  0.00     0.077 A 
ENDROOT
BRANCH   1  11
HETATM   11  O2  UNL     1      21.548   1.124  52.514  1.00  0.00    -0.378 OA
BRANCH  11  12
HETATM   12  C5  UNL     1      20.488   1.619  52.925  1.00  0.00     0.185 C 
BRANCH  12  13
HETATM   13  C4  UNL     1      19.984   2.976  52.375  1.00  0.00     0.147 C 
BRANCH  13  14
HETATM   14  N1  UNL     1      18.699   2.895  51.771  1.00  0.00    -0.194 NA
BRANCH  14  15
HETATM   15  C3  UNL     1      18.877   2.718  50.347  1.00  0.00     0.146 C 
BRANCH  15  16
HETATM   16  C2  UNL     1      20.081   3.407  49.779  1.00  0.00     0.183 C 
BRANCH  16  17
HETATM   17  O1  UNL     1      20.550   2.753  48.624  1.00  0.00    -0.395 OA
HETATM   18  C1  UNL     1      20.849   1.420  48.904  1.00  0.00     0.201 C 
ENDBRANCH  16  17
ENDBRANCH  15  16
ENDBRANCH  14  15
BRANCH  14  19
HETATM   19  O4  UNL     1      18.015   4.019  51.975  1.00  0.00    -0.308 OA
HETATM   20  C21 UNL     1      16.656   3.843  51.729  1.00  0.00     0.229 C 
ENDBRANCH  14  19
ENDBRANCH  13  14
ENDBRANCH  12  13
ENDBRANCH  11  12
ENDBRANCH   1  11
BRANCH  10  21
HETATM   21  O3  UNL     1      22.548  -1.112  53.800  1.00  0.00    -0.357 OA
HETATM   22  C20 UNL     1      22.074  -0.977  55.106  1.00  0.00     0.209 C 
ENDBRANCH  10  21
BRANCH   8  23
HETATM   23  N4  UNL     1      25.471   3.342  50.296  1.00  0.00    -0.340 N 
HETATM   24  H16 UNL     1      24.537   3.077  49.862  1.00  0.00     0.167 HD
BRANCH  23  25
HETATM   25  C12 UNL     1      26.067   4.506  49.751  1.00  0.00     0.035 A 
HETATM   26  C13 UNL     1      27.178   4.519  48.937  1.00  0.00     0.032 A 
HETATM   27  C14 UNL     1      27.759   5.650  48.406  1.00  0.00     0.046 A 
HETATM   28  C15 UNL     1      27.144   6.815  48.747  1.00  0.00     0.138 A 
HETATM   29  F1  UNL     1      27.631   7.986  48.280  1.00  0.00    -0.204 F 
HETATM   30  C16 UNL     1      26.038   6.896  49.548  1.00  0.00     0.074 A 
HETATM   31 CL1  UNL     1      25.306   8.433  49.941  1.00  0.00    -0.081 Cl
HETATM   32  C17 UNL     1      25.512   5.733  50.041  1.00  0.00     0.056 A 
ENDBRANCH  23  25
ENDBRANCH   8  23
TORSDOF 11
ENDMDL
MODEL 9
REMARK VINA RESULT:      -6.7      2.493      4.034
REMARK  11 active torsions:
REMARK  status: ('A' for Active; 'I' for Inactive)
REMARK    1  A    between atoms: O1_2  and  C2_3 
REMARK    2  A    between atoms: C2_3  and  C3_4 
REMARK    3  A    between atoms: C3_4  and  N1_5 
REMARK    4  A    between atoms: N1_5  and  C4_6 
REMARK    5  A    between atoms: N1_5  and  O4_30 
REMARK    6  A    between atoms: C4_6  and  C5_7 
REMARK    7  A    between atoms: C5_7  and  O2_8 
REMARK    8  A    between atoms: O2_8  and  C6_9 
REMARK    9  A    between atoms: C11_16  and  N4_17 
REMARK   10  A    between atoms: N4_17  and  C12_18 
REMARK   11  A    between atoms: C19_27  and  O3_28 
ROOT
HETATM    1  C6  UNL     1      24.736   3.364  49.917  1.00  0.00     0.182 A 
HETATM    2  C7  UNL     1      25.061   2.633  51.220  1.00  0.00     0.084 A 
HETATM    3  C8  UNL     1      24.007   1.725  51.624  1.00  0.00     0.019 A 
HETATM    4  C9  UNL     1      22.810   1.376  51.043  1.00  0.00     0.070 A 
HETATM    5  N2  UNL     1      21.975   0.479  51.611  1.00  0.00    -0.241 NA
HETATM    6  C10 UNL     1      22.282  -0.114  52.778  1.00  0.00     0.235 A 
HETATM    7  N3  UNL     1      23.428   0.188  53.383  1.00  0.00    -0.224 NA
HETATM    8  C11 UNL     1      24.272   1.072  52.841  1.00  0.00     0.138 A 
HETATM    9  C18 UNL     1      22.518   2.056  49.795  1.00  0.00     0.067 A 
HETATM   10  C19 UNL     1      23.412   2.920  49.357  1.00  0.00     0.077 A 
ENDROOT
BRANCH   1  11
HETATM   11  O2  UNL     1      24.878   4.611  49.928  1.00  0.00    -0.378 OA
BRANCH  11  12
HETATM   12  C5  UNL     1      25.013   5.843  49.947  1.00  0.00     0.185 C 
BRANCH  12  13
HETATM   13  C4  UNL     1      24.159   6.746  49.023  1.00  0.00     0.147 C 
BRANCH  13  14
HETATM   14  N1  UNL     1      23.125   7.438  49.712  1.00  0.00    -0.194 NA
BRANCH  14  15
HETATM   15  C3  UNL     1      21.855   6.882  49.302  1.00  0.00     0.146 C 
BRANCH  15  16
HETATM   16  C2  UNL     1      21.308   5.833  50.223  1.00  0.00     0.183 C 
BRANCH  16  17
HETATM   17  O1  UNL     1      21.682   6.077  51.558  1.00  0.00    -0.395 OA
HETATM   18  C1  UNL     1      22.093   4.895  52.173  1.00  0.00     0.201 C 
ENDBRANCH  16  17
ENDBRANCH  15  16
ENDBRANCH  14  15
BRANCH  14  19
HETATM   19  O4  UNL     1      23.141   8.733  49.400  1.00  0.00    -0.308 OA
HETATM   20  C21 UNL     1      21.926   9.142  48.856  1.00  0.00     0.229 C 
ENDBRANCH  14  19
ENDBRANCH  13  14
ENDBRANCH  12  13
ENDBRANCH  11  12
ENDBRANCH   1  11
BRANCH  10  21
HETATM   21  O3  UNL     1      23.050   3.520  48.161  1.00  0.00    -0.357 OA
HETATM   22  C20 UNL     1      22.085   3.046  47.270  1.00  0.00     0.209 C 
ENDBRANCH  10  21
BRANCH   8  23
HETATM   23  N4  UNL     1      25.425   1.261  53.630  1.00  0.00    -0.340 N 
HETATM   24  H16 UNL     1      25.221   1.943  54.420  1.00  0.00     0.167 HD
BRANCH  23  25
HETATM   25  C12 UNL     1      26.751   0.763  53.607  1.00  0.00     0.035 A 
HETATM   26  C13 UNL     1      27.881   1.511  53.849  1.00  0.00     0.032 A 
HETATM   27  C14 UNL     1      29.172   1.029  53.828  1.00  0.00     0.046 A 
HETATM   28  C15 UNL     1      29.275  -0.297  53.538  1.00  0.00     0.138 A 
HETATM   29  F1  UNL     1      30.497  -0.874  53.490  1.00  0.00    -0.204 F 
HETATM   30  C16 UNL     1      28.208  -1.115  53.285  1.00  0.00     0.074 A 
HETATM   31 CL1  UNL     1      28.425  -2.810  52.919  1.00  0.00    -0.081 Cl
HETATM   32  C17 UNL     1      26.955  -0.570  53.323  1.00  0.00     0.056 A 
ENDBRANCH  23  25
ENDBRANCH   8  23
TORSDOF 11
ENDMDL
