MODEL 1
REMARK VINA RESULT:      -8.5      0.000      0.000
REMARK  6 active torsions:
REMARK  status: ('A' for Active; 'I' for Inactive)
REMARK       I    between atoms: C2_2  and  N1_4 
REMARK    1  A    between atoms: C5_7  and  O2_8 
REMARK    2  A    between atoms: O2_8  and  C6_9 
REMARK    3  A    between atoms: C8_11  and  O3_12 
REMARK    4  A    between atoms: O3_12  and  C9_13 
REMARK    5  A    between atoms: C9_13  and  N2_14 
REMARK    6  A    between atoms: N2_14  and  C10_15 
ROOT
HETATM    1  C6  UNL     1      24.624   3.023  51.397  1.00  0.00     0.080 A 
HETATM    2  C7  UNL     1      23.475   2.349  51.029  1.00  0.00     0.074 A 
HETATM    3  C8  UNL     1      22.868   2.588  49.810  1.00  0.00     0.074 A 
HETATM    4  C16 UNL     1      23.443   3.520  48.972  1.00  0.00     0.046 A 
HETATM    5  C17 UNL     1      24.586   4.240  49.254  1.00  0.00    -0.022 A 
HETATM    6  C18 UNL     1      25.178   3.952  50.536  1.00  0.00     0.006 A 
HETATM    7  C19 UNL     1      25.825   4.966  49.654  1.00  0.00     0.152 A 
HETATM    8 CL1  UNL     1      27.335   4.459  48.821  1.00  0.00    -0.115 Cl
ENDROOT
BRANCH   3   9
HETATM    9  O3  UNL     1      21.715   1.888  49.481  1.00  0.00    -0.332 OA
BRANCH   9  10
HETATM   10  C9  UNL     1      20.570   2.115  50.282  1.00  0.00     0.298 C 
BRANCH  10  11
HETATM   11  N2  UNL     1      20.128   0.916  50.930  1.00  0.00    -0.368 N 
HETATM   12  H12 UNL     1      19.332   0.372  50.529  1.00  0.00     0.161 HD
BRANCH  11  13
HETATM   13  C10 UNL     1      20.721   0.419  52.102  1.00  0.00     0.029 A 
HETATM   14  C11 UNL     1      21.756  -0.522  52.089  1.00  0.00     0.032 A 
HETATM   15  C12 UNL     1      22.338  -1.011  53.257  1.00  0.00     0.044 A 
HETATM   16  C13 UNL     1      21.904  -0.574  54.484  1.00  0.00     0.116 A 
HETATM   17  F1  UNL     1      22.523  -1.098  55.555  1.00  0.00    -0.206 F 
HETATM   18  C14 UNL     1      20.885   0.356  54.556  1.00  0.00     0.044 A 
HETATM   19  C15 UNL     1      20.347   0.804  53.373  1.00  0.00     0.032 A 
ENDBRANCH  11  13
ENDBRANCH  10  11
ENDBRANCH   9  10
ENDBRANCH   3   9
BRANCH   1  20
HETATM   20  O2  UNL     1      25.288   2.826  52.620  1.00  0.00    -0.345 OA
BRANCH  20  21
HETATM   21  C5  UNL     1      26.178   1.773  52.845  1.00  0.00     0.132 C 
HETATM   22  C4  UNL     1      25.467   0.673  53.639  1.00  0.00     0.052 C 
HETATM   23  C3  UNL     1      26.285  -0.599  53.629  1.00  0.00     0.128 C 
HETATM   24  N1  UNL     1      27.689  -0.202  53.647  1.00  0.00    -0.352 N 
HETATM   25  C2  UNL     1      28.507  -1.319  53.408  1.00  0.00     0.215 C 
HETATM   26  C21 UNL     1      28.321   1.086  53.862  1.00  0.00     0.128 C 
HETATM   27  C1  UNL     1      29.956  -1.550  53.308  1.00  0.00     0.117 C 
HETATM   28  O1  UNL     1      27.780  -2.348  53.246  1.00  0.00    -0.274 OA
HETATM   29  C20 UNL     1      27.342   2.203  53.712  1.00  0.00     0.052 C 
ENDBRANCH  20  21
ENDBRANCH   1  20
TORSDOF 6
ENDMDL
MODEL 2
REMARK VINA RESULT:      -8.4      5.717      7.651
REMARK  6 active torsions:
REMARK  status: ('A' for Active; 'I' for Inactive)
REMARK       I    between atoms: C2_2  and  N1_4 
REMARK    1  A    between atoms: C5_7  and  O2_8 
REMARK    2  A    between atoms: O2_8  and  C6_9 
REMARK    3  A    between atoms: C8_11  and  O3_12 
REMARK    4  A    between atoms: O3_12  and  C9_13 
REMARK    5  A    between atoms: C9_13  and  N2_14 
REMARK    6  A    between atoms: N2_14  and  C10_15 
ROOT
HETATM    1  C6  UNL     1      28.849   6.631  47.861  1.00  0.00     0.080 A 
HETATM    2  C7  UNL     1      28.695   5.344  48.343  1.00  0.00     0.074 A 
HETATM    3  C8  UNL     1      27.453   4.867  48.718  1.00  0.00     0.074 A 
HETATM    4  C16 UNL     1      26.370   5.714  48.598  1.00  0.00     0.046 A 
HETATM    5  C17 UNL     1      26.428   7.010  48.129  1.00  0.00    -0.022 A 
HETATM    6  C18 UNL     1      27.745   7.457  47.751  1.00  0.00     0.006 A 
HETATM    7  C19 UNL     1      26.597   8.398  47.608  1.00  0.00     0.152 A 
HETATM    8 CL1  UNL     1      25.999   8.688  45.939  1.00  0.00    -0.115 Cl
ENDROOT
BRANCH   3   9
HETATM    9  O3  UNL     1      27.344   3.569  49.197  1.00  0.00    -0.332 OA
BRANCH   9  10
HETATM   10  C9  UNL     1      26.215   3.267  49.996  1.00  0.00     0.298 C 
BRANCH  10  11
HETATM   11  N2  UNL     1      26.535   3.269  51.392  1.00  0.00    -0.368 N 
HETATM   12  H12 UNL     1      26.373   4.128  51.962  1.00  0.00     0.161 HD
BRANCH  11  13
HETATM   13  C10 UNL     1      27.068   2.150  52.054  1.00  0.00     0.029 A 
HETATM   14  C11 UNL     1      26.607   0.848  51.837  1.00  0.00     0.032 A 
HETATM   15  C12 UNL     1      27.140  -0.256  52.499  1.00  0.00     0.044 A 
HETATM   16  C13 UNL     1      28.158  -0.095  53.406  1.00  0.00     0.116 A 
HETATM   17  F1  UNL     1      28.611  -1.214  53.996  1.00  0.00    -0.206 F 
HETATM   18  C14 UNL     1      28.653   1.169  53.659  1.00  0.00     0.044 A 
HETATM   19  C15 UNL     1      28.090   2.222  52.979  1.00  0.00     0.032 A 
ENDBRANCH  11  13
ENDBRANCH  10  11
ENDBRANCH   9  10
ENDBRANCH   3   9
BRANCH   1  20
HETATM   20  O2  UNL     1      30.082   7.174  47.464  1.00  0.00    -0.345 OA
BRANCH  20  21
HETATM   21  C5  UNL     1      31.234   6.405  47.284  1.00  0.00     0.132 C 
HETATM   22  C4  UNL     1      32.216   6.694  48.422  1.00  0.00     0.052 C 
HETATM   23  C3  UNL     1      33.323   5.664  48.440  1.00  0.00     0.128 C 
HETATM   24  N1  UNL     1      33.593   5.306  47.051  1.00  0.00    -0.352 N 
HETATM   25  C2  UNL     1      34.446   4.190  47.000  1.00  0.00     0.215 C 
HETATM   26  C21 UNL     1      33.141   5.890  45.803  1.00  0.00     0.128 C 
HETATM   27  C1  UNL     1      35.054   3.389  45.927  1.00  0.00     0.117 C 
HETATM   28  O1  UNL     1      34.732   3.823  48.182  1.00  0.00    -0.274 OA
HETATM   29  C20 UNL     1      31.967   6.786  46.016  1.00  0.00     0.052 C 
ENDBRANCH  20  21
ENDBRANCH   1  20
TORSDOF 6
ENDMDL
MODEL 3
REMARK VINA RESULT:      -8.3      5.002      7.844
REMARK  6 active torsions:
REMARK  status: ('A' for Active; 'I' for Inactive)
REMARK       I    between atoms: C2_2  and  N1_4 
REMARK    1  A    between atoms: C5_7  and  O2_8 
REMARK    2  A    between atoms: O2_8  and  C6_9 
REMARK    3  A    between atoms: C8_11  and  O3_12 
REMARK    4  A    between atoms: O3_12  and  C9_13 
REMARK    5  A    between atoms: C9_13  and  N2_14 
REMARK    6  A    between atoms: N2_14  and  C10_15 
ROOT
HETATM    1  C6  UNL     1      25.419   3.248  50.442  1.00  0.00     0.080 A 
HETATM    2  C7  UNL     1      26.665   3.434  49.873  1.00  0.00     0.074 A 
HETATM    3  C8  UNL     1      26.921   4.521  49.058  1.00  0.00     0.074 A 
HETATM    4  C16 UNL     1      25.896   5.415  48.827  1.00  0.00     0.046 A 
HETATM    5  C17 UNL     1      24.624   5.310  49.350  1.00  0.00    -0.022 A 
HETATM    6  C18 UNL     1      24.410   4.161  50.193  1.00  0.00     0.006 A 
HETATM    7  C19 UNL     1      23.280   5.107  49.965  1.00  0.00     0.152 A 
HETATM    8 CL1  UNL     1      22.865   6.205  51.325  1.00  0.00    -0.115 Cl
ENDROOT
BRANCH   3   9
HETATM    9  O3  UNL     1      28.187   4.669  48.508  1.00  0.00    -0.332 OA
BRANCH   9  10
HETATM   10  C9  UNL     1      28.629   5.988  48.246  1.00  0.00     0.298 C 
BRANCH  10  11
HETATM   11  N2  UNL     1      29.812   6.309  48.986  1.00  0.00    -0.368 N 
HETATM   12  H12 UNL     1      29.738   6.847  49.879  1.00  0.00     0.161 HD
BRANCH  11  13
HETATM   13  C10 UNL     1      31.099   5.932  48.570  1.00  0.00     0.029 A 
HETATM   14  C11 UNL     1      32.254   6.244  49.294  1.00  0.00     0.032 A 
HETATM   15  C12 UNL     1      33.527   5.866  48.873  1.00  0.00     0.044 A 
HETATM   16  C13 UNL     1      33.691   5.161  47.707  1.00  0.00     0.116 A 
HETATM   17  F1  UNL     1      34.953   4.839  47.379  1.00  0.00    -0.206 F 
HETATM   18  C14 UNL     1      32.585   4.825  46.951  1.00  0.00     0.044 A 
HETATM   19  C15 UNL     1      31.353   5.223  47.413  1.00  0.00     0.032 A 
ENDBRANCH  11  13
ENDBRANCH  10  11
ENDBRANCH   9  10
ENDBRANCH   3   9
BRANCH   1  20
HETATM   20  O2  UNL     1      25.095   2.166  51.277  1.00  0.00    -0.345 OA
BRANCH  20  21
HETATM   21  C5  UNL     1      26.055   1.331  51.853  1.00  0.00     0.132 C 
HETATM   22  C4  UNL     1      25.354   0.150  52.530  1.00  0.00     0.052 C 
HETATM   23  C3  UNL     1      26.356  -0.927  52.884  1.00  0.00     0.128 C 
HETATM   24  N1  UNL     1      27.595  -0.250  53.250  1.00  0.00    -0.352 N 
HETATM   25  C2  UNL     1      28.637  -1.187  53.369  1.00  0.00     0.215 C 
HETATM   26  C21 UNL     1      27.892   1.148  53.493  1.00  0.00     0.128 C 
HETATM   27  C1  UNL     1      30.068  -1.121  53.702  1.00  0.00     0.117 C 
HETATM   28  O1  UNL     1      28.189  -2.349  53.122  1.00  0.00    -0.274 OA
HETATM   29  C20 UNL     1      26.814   2.032  52.958  1.00  0.00     0.052 C 
ENDBRANCH  20  21
ENDBRANCH   1  20
TORSDOF 6
ENDMDL
MODEL 4
REMARK VINA RESULT:      -8.1      4.838      7.827
REMARK  6 active torsions:
REMARK  status: ('A' for Active; 'I' for Inactive)
REMARK       I    between atoms: C2_2  and  N1_4 
REMARK    1  A    between atoms: C5_7  and  O2_8 
REMARK    2  A    between atoms: O2_8  and  C6_9 
REMARK    3  A    between atoms: C8_11  and  O3_12 
REMARK    4  A    between atoms: O3_12  and  C9_13 
REMARK    5  A    between atoms: C9_13  and  N2_14 
REMARK    6  A    between atoms: N2_14  and  C10_15 
ROOT
HETATM    1  C6  UNL     1      25.388   3.319  50.601  1.00  0.00     0.080 A 
HETATM    2  C7  UNL     1      26.644   3.515  50.057  1.00  0.00     0.074 A 
HETATM    3  C8  UNL     1      26.882   4.540  49.161  1.00  0.00     0.074 A 
HETATM    4  C16 UNL     1      25.827   5.364  48.824  1.00  0.00     0.046 A 
HETATM    5  C17 UNL     1      24.543   5.245  49.314  1.00  0.00    -0.022 A 
HETATM    6  C18 UNL     1      24.350   4.161  50.244  1.00  0.00     0.006 A 
HETATM    7  C19 UNL     1      23.189   5.032  49.902  1.00  0.00     0.152 A 
HETATM    8 CL1  UNL     1      22.680   6.220  51.151  1.00  0.00    -0.115 Cl
ENDROOT
BRANCH   3   9
HETATM    9  O3  UNL     1      28.158   4.699  48.640  1.00  0.00    -0.332 OA
BRANCH   9  10
HETATM   10  C9  UNL     1      28.483   5.968  48.101  1.00  0.00     0.298 C 
BRANCH  10  11
HETATM   11  N2  UNL     1      29.426   6.667  48.921  1.00  0.00    -0.368 N 
HETATM   12  H12 UNL     1      30.081   6.132  49.534  1.00  0.00     0.161 HD
BRANCH  11  13
HETATM   13  C10 UNL     1      29.523   8.068  48.948  1.00  0.00     0.029 A 
HETATM   14  C11 UNL     1      30.745   8.744  49.016  1.00  0.00     0.032 A 
HETATM   15  C12 UNL     1      30.832  10.135  49.042  1.00  0.00     0.044 A 
HETATM   16  C13 UNL     1      29.695  10.902  49.001  1.00  0.00     0.116 A 
HETATM   17  F1  UNL     1      29.873  12.233  49.030  1.00  0.00    -0.206 F 
HETATM   18  C14 UNL     1      28.460  10.287  48.933  1.00  0.00     0.044 A 
HETATM   19  C15 UNL     1      28.432   8.913  48.910  1.00  0.00     0.032 A 
ENDBRANCH  11  13
ENDBRANCH  10  11
ENDBRANCH   9  10
ENDBRANCH   3   9
BRANCH   1  20
HETATM   20  O2  UNL     1      25.082   2.297  51.514  1.00  0.00    -0.345 OA
BRANCH  20  21
HETATM   21  C5  UNL     1      26.042   1.429  52.039  1.00  0.00     0.132 C 
HETATM   22  C4  UNL     1      25.342   0.200  52.627  1.00  0.00     0.052 C 
HETATM   23  C3  UNL     1      26.346  -0.893  52.914  1.00  0.00     0.128 C 
HETATM   24  N1  UNL     1      27.579  -0.238  53.337  1.00  0.00    -0.352 N 
HETATM   25  C2  UNL     1      28.625  -1.175  53.400  1.00  0.00     0.215 C 
HETATM   26  C21 UNL     1      27.866   1.142  53.679  1.00  0.00     0.128 C 
HETATM   27  C1  UNL     1      30.053  -1.126  53.748  1.00  0.00     0.117 C 
HETATM   28  O1  UNL     1      28.186  -2.320  53.069  1.00  0.00    -0.274 OA
HETATM   29  C20 UNL     1      26.788   2.055  53.197  1.00  0.00     0.052 C 
ENDBRANCH  20  21
ENDBRANCH   1  20
TORSDOF 6
ENDMDL
MODEL 5
REMARK VINA RESULT:      -8.0      3.724      5.960
REMARK  6 active torsions:
REMARK  status: ('A' for Active; 'I' for Inactive)
REMARK       I    between atoms: C2_2  and  N1_4 
REMARK    1  A    between atoms: C5_7  and  O2_8 
REMARK    2  A    between atoms: O2_8  and  C6_9 
REMARK    3  A    between atoms: C8_11  and  O3_12 
REMARK    4  A    between atoms: O3_12  and  C9_13 
REMARK    5  A    between atoms: C9_13  and  N2_14 
REMARK    6  A    between atoms: N2_14  and  C10_15 
ROOT
HETATM    1  C6  UNL     1      22.988   2.600  52.065  1.00  0.00     0.080 A 
HETATM    2  C7  UNL     1      23.126   3.976  52.056  1.00  0.00     0.074 A 
HETATM    3  C8  UNL     1      22.623   4.736  51.017  1.00  0.00     0.074 A 
HETATM    4  C16 UNL     1      21.978   4.081  49.988  1.00  0.00     0.046 A 
HETATM    5  C17 UNL     1      21.793   2.716  49.912  1.00  0.00    -0.022 A 
HETATM    6  C18 UNL     1      22.336   1.971  51.019  1.00  0.00     0.006 A 
HETATM    7  C19 UNL     1      21.646   1.232  49.924  1.00  0.00     0.152 A 
HETATM    8 CL1  UNL     1      19.999   0.610  50.288  1.00  0.00    -0.115 Cl
ENDROOT
BRANCH   3   9
HETATM    9  O3  UNL     1      22.784   6.114  51.049  1.00  0.00    -0.332 OA
BRANCH   9  10
HETATM   10  C9  UNL     1      24.094   6.608  51.262  1.00  0.00     0.298 C 
BRANCH  10  11
HETATM   11  N2  UNL     1      24.704   7.041  50.041  1.00  0.00    -0.368 N 
HETATM   12  H12 UNL     1      24.297   7.845  49.513  1.00  0.00     0.161 HD
BRANCH  11  13
HETATM   13  C10 UNL     1      25.848   6.432  49.500  1.00  0.00     0.029 A 
HETATM   14  C11 UNL     1      26.869   7.153  48.874  1.00  0.00     0.032 A 
HETATM   15  C12 UNL     1      28.001   6.541  48.340  1.00  0.00     0.044 A 
HETATM   16  C13 UNL     1      28.151   5.178  48.413  1.00  0.00     0.116 A 
HETATM   17  F1  UNL     1      29.272   4.674  47.872  1.00  0.00    -0.206 F 
HETATM   18  C14 UNL     1      27.173   4.415  49.020  1.00  0.00     0.044 A 
HETATM   19  C15 UNL     1      26.078   5.071  49.530  1.00  0.00     0.032 A 
ENDBRANCH  11  13
ENDBRANCH  10  11
ENDBRANCH   9  10
ENDBRANCH   3   9
BRANCH   1  20
HETATM   20  O2  UNL     1      23.477   1.772  53.089  1.00  0.00    -0.345 OA
BRANCH  20  21
HETATM   21  C5  UNL     1      24.810   1.365  53.171  1.00  0.00     0.132 C 
HETATM   22  C4  UNL     1      25.598   1.978  52.010  1.00  0.00     0.052 C 
HETATM   23  C3  UNL     1      27.084   1.824  52.239  1.00  0.00     0.128 C 
HETATM   24  N1  UNL     1      27.279   0.548  52.919  1.00  0.00    -0.352 N 
HETATM   25  C2  UNL     1      28.607   0.441  53.369  1.00  0.00     0.215 C 
HETATM   26  C21 UNL     1      26.369  -0.551  53.182  1.00  0.00     0.128 C 
HETATM   27  C1  UNL     1      29.385  -0.573  54.097  1.00  0.00     0.117 C 
HETATM   28  O1  UNL     1      29.247   1.490  53.049  1.00  0.00    -0.274 OA
HETATM   29  C20 UNL     1      24.948  -0.133  52.999  1.00  0.00     0.052 C 
ENDBRANCH  20  21
ENDBRANCH   1  20
TORSDOF 6
ENDMDL
MODEL 6
REMARK VINA RESULT:      -8.0      3.309      5.747
REMARK  6 active torsions:
REMARK  status: ('A' for Active; 'I' for Inactive)
REMARK       I    between atoms: C2_2  and  N1_4 
REMARK    1  A    between atoms: C5_7  and  O2_8 
REMARK    2  A    between atoms: O2_8  and  C6_9 
REMARK    3  A    between atoms: C8_11  and  O3_12 
REMARK    4  A    between atoms: O3_12  and  C9_13 
REMARK    5  A    between atoms: C9_13  and  N2_14 
REMARK    6  A    between atoms: N2_14  and  C10_15 
ROOT
HETATM    1  C6  UNL     1      23.865   2.110  52.578  1.00  0.00     0.080 A 
HETATM    2  C7  UNL     1      23.027   1.131  53.079  1.00  0.00     0.074 A 
HETATM    3  C8  UNL     1      23.507  -0.125  53.397  1.00  0.00     0.074 A 
HETATM    4  C16 UNL     1      24.850  -0.374  53.201  1.00  0.00     0.046 A 
HETATM    5  C17 UNL     1      25.760   0.538  52.708  1.00  0.00    -0.022 A 
HETATM    6  C18 UNL     1      25.207   1.831  52.392  1.00  0.00     0.006 A 
HETATM    7  C19 UNL     1      26.662   1.596  52.168  1.00  0.00     0.152 A 
HETATM    8 CL1  UNL     1      27.789   2.345  53.351  1.00  0.00    -0.115 Cl
ENDROOT
BRANCH   3   9
HETATM    9  O3  UNL     1      22.630  -1.078  53.896  1.00  0.00    -0.332 OA
BRANCH   9  10
HETATM   10  C9  UNL     1      21.531  -0.610  54.657  1.00  0.00     0.298 C 
BRANCH  10  11
HETATM   11  N2  UNL     1      20.345  -1.370  54.401  1.00  0.00    -0.368 N 
HETATM   12  H12 UNL     1      20.155  -2.239  54.948  1.00  0.00     0.161 HD
BRANCH  11  13
HETATM   13  C10 UNL     1      19.397  -1.002  53.432  1.00  0.00     0.029 A 
HETATM   14  C11 UNL     1      18.117  -1.562  53.370  1.00  0.00     0.032 A 
HETATM   15  C12 UNL     1      17.183  -1.191  52.404  1.00  0.00     0.044 A 
HETATM   16  C13 UNL     1      17.499  -0.244  51.462  1.00  0.00     0.116 A 
HETATM   17  F1  UNL     1      16.538   0.051  50.571  1.00  0.00    -0.206 F 
HETATM   18  C14 UNL     1      18.749   0.342  51.476  1.00  0.00     0.044 A 
HETATM   19  C15 UNL     1      19.631  -0.060  52.450  1.00  0.00     0.032 A 
ENDBRANCH  11  13
ENDBRANCH  10  11
ENDBRANCH   9  10
ENDBRANCH   3   9
BRANCH   1  20
HETATM   20  O2  UNL     1      23.438   3.403  52.235  1.00  0.00    -0.345 OA
BRANCH  20  21
HETATM   21  C5  UNL     1      24.184   4.264  51.427  1.00  0.00     0.132 C 
HETATM   22  C4  UNL     1      23.648   5.690  51.580  1.00  0.00     0.052 C 
HETATM   23  C3  UNL     1      24.614   6.686  50.978  1.00  0.00     0.128 C 
HETATM   24  N1  UNL     1      25.217   6.043  49.815  1.00  0.00    -0.352 N 
HETATM   25  C2  UNL     1      26.289   6.817  49.340  1.00  0.00     0.215 C 
HETATM   26  C21 UNL     1      24.896   4.808  49.125  1.00  0.00     0.128 C 
HETATM   27  C1  UNL     1      27.255   6.699  48.237  1.00  0.00     0.117 C 
HETATM   28  O1  UNL     1      26.417   7.852  50.065  1.00  0.00    -0.274 OA
HETATM   29  C20 UNL     1      24.020   3.933  49.959  1.00  0.00     0.052 C 
ENDBRANCH  20  21
ENDBRANCH   1  20
TORSDOF 6
ENDMDL
MODEL 7
REMARK VINA RESULT:      -8.0      3.055      6.342
REMARK  6 active torsions:
REMARK  status: ('A' for Active; 'I' for Inactive)
REMARK       I    between atoms: C2_2  and  N1_4 
REMARK    1  A    between atoms: C5_7  and  O2_8 
REMARK    2  A    between atoms: O2_8  and  C6_9 
REMARK    3  A    between atoms: C8_11  and  O3_12 
REMARK    4  A    between atoms: O3_12  and  C9_13 
REMARK    5  A    between atoms: C9_13  and  N2_14 
REMARK    6  A    between atoms: N2_14  and  C10_15 
ROOT
HETATM    1  C6  UNL     1      24.391   1.174  52.199  1.00  0.00     0.080 A 
HETATM    2  C7  UNL     1      23.472   0.451  52.937  1.00  0.00     0.074 A 
HETATM    3  C8  UNL     1      23.883  -0.448  53.903  1.00  0.00     0.074 A 
HETATM    4  C16 UNL     1      25.238  -0.604  54.110  1.00  0.00     0.046 A 
HETATM    5  C17 UNL     1      26.226   0.072  53.423  1.00  0.00    -0.022 A 
HETATM    6  C18 UNL     1      25.744   0.996  52.428  1.00  0.00     0.006 A 
HETATM    7  C19 UNL     1      27.215   0.853  52.625  1.00  0.00     0.152 A 
HETATM    8 CL1  UNL     1      28.043   2.190  53.494  1.00  0.00    -0.115 Cl
ENDROOT
BRANCH   3   9
HETATM    9  O3  UNL     1      22.926  -1.152  54.621  1.00  0.00    -0.332 OA
BRANCH   9  10
HETATM   10  C9  UNL     1      21.704  -0.490  54.893  1.00  0.00     0.298 C 
BRANCH  10  11
HETATM   11  N2  UNL     1      20.575  -1.256  54.459  1.00  0.00    -0.368 N 
HETATM   12  H12 UNL     1      20.343  -2.156  54.934  1.00  0.00     0.161 HD
BRANCH  11  13
HETATM   13  C10 UNL     1      19.742  -0.854  53.402  1.00  0.00     0.029 A 
HETATM   14  C11 UNL     1      20.186  -0.052  52.346  1.00  0.00     0.032 A 
HETATM   15  C12 UNL     1      19.352   0.342  51.302  1.00  0.00     0.044 A 
HETATM   16  C13 UNL     1      18.038  -0.052  51.278  1.00  0.00     0.116 A 
HETATM   17  F1  UNL     1      17.308   0.375  50.234  1.00  0.00    -0.206 F 
HETATM   18  C14 UNL     1      17.544  -0.844  52.296  1.00  0.00     0.044 A 
HETATM   19  C15 UNL     1      18.411  -1.204  53.300  1.00  0.00     0.032 A 
ENDBRANCH  11  13
ENDBRANCH  10  11
ENDBRANCH   9  10
ENDBRANCH   3   9
BRANCH   1  20
HETATM   20  O2  UNL     1      24.039   2.100  51.204  1.00  0.00    -0.345 OA
BRANCH  20  21
HETATM   21  C5  UNL     1      22.728   2.534  50.992  1.00  0.00     0.132 C 
HETATM   22  C4  UNL     1      22.562   2.942  49.526  1.00  0.00     0.052 C 
HETATM   23  C3  UNL     1      21.099   3.112  49.186  1.00  0.00     0.128 C 
HETATM   24  N1  UNL     1      20.446   3.646  50.376  1.00  0.00    -0.352 N 
HETATM   25  C2  UNL     1      19.050   3.614  50.213  1.00  0.00     0.215 C 
HETATM   26  C21 UNL     1      20.986   4.168  51.617  1.00  0.00     0.128 C 
HETATM   27  C1  UNL     1      17.893   4.001  51.035  1.00  0.00     0.117 C 
HETATM   28  O1  UNL     1      18.769   3.128  49.074  1.00  0.00    -0.274 OA
HETATM   29  C20 UNL     1      22.416   3.781  51.791  1.00  0.00     0.052 C 
ENDBRANCH  20  21
ENDBRANCH   1  20
TORSDOF 6
ENDMDL
MODEL 8
REMARK VINA RESULT:      -8.0      3.851      8.423
REMARK  6 active torsions:
REMARK  status: ('A' for Active; 'I' for Inactive)
REMARK       I    between atoms: C2_2  and  N1_4 
REMARK    1  A    between atoms: C5_7  and  O2_8 
REMARK    2  A    between atoms: O2_8  and  C6_9 
REMARK    3  A    between atoms: C8_11  and  O3_12 
REMARK    4  A    between atoms: O3_12  and  C9_13 
REMARK    5  A    between atoms: C9_13  and  N2_14 
REMARK    6  A    between atoms: N2_14  and  C10_15 
ROOT
HETATM    1  C6  UNL     1      21.009   0.656  51.629  1.00  0.00     0.080 A 
HETATM    2  C7  UNL     1      22.041   1.283  50.956  1.00  0.00     0.074 A 
HETATM    3  C8  UNL     1      23.252   1.527  51.576  1.00  0.00     0.074 A 
HETATM    4  C16 UNL     1      23.401   1.126  52.888  1.00  0.00     0.046 A 
HETATM    5  C17 UNL     1      22.430   0.496  53.638  1.00  0.00    -0.022 A 
HETATM    6  C18 UNL     1      21.188   0.266  52.944  1.00  0.00     0.006 A 
HETATM    7  C19 UNL     1      21.315  -0.180  54.361  1.00  0.00     0.152 A 
HETATM    8 CL1  UNL     1      21.512  -1.946  54.634  1.00  0.00    -0.115 Cl
ENDROOT
BRANCH   3   9
HETATM    9  O3  UNL     1      24.261   2.159  50.862  1.00  0.00    -0.332 OA
BRANCH   9  10
HETATM   10  C9  UNL     1      25.038   3.120  51.554  1.00  0.00     0.298 C 
BRANCH  10  11
HETATM   11  N2  UNL     1      26.441   2.868  51.416  1.00  0.00    -0.368 N 
HETATM   12  H12 UNL     1      26.994   3.384  50.696  1.00  0.00     0.161 HD
BRANCH  11  13
HETATM   13  C10 UNL     1      27.132   1.945  52.217  1.00  0.00     0.029 A 
HETATM   14  C11 UNL     1      28.097   2.325  53.156  1.00  0.00     0.032 A 
HETATM   15  C12 UNL     1      28.779   1.402  53.946  1.00  0.00     0.044 A 
HETATM   16  C13 UNL     1      28.519   0.060  53.824  1.00  0.00     0.116 A 
HETATM   17  F1  UNL     1      29.223  -0.757  54.626  1.00  0.00    -0.206 F 
HETATM   18  C14 UNL     1      27.575  -0.373  52.913  1.00  0.00     0.044 A 
HETATM   19  C15 UNL     1      26.933   0.580  52.160  1.00  0.00     0.032 A 
ENDBRANCH  11  13
ENDBRANCH  10  11
ENDBRANCH   9  10
ENDBRANCH   3   9
BRANCH   1  20
HETATM   20  O2  UNL     1      19.756   0.381  51.057  1.00  0.00    -0.345 OA
BRANCH  20  21
HETATM   21  C5  UNL     1      18.582   1.034  51.438  1.00  0.00     0.132 C 
HETATM   22  C4  UNL     1      17.376   0.259  50.900  1.00  0.00     0.052 C 
HETATM   23  C3  UNL     1      16.101   0.748  51.549  1.00  0.00     0.128 C 
HETATM   24  N1  UNL     1      16.258   2.182  51.768  1.00  0.00    -0.352 N 
HETATM   25  C2  UNL     1      15.210   2.662  52.573  1.00  0.00     0.215 C 
HETATM   26  C21 UNL     1      17.265   3.120  51.310  1.00  0.00     0.128 C 
HETATM   27  C1  UNL     1      14.831   3.973  53.121  1.00  0.00     0.117 C 
HETATM   28  O1  UNL     1      14.434   1.703  52.872  1.00  0.00    -0.274 OA
HETATM   29  C20 UNL     1      18.481   2.411  50.816  1.00  0.00     0.052 C 
ENDBRANCH  20  21
ENDBRANCH   1  20
TORSDOF 6
ENDMDL
MODEL 9
REMARK VINA RESULT:      -8.0      3.016      5.691
REMARK  6 active torsions:
REMARK  status: ('A' for Active; 'I' for Inactive)
REMARK       I    between atoms: C2_2  and  N1_4 
REMARK    1  A    between atoms: C5_7  and  O2_8 
REMARK    2  A    between atoms: O2_8  and  C6_9 
REMARK    3  A    between atoms: C8_11  and  O3_12 
REMARK    4  A    between atoms: O3_12  and  C9_13 
REMARK    5  A    between atoms: C9_13  and  N2_14 
REMARK    6  A    between atoms: N2_14  and  C10_15 
ROOT
HETATM    1  C6  UNL     1      22.056   2.816  51.270  1.00  0.00     0.080 A 
HETATM    2  C7  UNL     1      22.015   1.918  52.319  1.00  0.00     0.074 A 
HETATM    3  C8  UNL     1      21.577   0.621  52.131  1.00  0.00     0.074 A 
HETATM    4  C16 UNL     1      21.180   0.248  50.863  1.00  0.00     0.046 A 
HETATM    5  C17 UNL     1      21.186   1.074  49.758  1.00  0.00    -0.022 A 
HETATM    6  C18 UNL     1      21.652   2.414  50.009  1.00  0.00     0.006 A 
HETATM    7  C19 UNL     1      21.230   2.045  48.627  1.00  0.00     0.152 A 
HETATM    8 CL1  UNL     1      22.544   1.792  47.427  1.00  0.00    -0.115 Cl
ENDROOT
BRANCH   3   9
HETATM    9  O3  UNL     1      21.552  -0.248  53.213  1.00  0.00    -0.332 OA
BRANCH   9  10
HETATM   10  C9  UNL     1      22.624  -0.163  54.135  1.00  0.00     0.298 C 
BRANCH  10  11
HETATM   11  N2  UNL     1      23.774  -0.885  53.681  1.00  0.00    -0.368 N 
HETATM   12  H12 UNL     1      23.691  -1.898  53.440  1.00  0.00     0.161 HD
BRANCH  11  13
HETATM   13  C10 UNL     1      25.039  -0.292  53.538  1.00  0.00     0.029 A 
HETATM   14  C11 UNL     1      25.491   0.253  52.331  1.00  0.00     0.032 A 
HETATM   15  C12 UNL     1      26.748   0.839  52.197  1.00  0.00     0.044 A 
HETATM   16  C13 UNL     1      27.602   0.899  53.270  1.00  0.00     0.116 A 
HETATM   17  F1  UNL     1      28.793   1.481  53.050  1.00  0.00    -0.206 F 
HETATM   18  C14 UNL     1      27.209   0.376  54.486  1.00  0.00     0.044 A 
HETATM   19  C15 UNL     1      25.958  -0.190  54.562  1.00  0.00     0.032 A 
ENDBRANCH  11  13
ENDBRANCH  10  11
ENDBRANCH   9  10
ENDBRANCH   3   9
BRANCH   1  20
HETATM   20  O2  UNL     1      22.490   4.146  51.395  1.00  0.00    -0.345 OA
BRANCH  20  21
HETATM   21  C5  UNL     1      23.610   4.651  50.730  1.00  0.00     0.132 C 
HETATM   22  C4  UNL     1      24.834   3.806  51.091  1.00  0.00     0.052 C 
HETATM   23  C3  UNL     1      25.985   4.117  50.160  1.00  0.00     0.128 C 
HETATM   24  N1  UNL     1      25.901   5.538  49.841  1.00  0.00    -0.352 N 
HETATM   25  C2  UNL     1      26.796   5.851  48.803  1.00  0.00     0.215 C 
HETATM   26  C21 UNL     1      25.086   6.602  50.396  1.00  0.00     0.128 C 
HETATM   27  C1  UNL     1      27.157   7.073  48.068  1.00  0.00     0.117 C 
HETATM   28  O1  UNL     1      27.416   4.801  48.450  1.00  0.00    -0.274 OA
HETATM   29  C20 UNL     1      23.944   6.055  51.186  1.00  0.00     0.052 C 
ENDBRANCH  20  21
ENDBRANCH   1  20
TORSDOF 6
ENDMDL
