MODEL 1
REMARK VINA RESULT:      -9.8      0.000      0.000
REMARK  2 active torsions:
REMARK  status: ('A' for Active; 'I' for Inactive)
REMARK    1  A    between atoms: C2_2  and  C3_4 
REMARK    2  A    between atoms: C8_10  and  C10_12 
ROOT
HETATM    1  C3  UNL     1      21.414   3.443  47.840  1.00  0.00     0.040 C 
HETATM    2  C4  UNL     1      21.301   4.502  47.016  1.00  0.00     0.007 C 
HETATM    3  C5  UNL     1      22.479   5.311  47.420  1.00  0.00     0.025 C 
HETATM    4  C6  UNL     1      23.000   6.472  47.057  1.00  0.00     0.025 C 
HETATM    5  C7  UNL     1      24.193   6.593  47.925  1.00  0.00     0.175 C 
HETATM    6  O1  UNL     1      24.386   5.506  48.783  1.00  0.00    -0.374 OA
HETATM    7  C8  UNL     1      25.493   5.715  49.608  1.00  0.00     0.100 C 
HETATM    8  C9  UNL     1      25.348   6.886  50.525  1.00  0.00     0.052 C 
HETATM    9  C12 UNL     1      25.779   4.455  50.376  1.00  0.00     0.315 C 
HETATM   10  N1  UNL     1      24.621   4.064  51.124  1.00  0.00     0.120 N 
HETATM   11  C13 UNL     1      24.798   2.968  52.010  1.00  0.00     0.400 C 
HETATM   12  O2  UNL     1      25.431   1.892  51.273  1.00  0.00    -0.286 OA
HETATM   13  C14 UNL     1      25.952   0.771  51.956  1.00  0.00     0.227 C 
HETATM   14  F2  UNL     1      26.980   1.049  51.143  1.00  0.00    -0.178 F 
HETATM   15  C15 UNL     1      26.051  -0.276  52.808  1.00  0.00     0.069 C 
HETATM   16  C16 UNL     1      25.138  -0.832  53.792  1.00  0.00     0.006 C 
HETATM   17  C17 UNL     1      23.952  -0.818  54.411  1.00  0.00     0.011 C 
HETATM   18  C18 UNL     1      23.225   0.274  53.805  1.00  0.00    -0.035 A 
HETATM   19  C19 UNL     1      21.839   0.375  53.661  1.00  0.00     0.014 A 
HETATM   20  C20 UNL     1      21.310   1.417  52.931  1.00  0.00     0.033 A 
HETATM   21  C21 UNL     1      22.061   2.380  52.321  1.00  0.00     0.068 A 
HETATM   22  C22 UNL     1      23.428   2.444  52.354  1.00  0.00     0.030 A 
HETATM   23  C23 UNL     1      23.668   1.353  53.107  1.00  0.00     0.025 A 
HETATM   24  N2  UNL     1      21.825   3.501  51.512  1.00  0.00    -0.243 NA
HETATM   25  C24 UNL     1      22.019   3.381  50.216  1.00  0.00     0.208 C 
HETATM   26  N3  UNL     1      22.279   3.059  48.876  1.00  0.00    -0.352 N 
HETATM   27  H18 UNL     1      24.167   4.859  51.595  1.00  0.00     0.319 HD
HETATM   28  H27 UNL     1      23.153   2.564  49.072  1.00  0.00     0.166 HD
ENDROOT
BRANCH   1  29
HETATM   29  C2  UNL     1      20.572   2.234  47.984  1.00  0.00     0.215 C 
HETATM   30  C1  UNL     1      19.379   2.377  48.862  1.00  0.00     0.051 C 
HETATM   31  F1  UNL     1      21.303   1.118  48.367  1.00  0.00    -0.243 F 
ENDBRANCH   1  29
BRANCH   7  32
HETATM   32  C10 UNL     1      26.728   5.936  48.757  1.00  0.00     0.002 C 
HETATM   33  C11 UNL     1      27.970   5.767  48.321  1.00  0.00     0.010 C 
ENDBRANCH   7  32
TORSDOF 2
ENDMDL
MODEL 2
REMARK VINA RESULT:      -8.9      1.956      7.566
REMARK  2 active torsions:
REMARK  status: ('A' for Active; 'I' for Inactive)
REMARK    1  A    between atoms: C2_2  and  C3_4 
REMARK    2  A    between atoms: C8_10  and  C10_12 
ROOT
HETATM    1  C3  UNL     1      26.197   0.242  53.291  1.00  0.00     0.040 C 
HETATM    2  C4  UNL     1      26.271  -0.475  54.429  1.00  0.00     0.007 C 
HETATM    3  C5  UNL     1      24.833  -0.674  54.739  1.00  0.00     0.025 C 
HETATM    4  C6  UNL     1      24.145  -1.270  55.700  1.00  0.00     0.025 C 
HETATM    5  C7  UNL     1      22.739  -1.041  55.300  1.00  0.00     0.175 C 
HETATM    6  O1  UNL     1      22.593  -0.331  54.105  1.00  0.00    -0.374 OA
HETATM    7  C8  UNL     1      21.246  -0.105  53.822  1.00  0.00     0.100 C 
HETATM    8  C9  UNL     1      20.550   0.742  54.839  1.00  0.00     0.052 C 
HETATM    9  C12 UNL     1      21.125   0.488  52.446  1.00  0.00     0.315 C 
HETATM   10  N1  UNL     1      21.897   1.693  52.362  1.00  0.00     0.120 N 
HETATM   11  C13 UNL     1      21.758   2.435  51.160  1.00  0.00     0.400 C 
HETATM   12  O2  UNL     1      21.937   1.525  50.046  1.00  0.00    -0.286 OA
HETATM   13  C14 UNL     1      21.609   1.932  48.733  1.00  0.00     0.227 C 
HETATM   14  F2  UNL     1      21.012   0.733  48.763  1.00  0.00    -0.178 F 
HETATM   15  C15 UNL     1      21.531   2.679  47.607  1.00  0.00     0.069 C 
HETATM   16  C16 UNL     1      22.058   3.986  47.256  1.00  0.00     0.006 C 
HETATM   17  C17 UNL     1      22.766   5.075  47.578  1.00  0.00     0.011 C 
HETATM   18  C18 UNL     1      23.241   4.831  48.921  1.00  0.00    -0.035 A 
HETATM   19  C19 UNL     1      24.414   5.329  49.494  1.00  0.00     0.014 A 
HETATM   20  C20 UNL     1      24.797   4.886  50.741  1.00  0.00     0.033 A 
HETATM   21  C21 UNL     1      24.097   3.972  51.475  1.00  0.00     0.068 A 
HETATM   22  C22 UNL     1      22.928   3.379  51.077  1.00  0.00     0.030 A 
HETATM   23  C23 UNL     1      22.793   3.975  49.877  1.00  0.00     0.025 A 
HETATM   24  N2  UNL     1      24.244   3.324  52.709  1.00  0.00    -0.243 NA
HETATM   25  C24 UNL     1      24.688   2.085  52.709  1.00  0.00     0.208 C 
HETATM   26  N3  UNL     1      25.169   0.784  52.505  1.00  0.00    -0.352 N 
HETATM   27  H18 UNL     1      21.786   2.293  53.191  1.00  0.00     0.319 HD
HETATM   28  H27 UNL     1      24.537   0.577  51.727  1.00  0.00     0.166 HD
ENDROOT
BRANCH   1  29
HETATM   29  C2  UNL     1      27.262   0.789  52.421  1.00  0.00     0.215 C 
HETATM   30  C1  UNL     1      28.036   1.928  52.984  1.00  0.00     0.051 C 
HETATM   31  F1  UNL     1      26.800   1.120  51.155  1.00  0.00    -0.243 F 
ENDBRANCH   1  29
BRANCH   7  32
HETATM   32  C10 UNL     1      20.514  -1.429  53.735  1.00  0.00     0.002 C 
HETATM   33  C11 UNL     1      19.497  -2.282  53.786  1.00  0.00     0.010 C 
ENDBRANCH   7  32
TORSDOF 2
ENDMDL
MODEL 3
REMARK VINA RESULT:      -8.8      2.002      6.241
REMARK  2 active torsions:
REMARK  status: ('A' for Active; 'I' for Inactive)
REMARK    1  A    between atoms: C2_2  and  C3_4 
REMARK    2  A    between atoms: C8_10  and  C10_12 
ROOT
HETATM    1  C3  UNL     1      21.151   0.896  53.119  1.00  0.00     0.040 C 
HETATM    2  C4  UNL     1      21.444  -0.091  53.988  1.00  0.00     0.007 C 
HETATM    3  C5  UNL     1      22.925  -0.125  53.899  1.00  0.00     0.025 C 
HETATM    4  C6  UNL     1      23.891  -0.840  54.455  1.00  0.00     0.025 C 
HETATM    5  C7  UNL     1      25.119  -0.268  53.860  1.00  0.00     0.175 C 
HETATM    6  O1  UNL     1      24.886   0.787  52.973  1.00  0.00    -0.374 OA
HETATM    7  C8  UNL     1      26.081   1.236  52.411  1.00  0.00     0.100 C 
HETATM    8  C9  UNL     1      26.782   0.208  51.583  1.00  0.00     0.052 C 
HETATM    9  C12 UNL     1      25.813   2.484  51.617  1.00  0.00     0.315 C 
HETATM   10  N1  UNL     1      24.817   2.225  50.618  1.00  0.00     0.120 N 
HETATM   11  C13 UNL     1      24.571   3.280  49.701  1.00  0.00     0.400 C 
HETATM   12  O2  UNL     1      24.361   4.496  50.460  1.00  0.00    -0.286 OA
HETATM   13  C14 UNL     1      24.340   5.749  49.808  1.00  0.00     0.227 C 
HETATM   14  F2  UNL     1      25.155   6.032  50.833  1.00  0.00    -0.178 F 
HETATM   15  C15 UNL     1      24.049   6.719  48.910  1.00  0.00     0.069 C 
HETATM   16  C16 UNL     1      23.217   6.740  47.719  1.00  0.00     0.006 C 
HETATM   17  C17 UNL     1      22.386   6.117  46.875  1.00  0.00     0.011 C 
HETATM   18  C18 UNL     1      22.239   4.783  47.408  1.00  0.00    -0.035 A 
HETATM   19  C19 UNL     1      21.126   3.949  47.275  1.00  0.00     0.014 A 
HETATM   20  C20 UNL     1      21.088   2.757  47.965  1.00  0.00     0.033 A 
HETATM   21  C21 UNL     1      22.083   2.322  48.792  1.00  0.00     0.068 A 
HETATM   22  C22 UNL     1      23.245   3.002  49.043  1.00  0.00     0.030 A 
HETATM   23  C23 UNL     1      23.024   4.081  48.267  1.00  0.00     0.025 A 
HETATM   24  N2  UNL     1      22.310   1.217  49.625  1.00  0.00    -0.243 NA
HETATM   25  C24 UNL     1      22.126   1.370  50.919  1.00  0.00     0.208 C 
HETATM   26  N3  UNL     1      21.880   1.726  52.253  1.00  0.00    -0.352 N 
HETATM   27  H18 UNL     1      24.968   1.330  50.132  1.00  0.00     0.319 HD
HETATM   28  H27 UNL     1      22.376   2.620  52.199  1.00  0.00     0.166 HD
ENDROOT
BRANCH   1  29
HETATM   29  C2  UNL     1      19.851   1.471  52.708  1.00  0.00     0.215 C 
HETATM   30  C1  UNL     1      19.082   0.683  51.707  1.00  0.00     0.051 C 
HETATM   31  F1  UNL     1      19.960   2.788  52.282  1.00  0.00    -0.243 F 
ENDBRANCH   1  29
BRANCH   7  32
HETATM   32  C10 UNL     1      27.028   1.677  53.510  1.00  0.00     0.002 C 
HETATM   33  C11 UNL     1      28.153   2.104  54.070  1.00  0.00     0.010 C 
ENDBRANCH   7  32
TORSDOF 2
ENDMDL
MODEL 4
REMARK VINA RESULT:      -8.7      7.293     11.084
REMARK  2 active torsions:
REMARK  status: ('A' for Active; 'I' for Inactive)
REMARK    1  A    between atoms: C2_2  and  C3_4 
REMARK    2  A    between atoms: C8_10  and  C10_12 
ROOT
HETATM    1  C3  UNL     1      33.214   7.595  43.868  1.00  0.00     0.040 C 
HETATM    2  C4  UNL     1      34.228   6.923  43.288  1.00  0.00     0.007 C 
HETATM    3  C5  UNL     1      34.294   5.708  44.139  1.00  0.00     0.025 C 
HETATM    4  C6  UNL     1      35.043   4.618  44.177  1.00  0.00     0.025 C 
HETATM    5  C7  UNL     1      34.485   3.865  45.322  1.00  0.00     0.175 C 
HETATM    6  O1  UNL     1      33.404   4.494  45.947  1.00  0.00    -0.374 OA
HETATM    7  C8  UNL     1      32.969   3.755  47.048  1.00  0.00     0.100 C 
HETATM    8  C9  UNL     1      33.993   3.624  48.129  1.00  0.00     0.052 C 
HETATM    9  C12 UNL     1      31.697   4.360  47.574  1.00  0.00     0.315 C 
HETATM   10  N1  UNL     1      31.910   5.738  47.906  1.00  0.00     0.120 N 
HETATM   11  C13 UNL     1      30.829   6.394  48.550  1.00  0.00     0.400 C 
HETATM   12  O2  UNL     1      29.626   6.138  47.783  1.00  0.00    -0.286 OA
HETATM   13  C14 UNL     1      28.358   6.458  48.317  1.00  0.00     0.227 C 
HETATM   14  F2  UNL     1      28.118   5.219  47.868  1.00  0.00    -0.178 F 
HETATM   15  C15 UNL     1      27.361   7.144  48.922  1.00  0.00     0.069 C 
HETATM   16  C16 UNL     1      27.294   8.475  49.501  1.00  0.00     0.006 C 
HETATM   17  C17 UNL     1      27.877   9.644  49.791  1.00  0.00     0.011 C 
HETATM   18  C18 UNL     1      29.220   9.532  49.271  1.00  0.00    -0.035 A 
HETATM   19  C19 UNL     1      30.025  10.576  48.809  1.00  0.00     0.014 A 
HETATM   20  C20 UNL     1      31.232  10.285  48.210  1.00  0.00     0.033 A 
HETATM   21  C21 UNL     1      31.709   9.019  48.031  1.00  0.00     0.068 A 
HETATM   22  C22 UNL     1      31.061   7.876  48.419  1.00  0.00     0.030 A 
HETATM   23  C23 UNL     1      29.959   8.436  48.955  1.00  0.00     0.025 A 
HETATM   24  N2  UNL     1      32.837   8.425  47.449  1.00  0.00    -0.243 NA
HETATM   25  C24 UNL     1      32.712   7.900  46.248  1.00  0.00     0.208 C 
HETATM   26  N3  UNL     1      32.381   7.401  44.980  1.00  0.00    -0.352 N 
HETATM   27  H18 UNL     1      32.797   5.892  48.406  1.00  0.00     0.319 HD
HETATM   28  H27 UNL     1      31.498   6.979  45.278  1.00  0.00     0.166 HD
ENDROOT
BRANCH   1  29
HETATM   29  C2  UNL     1      32.601   8.900  43.532  1.00  0.00     0.215 C 
HETATM   30  C1  UNL     1      31.998   9.002  42.176  1.00  0.00     0.051 C 
HETATM   31  F1  UNL     1      33.465   9.965  43.741  1.00  0.00    -0.243 F 
ENDBRANCH   1  29
BRANCH   7  32
HETATM   32  C10 UNL     1      32.575   2.360  46.603  1.00  0.00     0.002 C 
HETATM   33  C11 UNL     1      32.148   1.108  46.708  1.00  0.00     0.010 C 
ENDBRANCH   7  32
TORSDOF 2
ENDMDL
MODEL 5
REMARK VINA RESULT:      -8.7      1.851      2.459
REMARK  2 active torsions:
REMARK  status: ('A' for Active; 'I' for Inactive)
REMARK    1  A    between atoms: C2_2  and  C3_4 
REMARK    2  A    between atoms: C8_10  and  C10_12 
ROOT
HETATM    1  C3  UNL     1      21.698   5.495  46.590  1.00  0.00     0.040 C 
HETATM    2  C4  UNL     1      22.122   6.505  45.806  1.00  0.00     0.007 C 
HETATM    3  C5  UNL     1      23.359   6.921  46.513  1.00  0.00     0.025 C 
HETATM    4  C6  UNL     1      24.287   7.848  46.333  1.00  0.00     0.025 C 
HETATM    5  C7  UNL     1      25.212   7.623  47.466  1.00  0.00     0.175 C 
HETATM    6  O1  UNL     1      24.846   6.563  48.301  1.00  0.00    -0.374 OA
HETATM    7  C8  UNL     1      25.730   6.448  49.374  1.00  0.00     0.100 C 
HETATM    8  C9  UNL     1      25.741   7.639  50.277  1.00  0.00     0.052 C 
HETATM    9  C12 UNL     1      25.417   5.190  50.136  1.00  0.00     0.315 C 
HETATM   10  N1  UNL     1      24.051   5.207  50.569  1.00  0.00     0.120 N 
HETATM   11  C13 UNL     1      23.660   4.144  51.426  1.00  0.00     0.400 C 
HETATM   12  O2  UNL     1      24.085   2.898  50.819  1.00  0.00    -0.286 OA
HETATM   13  C14 UNL     1      24.051   1.697  51.561  1.00  0.00     0.227 C 
HETATM   14  F2  UNL     1      25.278   1.611  51.030  1.00  0.00    -0.178 F 
HETATM   15  C15 UNL     1      23.612   0.704  52.369  1.00  0.00     0.069 C 
HETATM   16  C16 UNL     1      22.363   0.496  53.081  1.00  0.00     0.006 C 
HETATM   17  C17 UNL     1      21.128   0.903  53.398  1.00  0.00     0.011 C 
HETATM   18  C18 UNL     1      20.944   2.143  52.680  1.00  0.00    -0.035 A 
HETATM   19  C19 UNL     1      19.736   2.665  52.213  1.00  0.00     0.014 A 
HETATM   20  C20 UNL     1      19.749   3.792  51.420  1.00  0.00     0.033 A 
HETATM   21  C21 UNL     1      20.886   4.450  51.048  1.00  0.00     0.068 A 
HETATM   22  C22 UNL     1      22.155   4.087  51.410  1.00  0.00     0.030 A 
HETATM   23  C23 UNL     1      21.855   3.004  52.154  1.00  0.00     0.025 A 
HETATM   24  N2  UNL     1      21.211   5.558  50.252  1.00  0.00    -0.243 NA
HETATM   25  C24 UNL     1      21.664   5.336  49.036  1.00  0.00     0.208 C 
HETATM   26  N3  UNL     1      22.125   4.899  47.786  1.00  0.00    -0.352 N 
HETATM   27  H18 UNL     1      23.767   6.121  50.949  1.00  0.00     0.319 HD
HETATM   28  H27 UNL     1      22.728   4.164  48.166  1.00  0.00     0.166 HD
ENDROOT
BRANCH   1  29
HETATM   29  C2  UNL     1      20.514   4.614  46.478  1.00  0.00     0.215 C 
HETATM   30  C1  UNL     1      20.370   3.883  45.191  1.00  0.00     0.051 C 
HETATM   31  F1  UNL     1      19.329   5.273  46.776  1.00  0.00    -0.243 F 
ENDBRANCH   1  29
BRANCH   7  32
HETATM   32  C10 UNL     1      27.139   6.241  48.854  1.00  0.00     0.002 C 
HETATM   33  C11 UNL     1      28.186   5.596  48.355  1.00  0.00     0.010 C 
ENDBRANCH   7  32
TORSDOF 2
ENDMDL
MODEL 6
REMARK VINA RESULT:      -8.6      3.181      7.818
REMARK  2 active torsions:
REMARK  status: ('A' for Active; 'I' for Inactive)
REMARK    1  A    between atoms: C2_2  and  C3_4 
REMARK    2  A    between atoms: C8_10  and  C10_12 
ROOT
HETATM    1  C3  UNL     1      21.081  -0.443  53.549  1.00  0.00     0.040 C 
HETATM    2  C4  UNL     1      20.269  -1.337  54.147  1.00  0.00     0.007 C 
HETATM    3  C5  UNL     1      19.021  -1.164  53.361  1.00  0.00     0.025 C 
HETATM    4  C6  UNL     1      17.808  -1.693  53.382  1.00  0.00     0.025 C 
HETATM    5  C7  UNL     1      17.120  -1.004  52.269  1.00  0.00     0.175 C 
HETATM    6  O1  UNL     1      17.921  -0.085  51.583  1.00  0.00    -0.374 OA
HETATM    7  C8  UNL     1      17.191   0.565  50.587  1.00  0.00     0.100 C 
HETATM    8  C9  UNL     1      16.057   1.386  51.110  1.00  0.00     0.052 C 
HETATM    9  C12 UNL     1      18.127   1.397  49.755  1.00  0.00     0.315 C 
HETATM   10  N1  UNL     1      18.833   2.323  50.591  1.00  0.00     0.120 N 
HETATM   11  C13 UNL     1      19.646   3.271  49.915  1.00  0.00     0.400 C 
HETATM   12  O2  UNL     1      20.479   2.555  48.969  1.00  0.00    -0.286 OA
HETATM   13  C14 UNL     1      21.209   3.260  47.986  1.00  0.00     0.227 C 
HETATM   14  F2  UNL     1      20.665   2.298  47.230  1.00  0.00    -0.178 F 
HETATM   15  C15 UNL     1      22.011   4.181  47.404  1.00  0.00     0.069 C 
HETATM   16  C16 UNL     1      22.742   5.321  47.930  1.00  0.00     0.006 C 
HETATM   17  C17 UNL     1      23.106   6.087  48.965  1.00  0.00     0.011 C 
HETATM   18  C18 UNL     1      22.474   5.488  50.117  1.00  0.00    -0.035 A 
HETATM   19  C19 UNL     1      22.938   5.519  51.434  1.00  0.00     0.014 A 
HETATM   20  C20 UNL     1      22.291   4.775  52.397  1.00  0.00     0.033 A 
HETATM   21  C21 UNL     1      21.202   3.990  52.150  1.00  0.00     0.068 A 
HETATM   22  C22 UNL     1      20.609   3.837  50.925  1.00  0.00     0.030 A 
HETATM   23  C23 UNL     1      21.411   4.646  50.205  1.00  0.00     0.025 A 
HETATM   24  N2  UNL     1      20.380   3.123  52.883  1.00  0.00    -0.243 NA
HETATM   25  C24 UNL     1      20.587   1.828  52.769  1.00  0.00     0.208 C 
HETATM   26  N3  UNL     1      20.958   0.500  52.518  1.00  0.00    -0.352 N 
HETATM   27  H18 UNL     1      18.222   2.777  51.284  1.00  0.00     0.319 HD
HETATM   28  H27 UNL     1      21.044   0.622  51.505  1.00  0.00     0.166 HD
ENDROOT
BRANCH   1  29
HETATM   29  C2  UNL     1      22.491  -0.084  53.820  1.00  0.00     0.215 C 
HETATM   30  C1  UNL     1      23.416  -0.173  52.659  1.00  0.00     0.051 C 
HETATM   31  F1  UNL     1      23.023  -0.783  54.895  1.00  0.00    -0.243 F 
ENDBRANCH   1  29
BRANCH   7  32
HETATM   32  C10 UNL     1      16.624  -0.457  49.622  1.00  0.00     0.002 C 
HETATM   33  C11 UNL     1      15.853  -0.948  48.659  1.00  0.00     0.010 C 
ENDBRANCH   7  32
TORSDOF 2
ENDMDL
MODEL 7
REMARK VINA RESULT:      -8.6      2.163      7.424
REMARK  2 active torsions:
REMARK  status: ('A' for Active; 'I' for Inactive)
REMARK    1  A    between atoms: C2_2  and  C3_4 
REMARK    2  A    between atoms: C8_10  and  C10_12 
ROOT
HETATM    1  C3  UNL     1      23.513   0.925  52.753  1.00  0.00     0.040 C 
HETATM    2  C4  UNL     1      22.968  -0.009  53.557  1.00  0.00     0.007 C 
HETATM    3  C5  UNL     1      21.540   0.063  53.157  1.00  0.00     0.025 C 
HETATM    4  C6  UNL     1      20.423  -0.547  53.521  1.00  0.00     0.025 C 
HETATM    5  C7  UNL     1      19.401   0.071  52.648  1.00  0.00     0.175 C 
HETATM    6  O1  UNL     1      19.909   1.028  51.763  1.00  0.00    -0.374 OA
HETATM    7  C8  UNL     1      18.883   1.606  51.015  1.00  0.00     0.100 C 
HETATM    8  C9  UNL     1      17.888   2.359  51.838  1.00  0.00     0.052 C 
HETATM    9  C12 UNL     1      19.484   2.483  49.952  1.00  0.00     0.315 C 
HETATM   10  N1  UNL     1      20.330   3.472  50.552  1.00  0.00     0.120 N 
HETATM   11  C13 UNL     1      20.850   4.458  49.674  1.00  0.00     0.400 C 
HETATM   12  O2  UNL     1      21.430   3.782  48.531  1.00  0.00    -0.286 OA
HETATM   13  C14 UNL     1      21.800   4.515  47.382  1.00  0.00     0.227 C 
HETATM   14  F2  UNL     1      21.134   3.503  46.810  1.00  0.00    -0.178 F 
HETATM   15  C15 UNL     1      22.338   5.477  46.596  1.00  0.00     0.069 C 
HETATM   16  C16 UNL     1      23.105   6.674  46.893  1.00  0.00     0.006 C 
HETATM   17  C17 UNL     1      23.691   7.484  47.782  1.00  0.00     0.011 C 
HETATM   18  C18 UNL     1      23.454   6.867  49.066  1.00  0.00    -0.035 A 
HETATM   19  C19 UNL     1      24.268   6.956  50.198  1.00  0.00     0.014 A 
HETATM   20  C20 UNL     1      23.974   6.190  51.305  1.00  0.00     0.033 A 
HETATM   21  C21 UNL     1      22.918   5.327  51.376  1.00  0.00     0.068 A 
HETATM   22  C22 UNL     1      22.015   5.109  50.370  1.00  0.00     0.030 A 
HETATM   23  C23 UNL     1      22.522   5.956  49.452  1.00  0.00     0.025 A 
HETATM   24  N2  UNL     1      22.401   4.422  52.313  1.00  0.00    -0.243 NA
HETATM   25  C24 UNL     1      22.658   3.142  52.145  1.00  0.00     0.208 C 
HETATM   26  N3  UNL     1      23.036   1.837  51.799  1.00  0.00    -0.352 N 
HETATM   27  H18 UNL     1      19.909   3.897  51.390  1.00  0.00     0.319 HD
HETATM   28  H27 UNL     1      22.824   1.944  50.803  1.00  0.00     0.166 HD
ENDROOT
BRANCH   1  29
HETATM   29  C2  UNL     1      24.913   1.385  52.614  1.00  0.00     0.215 C 
HETATM   30  C1  UNL     1      25.915   0.327  52.318  1.00  0.00     0.051 C 
HETATM   31  F1  UNL     1      25.337   2.141  53.698  1.00  0.00    -0.243 F 
ENDBRANCH   1  29
BRANCH   7  32
HETATM   32  C10 UNL     1      18.140   0.529  50.250  1.00  0.00     0.002 C 
HETATM   33  C11 UNL     1      17.111  -0.110  49.706  1.00  0.00     0.010 C 
ENDBRANCH   7  32
TORSDOF 2
ENDMDL
MODEL 8
REMARK VINA RESULT:      -8.5      2.706      5.305
REMARK  2 active torsions:
REMARK  status: ('A' for Active; 'I' for Inactive)
REMARK    1  A    between atoms: C2_2  and  C3_4 
REMARK    2  A    between atoms: C8_10  and  C10_12 
ROOT
HETATM    1  C3  UNL     1      22.462   7.286  50.587  1.00  0.00     0.040 C 
HETATM    2  C4  UNL     1      21.552   8.075  49.983  1.00  0.00     0.007 C 
HETATM    3  C5  UNL     1      20.493   7.089  49.646  1.00  0.00     0.025 C 
HETATM    4  C6  UNL     1      19.317   7.133  49.041  1.00  0.00     0.025 C 
HETATM    5  C7  UNL     1      18.855   5.729  49.100  1.00  0.00     0.175 C 
HETATM    6  O1  UNL     1      19.742   4.862  49.747  1.00  0.00    -0.374 OA
HETATM    7  C8  UNL     1      19.268   3.550  49.713  1.00  0.00     0.100 C 
HETATM    8  C9  UNL     1      19.147   2.988  48.334  1.00  0.00     0.052 C 
HETATM    9  C12 UNL     1      20.146   2.688  50.577  1.00  0.00     0.315 C 
HETATM   10  N1  UNL     1      21.507   2.776  50.135  1.00  0.00     0.120 N 
HETATM   11  C13 UNL     1      22.423   1.899  50.772  1.00  0.00     0.400 C 
HETATM   12  O2  UNL     1      22.245   2.027  52.205  1.00  0.00    -0.286 OA
HETATM   13  C14 UNL     1      22.846   1.098  53.083  1.00  0.00     0.227 C 
HETATM   14  F2  UNL     1      21.607   1.132  53.590  1.00  0.00    -0.178 F 
HETATM   15  C15 UNL     1      23.772   0.297  53.660  1.00  0.00     0.069 C 
HETATM   16  C16 UNL     1      25.171   0.040  53.365  1.00  0.00     0.006 C 
HETATM   17  C17 UNL     1      26.262   0.274  52.626  1.00  0.00     0.011 C 
HETATM   18  C18 UNL     1      25.854   1.266  51.658  1.00  0.00    -0.035 A 
HETATM   19  C19 UNL     1      26.667   2.230  51.058  1.00  0.00     0.014 A 
HETATM   20  C20 UNL     1      26.094   3.196  50.260  1.00  0.00     0.033 A 
HETATM   21  C21 UNL     1      24.755   3.282  50.009  1.00  0.00     0.068 A 
HETATM   22  C22 UNL     1      23.808   2.427  50.507  1.00  0.00     0.030 A 
HETATM   23  C23 UNL     1      24.616   1.616  51.217  1.00  0.00     0.025 A 
HETATM   24  N2  UNL     1      23.901   4.137  49.297  1.00  0.00    -0.243 NA
HETATM   25  C24 UNL     1      23.219   5.036  49.974  1.00  0.00     0.208 C 
HETATM   26  N3  UNL     1      22.585   5.916  50.862  1.00  0.00    -0.352 N 
HETATM   27  H18 UNL     1      21.594   2.732  49.110  1.00  0.00     0.319 HD
HETATM   28  H27 UNL     1      22.363   5.197  51.557  1.00  0.00     0.166 HD
ENDROOT
BRANCH   1  29
HETATM   29  C2  UNL     1      23.778   7.608  51.183  1.00  0.00     0.215 C 
HETATM   30  C1  UNL     1      24.826   8.061  50.230  1.00  0.00     0.051 C 
HETATM   31  F1  UNL     1      24.275   6.577  51.968  1.00  0.00    -0.243 F 
ENDBRANCH   1  29
BRANCH   7  32
HETATM   32  C10 UNL     1      17.902   3.484  50.368  1.00  0.00     0.002 C 
HETATM   33  C11 UNL     1      16.993   3.557  51.332  1.00  0.00     0.010 C 
ENDBRANCH   7  32
TORSDOF 2
ENDMDL
MODEL 9
REMARK VINA RESULT:      -8.3      5.493     10.438
REMARK  2 active torsions:
REMARK  status: ('A' for Active; 'I' for Inactive)
REMARK    1  A    between atoms: C2_2  and  C3_4 
REMARK    2  A    between atoms: C8_10  and  C10_12 
ROOT
HETATM    1  C3  UNL     1      29.667   6.508  47.649  1.00  0.00     0.040 C 
HETATM    2  C4  UNL     1      29.455   5.234  48.033  1.00  0.00     0.007 C 
HETATM    3  C5  UNL     1      28.042   5.300  48.485  1.00  0.00     0.025 C 
HETATM    4  C6  UNL     1      27.170   4.445  48.995  1.00  0.00     0.025 C 
HETATM    5  C7  UNL     1      25.955   5.269  49.177  1.00  0.00     0.175 C 
HETATM    6  O1  UNL     1      26.099   6.597  48.764  1.00  0.00    -0.374 OA
HETATM    7  C8  UNL     1      24.936   7.325  49.018  1.00  0.00     0.100 C 
HETATM    8  C9  UNL     1      24.593   7.427  50.469  1.00  0.00     0.052 C 
HETATM    9  C12 UNL     1      25.061   8.686  48.391  1.00  0.00     0.315 C 
HETATM   10  N1  UNL     1      26.228   9.351  48.893  1.00  0.00     0.120 N 
HETATM   11  C13 UNL     1      26.389  10.704  48.494  1.00  0.00     0.400 C 
HETATM   12  O2  UNL     1      26.230  10.770  47.055  1.00  0.00    -0.286 OA
HETATM   13  C14 UNL     1      26.093  12.018  46.409  1.00  0.00     0.227 C 
HETATM   14  F2  UNL     1      25.092  11.343  45.828  1.00  0.00    -0.178 F 
HETATM   15  C15 UNL     1      26.312  13.306  46.055  1.00  0.00     0.069 C 
HETATM   16  C16 UNL     1      27.292  14.290  46.480  1.00  0.00     0.006 C 
HETATM   17  C17 UNL     1      28.351  14.623  47.228  1.00  0.00     0.011 C 
HETATM   18  C18 UNL     1      28.685  13.424  47.962  1.00  0.00    -0.035 A 
HETATM   19  C19 UNL     1      29.951  13.050  48.417  1.00  0.00     0.014 A 
HETATM   20  C20 UNL     1      30.127  11.804  48.978  1.00  0.00     0.033 A 
HETATM   21  C21 UNL     1      29.128  10.885  49.124  1.00  0.00     0.068 A 
HETATM   22  C22 UNL     1      27.828  11.075  48.739  1.00  0.00     0.030 A 
HETATM   23  C23 UNL     1      27.938  12.325  48.249  1.00  0.00     0.025 A 
HETATM   24  N2  UNL     1      29.009   9.574  49.604  1.00  0.00    -0.243 NA
HETATM   25  C24 UNL     1      28.960   8.594  48.726  1.00  0.00     0.208 C 
HETATM   26  N3  UNL     1      28.924   7.698  47.648  1.00  0.00    -0.352 N 
HETATM   27  H18 UNL     1      26.338   9.243  49.911  1.00  0.00     0.319 HD
HETATM   28  H27 UNL     1      28.270   8.255  47.092  1.00  0.00     0.166 HD
ENDROOT
BRANCH   1  29
HETATM   29  C2  UNL     1      30.869   7.162  47.086  1.00  0.00     0.215 C 
HETATM   30  C1  UNL     1      30.704   7.770  45.739  1.00  0.00     0.051 C 
HETATM   31  F1  UNL     1      31.980   6.330  47.090  1.00  0.00    -0.243 F 
ENDBRANCH   1  29
BRANCH   7  32
HETATM   32  C10 UNL     1      23.765   6.680  48.304  1.00  0.00     0.002 C 
HETATM   33  C11 UNL     1      22.872   6.466  47.345  1.00  0.00     0.010 C 
ENDBRANCH   7  32
TORSDOF 2
ENDMDL
