MODEL 1
REMARK VINA RESULT:      -7.6      0.000      0.000
REMARK  6 active torsions:
REMARK  status: ('A' for Active; 'I' for Inactive)
REMARK    1  A    between atoms: O1_2  and  C2_3 
REMARK    2  A    between atoms: C2_3  and  C3_4 
REMARK    3  A    between atoms: C4_5  and  C5_6 
REMARK       I    between atoms: C5_6  and  N1_8 
REMARK    4  A    between atoms: N1_8  and  C6_9 
REMARK    5  A    between atoms: C12_15  and  N2_16 
REMARK    6  A    between atoms: N2_16  and  C13_17 
ROOT
HETATM    1  C6  UNL     1      26.803   2.218  51.968  1.00  0.00     0.036 A 
HETATM    2  C7  UNL     1      27.352   2.280  53.226  1.00  0.00     0.030 A 
HETATM    3  C8  UNL     1      27.072   1.338  54.166  1.00  0.00     0.012 A 
HETATM    4  C9  UNL     1      26.213   0.320  53.801  1.00  0.00    -0.022 A 
HETATM    5  C10 UNL     1      25.597   0.155  52.557  1.00  0.00    -0.020 A 
HETATM    6  C11 UNL     1      25.966   1.178  51.696  1.00  0.00     0.039 A 
HETATM    7  C12 UNL     1      25.318  -0.848  53.605  1.00  0.00     0.149 A 
ENDROOT
BRANCH   1   8
HETATM    8  N1  UNL     1      27.113   3.215  51.003  1.00  0.00    -0.316 N 
HETATM    9  C5  UNL     1      26.445   3.694  49.847  1.00  0.00     0.301 C 
HETATM   10  O2  UNL     1      25.328   3.223  49.481  1.00  0.00    -0.258 OA
HETATM   11  H6  UNL     1      28.034   3.595  51.314  1.00  0.00     0.170 HD
BRANCH   9  12
HETATM   12  C4  UNL     1      27.121   4.753  49.114  1.00  0.00    -0.003 C 
HETATM   13  C3  UNL     1      27.666   5.628  48.496  1.00  0.00    -0.070 C 
BRANCH  13  14
HETATM   14  C2  UNL     1      28.342   6.675  47.765  1.00  0.00     0.261 C 
BRANCH  14  15
HETATM   15  O1  UNL     1      28.095   7.955  48.253  1.00  0.00    -0.384 OA
HETATM   16  C1  UNL     1      29.216   8.567  48.755  1.00  0.00     0.202 C 
ENDBRANCH  14  15
ENDBRANCH  13  14
ENDBRANCH   9  12
ENDBRANCH   1   8
BRANCH   7  17
HETATM   17  N2  UNL     1      24.099  -0.849  54.361  1.00  0.00    -0.377 N 
HETATM   18  H11 UNL     1      24.310  -1.037  55.395  1.00  0.00     0.160 HD
BRANCH  17  19
HETATM   19  C13 UNL     1      22.740  -0.666  54.095  1.00  0.00     0.030 A 
HETATM   20  C14 UNL     1      21.800  -1.645  54.389  1.00  0.00     0.029 A 
HETATM   21  C15 UNL     1      20.462  -1.491  54.136  1.00  0.00     0.004 A 
HETATM   22  C16 UNL     1      20.008  -0.335  53.570  1.00  0.00     0.019 A 
HETATM   23  C17 UNL     1      20.860   0.678  53.248  1.00  0.00     0.013 A 
HETATM   24 BR1  UNL     1      20.213   2.279  52.462  1.00  0.00    -0.051 Br
HETATM   25  C18 UNL     1      22.185   0.458  53.529  1.00  0.00     0.048 A 
ENDBRANCH  17  19
ENDBRANCH   7  17
TORSDOF 6
ENDMDL
MODEL 2
REMARK VINA RESULT:      -7.5      3.883      6.339
REMARK  6 active torsions:
REMARK  status: ('A' for Active; 'I' for Inactive)
REMARK    1  A    between atoms: O1_2  and  C2_3 
REMARK    2  A    between atoms: C2_3  and  C3_4 
REMARK    3  A    between atoms: C4_5  and  C5_6 
REMARK       I    between atoms: C5_6  and  N1_8 
REMARK    4  A    between atoms: N1_8  and  C6_9 
REMARK    5  A    between atoms: C12_15  and  N2_16 
REMARK    6  A    between atoms: N2_16  and  C13_17 
ROOT
HETATM    1  C6  UNL     1      26.483   6.951  48.794  1.00  0.00     0.036 A 
HETATM    2  C7  UNL     1      27.617   6.337  48.319  1.00  0.00     0.030 A 
HETATM    3  C8  UNL     1      27.858   5.019  48.555  1.00  0.00     0.012 A 
HETATM    4  C9  UNL     1      26.915   4.329  49.291  1.00  0.00    -0.022 A 
HETATM    5  C10 UNL     1      25.730   4.846  49.823  1.00  0.00    -0.020 A 
HETATM    6  C11 UNL     1      25.608   6.193  49.510  1.00  0.00     0.039 A 
HETATM    7  C12 UNL     1      26.028   3.418  50.057  1.00  0.00     0.149 A 
ENDROOT
BRANCH   1   8
HETATM    8  N1  UNL     1      26.255   8.330  48.533  1.00  0.00    -0.316 N 
HETATM    9  C5  UNL     1      26.531   9.518  49.256  1.00  0.00     0.301 C 
HETATM   10  O2  UNL     1      27.097   9.491  50.389  1.00  0.00    -0.258 OA
HETATM   11  H6  UNL     1      25.789   8.340  47.598  1.00  0.00     0.170 HD
BRANCH   9  12
HETATM   12  C4  UNL     1      26.125  10.761  48.619  1.00  0.00    -0.003 C 
HETATM   13  C3  UNL     1      25.803  11.788  48.082  1.00  0.00    -0.070 C 
BRANCH  13  14
HETATM   14  C2  UNL     1      25.403  13.026  47.455  1.00  0.00     0.261 C 
BRANCH  14  15
HETATM   15  O1  UNL     1      24.580  13.820  48.248  1.00  0.00    -0.384 OA
HETATM   16  C1  UNL     1      24.972  15.134  48.287  1.00  0.00     0.202 C 
ENDBRANCH  14  15
ENDBRANCH  13  14
ENDBRANCH   9  12
ENDBRANCH   1   8
BRANCH   7  17
HETATM   17  N2  UNL     1      26.539   2.936  51.307  1.00  0.00    -0.377 N 
HETATM   18  H11 UNL     1      26.984   3.742  51.855  1.00  0.00     0.160 HD
BRANCH  17  19
HETATM   19  C13 UNL     1      26.596   1.710  51.974  1.00  0.00     0.030 A 
HETATM   20  C14 UNL     1      25.458   0.944  52.194  1.00  0.00     0.029 A 
HETATM   21  C15 UNL     1      25.487  -0.260  52.848  1.00  0.00     0.004 A 
HETATM   22  C16 UNL     1      26.673  -0.750  53.313  1.00  0.00     0.019 A 
HETATM   23  C17 UNL     1      27.838  -0.065  53.142  1.00  0.00     0.013 A 
HETATM   24 BR1  UNL     1      29.479  -0.760  53.795  1.00  0.00    -0.051 Br
HETATM   25  C18 UNL     1      27.737   1.133  52.480  1.00  0.00     0.048 A 
ENDBRANCH  17  19
ENDBRANCH   7  17
TORSDOF 6
ENDMDL
MODEL 3
REMARK VINA RESULT:      -7.4      3.397      5.953
REMARK  6 active torsions:
REMARK  status: ('A' for Active; 'I' for Inactive)
REMARK    1  A    between atoms: O1_2  and  C2_3 
REMARK    2  A    between atoms: C2_3  and  C3_4 
REMARK    3  A    between atoms: C4_5  and  C5_6 
REMARK       I    between atoms: C5_6  and  N1_8 
REMARK    4  A    between atoms: N1_8  and  C6_9 
REMARK    5  A    between atoms: C12_15  and  N2_16 
REMARK    6  A    between atoms: N2_16  and  C13_17 
ROOT
HETATM    1  C6  UNL     1      26.588   7.034  48.615  1.00  0.00     0.036 A 
HETATM    2  C7  UNL     1      27.803   6.480  48.291  1.00  0.00     0.030 A 
HETATM    3  C8  UNL     1      28.052   5.158  48.494  1.00  0.00     0.012 A 
HETATM    4  C9  UNL     1      27.033   4.402  49.040  1.00  0.00    -0.022 A 
HETATM    5  C10 UNL     1      25.763   4.855  49.407  1.00  0.00    -0.020 A 
HETATM    6  C11 UNL     1      25.641   6.213  49.147  1.00  0.00     0.039 A 
HETATM    7  C12 UNL     1      26.074   3.426  49.612  1.00  0.00     0.149 A 
ENDROOT
BRANCH   1   8
HETATM    8  N1  UNL     1      26.352   8.419  48.391  1.00  0.00    -0.316 N 
HETATM    9  C5  UNL     1      26.503   9.576  49.196  1.00  0.00     0.301 C 
HETATM   10  O2  UNL     1      26.929   9.507  50.387  1.00  0.00    -0.258 OA
HETATM   11  H6  UNL     1      26.002   8.463  47.408  1.00  0.00     0.170 HD
BRANCH   9  12
HETATM   12  C4  UNL     1      26.140  10.839  48.572  1.00  0.00    -0.003 C 
HETATM   13  C3  UNL     1      25.845  11.891  48.070  1.00  0.00    -0.070 C 
BRANCH  13  14
HETATM   14  C2  UNL     1      25.477  13.143  47.452  1.00  0.00     0.261 C 
BRANCH  14  15
HETATM   15  O1  UNL     1      24.610  13.919  48.217  1.00  0.00    -0.384 OA
HETATM   16  C1  UNL     1      24.982  15.237  48.285  1.00  0.00     0.202 C 
ENDBRANCH  14  15
ENDBRANCH  13  14
ENDBRANCH   9  12
ENDBRANCH   1   8
BRANCH   7  17
HETATM   17  N2  UNL     1      26.404   2.889  50.901  1.00  0.00    -0.377 N 
HETATM   18  H11 UNL     1      27.097   3.537  51.399  1.00  0.00     0.160 HD
BRANCH  17  19
HETATM   19  C13 UNL     1      26.055   1.765  51.651  1.00  0.00     0.030 A 
HETATM   20  C14 UNL     1      26.992   0.802  52.006  1.00  0.00     0.029 A 
HETATM   21  C15 UNL     1      26.674  -0.311  52.739  1.00  0.00     0.004 A 
HETATM   22  C16 UNL     1      25.388  -0.507  53.151  1.00  0.00     0.019 A 
HETATM   23  C17 UNL     1      24.404   0.386  52.849  1.00  0.00     0.013 A 
HETATM   24 BR1  UNL     1      22.621   0.099  53.430  1.00  0.00    -0.051 Br
HETATM   25  C18 UNL     1      24.791   1.477  52.112  1.00  0.00     0.048 A 
ENDBRANCH  17  19
ENDBRANCH   7  17
TORSDOF 6
ENDMDL
MODEL 4
REMARK VINA RESULT:      -7.3      4.222     10.033
REMARK  6 active torsions:
REMARK  status: ('A' for Active; 'I' for Inactive)
REMARK    1  A    between atoms: O1_2  and  C2_3 
REMARK    2  A    between atoms: C2_3  and  C3_4 
REMARK    3  A    between atoms: C4_5  and  C5_6 
REMARK       I    between atoms: C5_6  and  N1_8 
REMARK    4  A    between atoms: N1_8  and  C6_9 
REMARK    5  A    between atoms: C12_15  and  N2_16 
REMARK    6  A    between atoms: N2_16  and  C13_17 
ROOT
HETATM    1  C6  UNL     1      25.311   3.762  50.359  1.00  0.00     0.036 A 
HETATM    2  C7  UNL     1      24.891   5.071  50.343  1.00  0.00     0.030 A 
HETATM    3  C8  UNL     1      25.597   6.030  49.687  1.00  0.00     0.012 A 
HETATM    4  C9  UNL     1      26.751   5.632  49.041  1.00  0.00    -0.022 A 
HETATM    5  C10 UNL     1      27.274   4.336  48.990  1.00  0.00    -0.020 A 
HETATM    6  C11 UNL     1      26.460   3.460  49.695  1.00  0.00     0.039 A 
HETATM    7  C12 UNL     1      28.011   5.408  48.290  1.00  0.00     0.149 A 
ENDROOT
BRANCH   1   8
HETATM    8  N1  UNL     1      24.553   2.777  51.051  1.00  0.00    -0.316 N 
HETATM    9  C5  UNL     1      24.761   2.055  52.254  1.00  0.00     0.301 C 
HETATM   10  O2  UNL     1      25.799   2.225  52.961  1.00  0.00    -0.258 OA
HETATM   11  H6  UNL     1      23.703   2.646  50.460  1.00  0.00     0.170 HD
BRANCH   9  12
HETATM   12  C4  UNL     1      23.715   1.114  52.621  1.00  0.00    -0.003 C 
HETATM   13  C3  UNL     1      22.862   0.326  52.933  1.00  0.00    -0.070 C 
BRANCH  13  14
HETATM   14  C2  UNL     1      21.823  -0.612  53.290  1.00  0.00     0.261 C 
BRANCH  14  15
HETATM   15  O1  UNL     1      21.673  -0.794  54.662  1.00  0.00    -0.384 OA
HETATM   16  C1  UNL     1      22.787  -1.327  55.260  1.00  0.00     0.202 C 
ENDBRANCH  14  15
ENDBRANCH  13  14
ENDBRANCH   9  12
ENDBRANCH   1   8
BRANCH   7  17
HETATM   17  N2  UNL     1      29.193   6.009  48.836  1.00  0.00    -0.377 N 
HETATM   18  H11 UNL     1      28.935   6.628  49.672  1.00  0.00     0.160 HD
BRANCH  17  19
HETATM   19  C13 UNL     1      30.562   5.987  48.561  1.00  0.00     0.030 A 
HETATM   20  C14 UNL     1      31.428   6.940  49.084  1.00  0.00     0.029 A 
HETATM   21  C15 UNL     1      32.774   6.941  48.828  1.00  0.00     0.004 A 
HETATM   22  C16 UNL     1      33.313   5.977  48.027  1.00  0.00     0.019 A 
HETATM   23  C17 UNL     1      32.538   5.004  47.471  1.00  0.00     0.013 A 
HETATM   24 BR1  UNL     1      33.302   3.670  46.359  1.00  0.00    -0.051 Br
HETATM   25  C18 UNL     1      31.199   5.062  47.769  1.00  0.00     0.048 A 
ENDBRANCH  17  19
ENDBRANCH   7  17
TORSDOF 6
ENDMDL
MODEL 5
REMARK VINA RESULT:      -7.1      4.137     10.239
REMARK  6 active torsions:
REMARK  status: ('A' for Active; 'I' for Inactive)
REMARK    1  A    between atoms: O1_2  and  C2_3 
REMARK    2  A    between atoms: C2_3  and  C3_4 
REMARK    3  A    between atoms: C4_5  and  C5_6 
REMARK       I    between atoms: C5_6  and  N1_8 
REMARK    4  A    between atoms: N1_8  and  C6_9 
REMARK    5  A    between atoms: C12_15  and  N2_16 
REMARK    6  A    between atoms: N2_16  and  C13_17 
ROOT
HETATM    1  C6  UNL     1      25.230   3.636  50.075  1.00  0.00     0.036 A 
HETATM    2  C7  UNL     1      24.519   4.728  49.638  1.00  0.00     0.030 A 
HETATM    3  C8  UNL     1      25.116   5.719  48.924  1.00  0.00     0.012 A 
HETATM    4  C9  UNL     1      26.464   5.580  48.659  1.00  0.00    -0.022 A 
HETATM    5  C10 UNL     1      27.286   4.519  49.051  1.00  0.00    -0.020 A 
HETATM    6  C11 UNL     1      26.555   3.582  49.767  1.00  0.00     0.039 A 
HETATM    7  C12 UNL     1      27.897   5.616  48.273  1.00  0.00     0.149 A 
ENDROOT
BRANCH   1   8
HETATM    8  N1  UNL     1      24.581   2.612  50.819  1.00  0.00    -0.316 N 
HETATM    9  C5  UNL     1      24.137   2.516  52.163  1.00  0.00     0.301 C 
HETATM   10  O2  UNL     1      24.285   3.470  52.982  1.00  0.00    -0.258 OA
HETATM   11  H6  UNL     1      24.465   1.833  50.135  1.00  0.00     0.170 HD
BRANCH   9  12
HETATM   12  C4  UNL     1      23.504   1.261  52.536  1.00  0.00    -0.003 C 
HETATM   13  C3  UNL     1      22.996   0.214  52.840  1.00  0.00    -0.070 C 
BRANCH  13  14
HETATM   14  C2  UNL     1      22.364  -1.032  53.204  1.00  0.00     0.261 C 
BRANCH  14  15
HETATM   15  O1  UNL     1      22.010  -1.115  54.548  1.00  0.00    -0.384 OA
HETATM   16  C1  UNL     1      23.071  -1.401  55.369  1.00  0.00     0.202 C 
ENDBRANCH  14  15
ENDBRANCH  13  14
ENDBRANCH   9  12
ENDBRANCH   1   8
BRANCH   7  17
HETATM   17  N2  UNL     1      28.695   6.639  48.885  1.00  0.00    -0.377 N 
HETATM   18  H11 UNL     1      28.441   6.729  49.922  1.00  0.00     0.160 HD
BRANCH  17  19
HETATM   19  C13 UNL     1      29.698   7.522  48.479  1.00  0.00     0.030 A 
HETATM   20  C14 UNL     1      30.758   7.107  47.683  1.00  0.00     0.029 A 
HETATM   21  C15 UNL     1      31.756   7.952  47.273  1.00  0.00     0.004 A 
HETATM   22  C16 UNL     1      31.730   9.263  47.649  1.00  0.00     0.019 A 
HETATM   23  C17 UNL     1      30.729   9.756  48.430  1.00  0.00     0.013 A 
HETATM   24 BR1  UNL     1      30.707  11.583  48.945  1.00  0.00    -0.051 Br
HETATM   25  C18 UNL     1      29.762   8.856  48.804  1.00  0.00     0.048 A 
ENDBRANCH  17  19
ENDBRANCH   7  17
TORSDOF 6
ENDMDL
MODEL 6
REMARK VINA RESULT:      -6.9      2.307      3.246
REMARK  6 active torsions:
REMARK  status: ('A' for Active; 'I' for Inactive)
REMARK    1  A    between atoms: O1_2  and  C2_3 
REMARK    2  A    between atoms: C2_3  and  C3_4 
REMARK    3  A    between atoms: C4_5  and  C5_6 
REMARK       I    between atoms: C5_6  and  N1_8 
REMARK    4  A    between atoms: N1_8  and  C6_9 
REMARK    5  A    between atoms: C12_15  and  N2_16 
REMARK    6  A    between atoms: N2_16  and  C13_17 
ROOT
HETATM    1  C6  UNL     1      26.068   3.942  49.904  1.00  0.00     0.036 A 
HETATM    2  C7  UNL     1      24.867   4.130  49.264  1.00  0.00     0.030 A 
HETATM    3  C8  UNL     1      23.703   3.672  49.799  1.00  0.00     0.012 A 
HETATM    4  C9  UNL     1      23.783   3.011  51.009  1.00  0.00    -0.022 A 
HETATM    5  C10 UNL     1      24.944   2.762  51.748  1.00  0.00    -0.020 A 
HETATM    6  C11 UNL     1      26.053   3.280  51.094  1.00  0.00     0.039 A 
HETATM    7  C12 UNL     1      23.659   2.281  52.295  1.00  0.00     0.149 A 
ENDROOT
BRANCH   1   8
HETATM    8  N1  UNL     1      27.271   4.432  49.325  1.00  0.00    -0.316 N 
HETATM    9  C5  UNL     1      27.581   5.572  48.540  1.00  0.00     0.301 C 
HETATM   10  O2  UNL     1      26.695   6.415  48.212  1.00  0.00    -0.258 OA
HETATM   11  H6  UNL     1      27.993   3.730  49.601  1.00  0.00     0.170 HD
BRANCH   9  12
HETATM   12  C4  UNL     1      28.973   5.710  48.138  1.00  0.00    -0.003 C 
HETATM   13  C3  UNL     1      30.127   5.822  47.823  1.00  0.00    -0.070 C 
BRANCH  13  14
HETATM   14  C2  UNL     1      31.508   5.967  47.424  1.00  0.00     0.261 C 
BRANCH  14  15
HETATM   15  O1  UNL     1      32.272   6.734  48.299  1.00  0.00    -0.384 OA
HETATM   16  C1  UNL     1      33.245   6.012  48.941  1.00  0.00     0.202 C 
ENDBRANCH  14  15
ENDBRANCH  13  14
ENDBRANCH   9  12
ENDBRANCH   1   8
BRANCH   7  17
HETATM   17  N2  UNL     1      23.255   0.907  52.209  1.00  0.00    -0.377 N 
HETATM   18  H11 UNL     1      23.773   0.424  51.406  1.00  0.00     0.160 HD
BRANCH  17  19
HETATM   19  C13 UNL     1      22.381   0.062  52.897  1.00  0.00     0.030 A 
HETATM   20  C14 UNL     1      22.828  -0.801  53.890  1.00  0.00     0.029 A 
HETATM   21  C15 UNL     1      21.992  -1.641  54.577  1.00  0.00     0.004 A 
HETATM   22  C16 UNL     1      20.657  -1.651  54.293  1.00  0.00     0.019 A 
HETATM   23  C17 UNL     1      20.132  -0.838  53.334  1.00  0.00     0.013 A 
HETATM   24 BR1  UNL     1      18.274  -0.863  52.950  1.00  0.00    -0.051 Br
HETATM   25  C18 UNL     1      21.025  -0.022  52.685  1.00  0.00     0.048 A 
ENDBRANCH  17  19
ENDBRANCH   7  17
TORSDOF 6
ENDMDL
MODEL 7
REMARK VINA RESULT:      -6.9      4.966      7.819
REMARK  6 active torsions:
REMARK  status: ('A' for Active; 'I' for Inactive)
REMARK    1  A    between atoms: O1_2  and  C2_3 
REMARK    2  A    between atoms: C2_3  and  C3_4 
REMARK    3  A    between atoms: C4_5  and  C5_6 
REMARK       I    between atoms: C5_6  and  N1_8 
REMARK    4  A    between atoms: N1_8  and  C6_9 
REMARK    5  A    between atoms: C12_15  and  N2_16 
REMARK    6  A    between atoms: N2_16  and  C13_17 
ROOT
HETATM    1  C6  UNL     1      20.697  -0.372  52.622  1.00  0.00     0.036 A 
HETATM    2  C7  UNL     1      19.928  -1.058  53.530  1.00  0.00     0.030 A 
HETATM    3  C8  UNL     1      18.575  -1.115  53.410  1.00  0.00     0.012 A 
HETATM    4  C9  UNL     1      18.010  -0.454  52.337  1.00  0.00    -0.022 A 
HETATM    5  C10 UNL     1      18.688   0.274  51.355  1.00  0.00    -0.020 A 
HETATM    6  C11 UNL     1      20.055   0.251  51.595  1.00  0.00     0.039 A 
HETATM    7  C12 UNL     1      17.217   0.188  51.259  1.00  0.00     0.149 A 
ENDROOT
BRANCH   1   8
HETATM    8  N1  UNL     1      22.111  -0.328  52.770  1.00  0.00    -0.316 N 
HETATM    9  C5  UNL     1      23.046   0.730  52.898  1.00  0.00     0.301 C 
HETATM   10  O2  UNL     1      22.681   1.944  52.896  1.00  0.00    -0.258 OA
HETATM   11  H6  UNL     1      22.399  -1.332  52.770  1.00  0.00     0.170 HD
BRANCH   9  12
HETATM   12  C4  UNL     1      24.440   0.337  53.031  1.00  0.00    -0.003 C 
HETATM   13  C3  UNL     1      25.589   0.009  53.158  1.00  0.00    -0.070 C 
BRANCH  13  14
HETATM   14  C2  UNL     1      26.976  -0.374  53.290  1.00  0.00     0.261 C 
BRANCH  14  15
HETATM   15  O1  UNL     1      27.411  -0.474  54.608  1.00  0.00    -0.384 OA
HETATM   16  C1  UNL     1      28.647   0.085  54.813  1.00  0.00     0.202 C 
ENDBRANCH  14  15
ENDBRANCH  13  14
ENDBRANCH   9  12
ENDBRANCH   1   8
BRANCH   7  17
HETATM   17  N2  UNL     1      16.358   1.265  51.657  1.00  0.00    -0.377 N 
HETATM   18  H11 UNL     1      16.749   2.196  51.298  1.00  0.00     0.160 HD
BRANCH  17  19
HETATM   19  C13 UNL     1      15.167   1.401  52.374  1.00  0.00     0.030 A 
HETATM   20  C14 UNL     1      14.520   0.305  52.932  1.00  0.00     0.029 A 
HETATM   21  C15 UNL     1      13.351   0.411  53.638  1.00  0.00     0.004 A 
HETATM   22  C16 UNL     1      12.774   1.636  53.814  1.00  0.00     0.019 A 
HETATM   23  C17 UNL     1      13.339   2.764  53.301  1.00  0.00     0.013 A 
HETATM   24 BR1  UNL     1      12.525   4.460  53.556  1.00  0.00    -0.051 Br
HETATM   25  C18 UNL     1      14.509   2.586  52.606  1.00  0.00     0.048 A 
ENDBRANCH  17  19
ENDBRANCH   7  17
TORSDOF 6
ENDMDL
MODEL 8
REMARK VINA RESULT:      -6.9      4.172      9.806
REMARK  6 active torsions:
REMARK  status: ('A' for Active; 'I' for Inactive)
REMARK    1  A    between atoms: O1_2  and  C2_3 
REMARK    2  A    between atoms: C2_3  and  C3_4 
REMARK    3  A    between atoms: C4_5  and  C5_6 
REMARK       I    between atoms: C5_6  and  N1_8 
REMARK    4  A    between atoms: N1_8  and  C6_9 
REMARK    5  A    between atoms: C12_15  and  N2_16 
REMARK    6  A    between atoms: N2_16  and  C13_17 
ROOT
HETATM    1  C6  UNL     1      22.290   0.817  52.364  1.00  0.00     0.036 A 
HETATM    2  C7  UNL     1      23.564   0.360  52.605  1.00  0.00     0.030 A 
HETATM    3  C8  UNL     1      24.652   1.133  52.342  1.00  0.00     0.012 A 
HETATM    4  C9  UNL     1      24.420   2.392  51.823  1.00  0.00    -0.022 A 
HETATM    5  C10 UNL     1      23.175   2.960  51.539  1.00  0.00    -0.020 A 
HETATM    6  C11 UNL     1      22.156   2.071  51.853  1.00  0.00     0.039 A 
HETATM    7  C12 UNL     1      24.381   3.767  51.268  1.00  0.00     0.149 A 
ENDROOT
BRANCH   1   8
HETATM    8  N1  UNL     1      21.169  -0.011  52.649  1.00  0.00    -0.316 N 
HETATM    9  C5  UNL     1      20.702  -0.647  53.827  1.00  0.00     0.301 C 
HETATM   10  O2  UNL     1      21.316  -0.540  54.930  1.00  0.00    -0.258 OA
HETATM   11  H6  UNL     1      20.672  -0.092  51.735  1.00  0.00     0.170 HD
BRANCH   9  12
HETATM   12  C4  UNL     1      19.481  -1.426  53.689  1.00  0.00    -0.003 C 
HETATM   13  C3  UNL     1      18.462  -2.054  53.577  1.00  0.00    -0.070 C 
BRANCH  13  14
HETATM   14  C2  UNL     1      17.250  -2.829  53.448  1.00  0.00     0.261 C 
BRANCH  14  15
HETATM   15  O1  UNL     1      17.461  -4.203  53.391  1.00  0.00    -0.384 OA
HETATM   16  C1  UNL     1      16.416  -4.932  53.900  1.00  0.00     0.202 C 
ENDBRANCH  14  15
ENDBRANCH  13  14
ENDBRANCH   9  12
ENDBRANCH   1   8
BRANCH   7  17
HETATM   17  N2  UNL     1      24.912   3.933  49.945  1.00  0.00    -0.377 N 
HETATM   18  H11 UNL     1      24.428   3.257  49.270  1.00  0.00     0.160 HD
BRANCH  17  19
HETATM   19  C13 UNL     1      25.874   4.739  49.332  1.00  0.00     0.030 A 
HETATM   20  C14 UNL     1      27.168   4.287  49.103  1.00  0.00     0.029 A 
HETATM   21  C15 UNL     1      28.130   5.058  48.507  1.00  0.00     0.004 A 
HETATM   22  C16 UNL     1      27.832   6.329  48.111  1.00  0.00     0.019 A 
HETATM   23  C17 UNL     1      26.589   6.855  48.297  1.00  0.00     0.013 A 
HETATM   24 BR1  UNL     1      26.189   8.624  47.740  1.00  0.00    -0.051 Br
HETATM   25  C18 UNL     1      25.673   6.029  48.900  1.00  0.00     0.048 A 
ENDBRANCH  17  19
ENDBRANCH   7  17
TORSDOF 6
ENDMDL
MODEL 9
REMARK VINA RESULT:      -6.8      5.528      8.206
REMARK  6 active torsions:
REMARK  status: ('A' for Active; 'I' for Inactive)
REMARK    1  A    between atoms: O1_2  and  C2_3 
REMARK    2  A    between atoms: C2_3  and  C3_4 
REMARK    3  A    between atoms: C4_5  and  C5_6 
REMARK       I    between atoms: C5_6  and  N1_8 
REMARK    4  A    between atoms: N1_8  and  C6_9 
REMARK    5  A    between atoms: C12_15  and  N2_16 
REMARK    6  A    between atoms: N2_16  and  C13_17 
ROOT
HETATM    1  C6  UNL     1      20.652  -0.375  52.726  1.00  0.00     0.036 A 
HETATM    2  C7  UNL     1      20.136   0.324  51.662  1.00  0.00     0.030 A 
HETATM    3  C8  UNL     1      18.800   0.337  51.407  1.00  0.00     0.012 A 
HETATM    4  C9  UNL     1      17.989  -0.382  52.263  1.00  0.00    -0.022 A 
HETATM    5  C10 UNL     1      18.400  -1.127  53.372  1.00  0.00    -0.020 A 
HETATM    6  C11 UNL     1      19.778  -1.056  53.518  1.00  0.00     0.039 A 
HETATM    7  C12 UNL     1      16.956  -1.087  53.062  1.00  0.00     0.149 A 
ENDROOT
BRANCH   1   8
HETATM    8  N1  UNL     1      22.053  -0.372  52.971  1.00  0.00    -0.316 N 
HETATM    9  C5  UNL     1      22.844  -0.667  54.111  1.00  0.00     0.301 C 
HETATM   10  O2  UNL     1      22.322  -1.021  55.209  1.00  0.00    -0.258 OA
HETATM   11  H6  UNL     1      22.472  -0.080  52.060  1.00  0.00     0.170 HD
BRANCH   9  12
HETATM   12  C4  UNL     1      24.283  -0.538  53.939  1.00  0.00    -0.003 C 
HETATM   13  C3  UNL     1      25.472  -0.447  53.789  1.00  0.00    -0.070 C 
BRANCH  13  14
HETATM   14  C2  UNL     1      26.902  -0.321  53.626  1.00  0.00     0.261 C 
BRANCH  14  15
HETATM   15  O1  UNL     1      27.621  -0.466  54.809  1.00  0.00    -0.384 OA
HETATM   16  C1  UNL     1      28.702   0.374  54.891  1.00  0.00     0.202 C 
ENDBRANCH  14  15
ENDBRANCH  13  14
ENDBRANCH   9  12
ENDBRANCH   1   8
BRANCH   7  17
HETATM   17  N2  UNL     1      16.281  -2.173  52.411  1.00  0.00    -0.377 N 
HETATM   18  H11 UNL     1      16.136  -1.944  51.375  1.00  0.00     0.160 HD
BRANCH  17  19
HETATM   19  C13 UNL     1      15.781  -3.424  52.781  1.00  0.00     0.030 A 
HETATM   20  C14 UNL     1      16.468  -4.255  53.657  1.00  0.00     0.029 A 
HETATM   21  C15 UNL     1      16.001  -5.487  54.033  1.00  0.00     0.004 A 
HETATM   22  C16 UNL     1      14.812  -5.941  53.540  1.00  0.00     0.019 A 
HETATM   23  C17 UNL     1      14.073  -5.192  52.674  1.00  0.00     0.013 A 
HETATM   24 BR1  UNL     1      12.422  -5.838  51.997  1.00  0.00    -0.051 Br
HETATM   25  C18 UNL     1      14.599  -3.969  52.340  1.00  0.00     0.048 A 
ENDBRANCH  17  19
ENDBRANCH   7  17
TORSDOF 6
ENDMDL
