MODEL 1
REMARK VINA RESULT:      -6.7      0.000      0.000
REMARK  8 active torsions:
REMARK  status: ('A' for Active; 'I' for Inactive)
REMARK    1  A    between atoms: C2_2  and  O1_3 
REMARK    2  A    between atoms: O1_3  and  C3_4 
REMARK    3  A    between atoms: C5_6  and  C6_7 
REMARK    4  A    between atoms: C7_8  and  C9_11 
REMARK       I    between atoms: C9_11  and  N2_12 
REMARK    5  A    between atoms: C10_14  and  C11_15 
REMARK    6  A    between atoms: C11_15  and  S1_16 
REMARK    7  A    between atoms: S1_16  and  C12_17 
REMARK    8  A    between atoms: C14_19  and  O3_20 
ROOT
HETATM    1  C6  UNL     1      24.146   1.890  52.698  1.00  0.00     0.014 C 
HETATM    2  C7  UNL     1      24.094   2.989  51.986  1.00  0.00     0.109 C 
HETATM    3  C8  UNL     1      24.871   3.204  50.801  1.00  0.00     0.105 C 
HETATM    4  N1  UNL     1      25.518   3.397  49.834  1.00  0.00    -0.191 NA
ENDROOT
BRANCH   2   5
HETATM    5  C9  UNL     1      23.192   4.041  52.439  1.00  0.00     0.259 C 
HETATM    6  N2  UNL     1      23.709   5.226  53.012  1.00  0.00    -0.365 N 
HETATM    7  H9  UNL     1      23.796   5.148  54.053  1.00  0.00     0.159 HD
HETATM    8  H10 UNL     1      23.901   5.950  52.270  1.00  0.00     0.159 HD
HETATM    9  O2  UNL     1      21.943   3.953  52.346  1.00  0.00    -0.267 OA
ENDBRANCH   2   5
BRANCH   1  10
HETATM   10  C5  UNL     1      24.826   0.606  52.708  1.00  0.00     0.068 A 
HETATM   11  C4  UNL     1      26.180   0.773  53.296  1.00  0.00     0.026 A 
HETATM   12  C3  UNL     1      26.309  -0.014  54.356  1.00  0.00     0.099 A 
HETATM   13  C14 UNL     1      25.069  -0.766  54.567  1.00  0.00     0.102 A 
HETATM   14  C10 UNL     1      24.218  -0.398  53.608  1.00  0.00    -0.023 A 
BRANCH  12  15
HETATM   15  O1  UNL     1      27.426  -0.132  55.161  1.00  0.00    -0.349 OA
BRANCH  15  16
HETATM   16  C2  UNL     1      28.736   0.250  54.773  1.00  0.00     0.171 C 
HETATM   17  C1  UNL     1      29.361  -0.774  53.857  1.00  0.00     0.034 C 
ENDBRANCH  15  16
ENDBRANCH  12  15
BRANCH  13  18
HETATM   18  O3  UNL     1      24.809  -1.698  55.582  1.00  0.00    -0.358 OA
HETATM   19  H18 UNL     1      25.445  -1.756  56.343  1.00  0.00     0.217 HD
ENDBRANCH  13  18
BRANCH  14  20
HETATM   20  C11 UNL     1      22.851  -0.904  53.434  1.00  0.00     0.111 C 
BRANCH  20  21
HETATM   21  S1  UNL     1      21.638  -0.074  54.464  1.00  0.00    -0.165 SA
BRANCH  21  22
HETATM   22  C12 UNL     1      20.442   0.886  53.498  1.00  0.00     0.069 C 
HETATM   23  C13 UNL     1      20.693   0.613  52.041  1.00  0.00     0.016 C 
ENDBRANCH  21  22
ENDBRANCH  20  21
ENDBRANCH  14  20
ENDBRANCH   1  10
TORSDOF 8
ENDMDL
MODEL 2
REMARK VINA RESULT:      -6.6      3.139      5.459
REMARK  8 active torsions:
REMARK  status: ('A' for Active; 'I' for Inactive)
REMARK    1  A    between atoms: C2_2  and  O1_3 
REMARK    2  A    between atoms: O1_3  and  C3_4 
REMARK    3  A    between atoms: C5_6  and  C6_7 
REMARK    4  A    between atoms: C7_8  and  C9_11 
REMARK       I    between atoms: C9_11  and  N2_12 
REMARK    5  A    between atoms: C10_14  and  C11_15 
REMARK    6  A    between atoms: C11_15  and  S1_16 
REMARK    7  A    between atoms: S1_16  and  C12_17 
REMARK    8  A    between atoms: C14_19  and  O3_20 
ROOT
HETATM    1  C6  UNL     1      25.890  -0.314  52.678  1.00  0.00     0.014 C 
HETATM    2  C7  UNL     1      26.968  -0.919  53.114  1.00  0.00     0.109 C 
HETATM    3  C8  UNL     1      27.868  -0.344  54.070  1.00  0.00     0.105 C 
HETATM    4  N1  UNL     1      28.624   0.126  54.843  1.00  0.00    -0.191 NA
ENDROOT
BRANCH   2   5
HETATM    5  C9  UNL     1      27.252  -2.247  52.586  1.00  0.00     0.259 C 
HETATM    6  N2  UNL     1      28.323  -3.008  53.109  1.00  0.00    -0.365 N 
HETATM    7  H9  UNL     1      29.212  -2.843  52.579  1.00  0.00     0.159 HD
HETATM    8  H10 UNL     1      28.006  -3.591  53.928  1.00  0.00     0.159 HD
HETATM    9  O2  UNL     1      26.578  -2.773  51.665  1.00  0.00    -0.267 OA
ENDBRANCH   2   5
BRANCH   1  10
HETATM   10  C5  UNL     1      25.173   0.937  52.853  1.00  0.00     0.068 A 
HETATM   11  C4  UNL     1      25.990   2.051  52.308  1.00  0.00     0.026 A 
HETATM   12  C3  UNL     1      25.312   2.682  51.358  1.00  0.00     0.099 A 
HETATM   13  C14 UNL     1      24.000   2.053  51.186  1.00  0.00     0.102 A 
HETATM   14  C10 UNL     1      23.931   1.045  52.057  1.00  0.00    -0.023 A 
BRANCH  12  15
HETATM   15  O1  UNL     1      25.746   3.768  50.621  1.00  0.00    -0.349 OA
BRANCH  15  16
HETATM   16  C2  UNL     1      26.645   3.684  49.527  1.00  0.00     0.171 C 
HETATM   17  C1  UNL     1      26.877   5.036  48.898  1.00  0.00     0.034 C 
ENDBRANCH  15  16
ENDBRANCH  12  15
BRANCH  13  18
HETATM   18  O3  UNL     1      22.996   2.427  50.283  1.00  0.00    -0.358 OA
HETATM   19  H18 UNL     1      22.351   3.131  50.559  1.00  0.00     0.217 HD
ENDBRANCH  13  18
BRANCH  14  20
HETATM   20  C11 UNL     1      22.788   0.139  52.232  1.00  0.00     0.111 C 
BRANCH  20  21
HETATM   21  S1  UNL     1      21.931   0.353  53.795  1.00  0.00    -0.165 SA
BRANCH  21  22
HETATM   22  C12 UNL     1      21.842  -1.181  54.756  1.00  0.00     0.069 C 
HETATM   23  C13 UNL     1      23.158  -1.368  55.459  1.00  0.00     0.016 C 
ENDBRANCH  21  22
ENDBRANCH  20  21
ENDBRANCH  14  20
ENDBRANCH   1  10
TORSDOF 8
ENDMDL
MODEL 3
REMARK VINA RESULT:      -6.2      2.127      2.543
REMARK  8 active torsions:
REMARK  status: ('A' for Active; 'I' for Inactive)
REMARK    1  A    between atoms: C2_2  and  O1_3 
REMARK    2  A    between atoms: O1_3  and  C3_4 
REMARK    3  A    between atoms: C5_6  and  C6_7 
REMARK    4  A    between atoms: C7_8  and  C9_11 
REMARK       I    between atoms: C9_11  and  N2_12 
REMARK    5  A    between atoms: C10_14  and  C11_15 
REMARK    6  A    between atoms: C11_15  and  S1_16 
REMARK    7  A    between atoms: S1_16  and  C12_17 
REMARK    8  A    between atoms: C14_19  and  O3_20 
ROOT
HETATM    1  C6  UNL     1      25.884   1.735  51.297  1.00  0.00     0.014 C 
HETATM    2  C7  UNL     1      25.287   2.716  50.666  1.00  0.00     0.109 C 
HETATM    3  C8  UNL     1      23.886   2.726  50.359  1.00  0.00     0.105 C 
HETATM    4  N1  UNL     1      22.739   2.737  50.088  1.00  0.00    -0.191 NA
ENDROOT
BRANCH   2   5
HETATM    5  C9  UNL     1      26.107   3.851  50.260  1.00  0.00     0.259 C 
HETATM    6  N2  UNL     1      25.667   5.172  50.504  1.00  0.00    -0.365 N 
HETATM    7  H9  UNL     1      25.118   5.555  49.698  1.00  0.00     0.159 HD
HETATM    8  H10 UNL     1      25.984   5.505  51.454  1.00  0.00     0.159 HD
HETATM    9  O2  UNL     1      27.218   3.718  49.689  1.00  0.00    -0.267 OA
ENDBRANCH   2   5
BRANCH   1  10
HETATM   10  C5  UNL     1      25.573   0.446  51.890  1.00  0.00     0.068 A 
HETATM   11  C4  UNL     1      26.803  -0.386  51.928  1.00  0.00     0.026 A 
HETATM   12  C3  UNL     1      27.071  -0.734  53.180  1.00  0.00     0.099 A 
HETATM   13  C14 UNL     1      26.057  -0.174  54.076  1.00  0.00     0.102 A 
HETATM   14  C10 UNL     1      25.196   0.507  53.318  1.00  0.00    -0.023 A 
BRANCH  12  15
HETATM   15  O1  UNL     1      28.134  -1.505  53.609  1.00  0.00    -0.349 OA
BRANCH  15  16
HETATM   16  C2  UNL     1      29.498  -1.164  53.418  1.00  0.00     0.171 C 
HETATM   17  C1  UNL     1      29.760   0.281  53.770  1.00  0.00     0.034 C 
ENDBRANCH  15  16
ENDBRANCH  12  15
BRANCH  13  18
HETATM   18  O3  UNL     1      25.990  -0.316  55.470  1.00  0.00    -0.358 OA
HETATM   19  H18 UNL     1      25.120  -0.146  55.920  1.00  0.00     0.217 HD
ENDBRANCH  13  18
BRANCH  14  20
HETATM   20  C11 UNL     1      24.014   1.233  53.803  1.00  0.00     0.111 C 
BRANCH  20  21
HETATM   21  S1  UNL     1      22.459   0.541  53.235  1.00  0.00    -0.165 SA
BRANCH  21  22
HETATM   22  C12 UNL     1      21.540  -0.288  54.559  1.00  0.00     0.069 C 
HETATM   23  C13 UNL     1      22.384  -1.422  55.074  1.00  0.00     0.016 C 
ENDBRANCH  21  22
ENDBRANCH  20  21
ENDBRANCH  14  20
ENDBRANCH   1  10
TORSDOF 8
ENDMDL
MODEL 4
REMARK VINA RESULT:      -6.1      2.948      5.995
REMARK  8 active torsions:
REMARK  status: ('A' for Active; 'I' for Inactive)
REMARK    1  A    between atoms: C2_2  and  O1_3 
REMARK    2  A    between atoms: O1_3  and  C3_4 
REMARK    3  A    between atoms: C5_6  and  C6_7 
REMARK    4  A    between atoms: C7_8  and  C9_11 
REMARK       I    between atoms: C9_11  and  N2_12 
REMARK    5  A    between atoms: C10_14  and  C11_15 
REMARK    6  A    between atoms: C11_15  and  S1_16 
REMARK    7  A    between atoms: S1_16  and  C12_17 
REMARK    8  A    between atoms: C14_19  and  O3_20 
ROOT
HETATM    1  C6  UNL     1      23.736  -0.291  53.620  1.00  0.00     0.014 C 
HETATM    2  C7  UNL     1      25.043  -0.266  53.709  1.00  0.00     0.109 C 
HETATM    3  C8  UNL     1      25.905   0.095  52.622  1.00  0.00     0.105 C 
HETATM    4  N1  UNL     1      26.623   0.373  51.729  1.00  0.00    -0.191 NA
ENDROOT
BRANCH   2   5
HETATM    5  C9  UNL     1      25.636  -0.628  54.990  1.00  0.00     0.259 C 
HETATM    6  N2  UNL     1      24.928  -1.450  55.897  1.00  0.00    -0.365 N 
HETATM    7  H9  UNL     1      24.354  -0.884  56.567  1.00  0.00     0.159 HD
HETATM    8  H10 UNL     1      25.125  -2.469  55.714  1.00  0.00     0.159 HD
HETATM    9  O2  UNL     1      26.777  -0.242  55.346  1.00  0.00    -0.267 OA
ENDBRANCH   2   5
BRANCH   1  10
HETATM   10  C5  UNL     1      22.685  -0.040  52.649  1.00  0.00     0.068 A 
HETATM   11  C4  UNL     1      21.476  -0.817  53.025  1.00  0.00     0.026 A 
HETATM   12  C3  UNL     1      20.451   0.006  53.204  1.00  0.00     0.099 A 
HETATM   13  C14 UNL     1      20.880   1.387  52.968  1.00  0.00     0.102 A 
HETATM   14  C10 UNL     1      22.174   1.347  52.648  1.00  0.00    -0.023 A 
BRANCH  12  15
HETATM   15  O1  UNL     1      19.164  -0.348  53.561  1.00  0.00    -0.349 OA
BRANCH  15  16
HETATM   16  C2  UNL     1      18.146  -0.698  52.636  1.00  0.00     0.171 C 
HETATM   17  C1  UNL     1      18.423  -0.124  51.267  1.00  0.00     0.034 C 
ENDBRANCH  15  16
ENDBRANCH  12  15
BRANCH  13  18
HETATM   18  O3  UNL     1      20.091   2.543  53.058  1.00  0.00    -0.358 OA
HETATM   19  H18 UNL     1      19.594   2.839  52.250  1.00  0.00     0.217 HD
ENDBRANCH  13  18
BRANCH  14  20
HETATM   20  C11 UNL     1      23.014   2.508  52.327  1.00  0.00     0.111 C 
BRANCH  20  21
HETATM   21  S1  UNL     1      23.605   2.526  50.633  1.00  0.00    -0.165 SA
BRANCH  21  22
HETATM   22  C12 UNL     1      22.267   2.744  49.430  1.00  0.00     0.069 C 
HETATM   23  C13 UNL     1      21.715   1.387  49.094  1.00  0.00     0.016 C 
ENDBRANCH  21  22
ENDBRANCH  20  21
ENDBRANCH  14  20
ENDBRANCH   1  10
TORSDOF 8
ENDMDL
MODEL 5
REMARK VINA RESULT:      -6.1      3.104      5.854
REMARK  8 active torsions:
REMARK  status: ('A' for Active; 'I' for Inactive)
REMARK    1  A    between atoms: C2_2  and  O1_3 
REMARK    2  A    between atoms: O1_3  and  C3_4 
REMARK    3  A    between atoms: C5_6  and  C6_7 
REMARK    4  A    between atoms: C7_8  and  C9_11 
REMARK       I    between atoms: C9_11  and  N2_12 
REMARK    5  A    between atoms: C10_14  and  C11_15 
REMARK    6  A    between atoms: C11_15  and  S1_16 
REMARK    7  A    between atoms: S1_16  and  C12_17 
REMARK    8  A    between atoms: C14_19  and  O3_20 
ROOT
HETATM    1  C6  UNL     1      22.550  -0.010  53.111  1.00  0.00     0.014 C 
HETATM    2  C7  UNL     1      21.282  -0.323  53.002  1.00  0.00     0.109 C 
HETATM    3  C8  UNL     1      20.449   0.107  51.917  1.00  0.00     0.105 C 
HETATM    4  N1  UNL     1      19.752   0.469  51.039  1.00  0.00    -0.191 NA
ENDROOT
BRANCH   2   5
HETATM    5  C9  UNL     1      20.703  -1.155  54.050  1.00  0.00     0.259 C 
HETATM    6  N2  UNL     1      19.339  -1.523  53.996  1.00  0.00    -0.365 N 
HETATM    7  H9  UNL     1      18.731  -0.836  54.502  1.00  0.00     0.159 HD
HETATM    8  H10 UNL     1      19.213  -2.420  53.455  1.00  0.00     0.159 HD
HETATM    9  O2  UNL     1      21.367  -1.577  55.029  1.00  0.00    -0.267 OA
ENDBRANCH   2   5
BRANCH   1  10
HETATM   10  C5  UNL     1      23.572   0.741  52.404  1.00  0.00     0.068 A 
HETATM   11  C4  UNL     1      23.097   2.133  52.190  1.00  0.00     0.026 A 
HETATM   12  C3  UNL     1      23.942   2.987  52.751  1.00  0.00     0.099 A 
HETATM   13  C14 UNL     1      25.041   2.252  53.382  1.00  0.00     0.102 A 
HETATM   14  C10 UNL     1      24.816   0.954  53.174  1.00  0.00    -0.023 A 
BRANCH  12  15
HETATM   15  O1  UNL     1      23.833   4.365  52.760  1.00  0.00    -0.349 OA
BRANCH  15  16
HETATM   16  C2  UNL     1      23.721   5.166  51.594  1.00  0.00     0.171 C 
HETATM   17  C1  UNL     1      22.323   5.713  51.434  1.00  0.00     0.034 C 
ENDBRANCH  15  16
ENDBRANCH  12  15
BRANCH  13  18
HETATM   18  O3  UNL     1      26.131   2.796  54.076  1.00  0.00    -0.358 OA
HETATM   19  H18 UNL     1      26.049   3.719  54.435  1.00  0.00     0.217 HD
ENDBRANCH  13  18
BRANCH  14  20
HETATM   20  C11 UNL     1      25.670  -0.149  53.633  1.00  0.00     0.111 C 
BRANCH  20  21
HETATM   21  S1  UNL     1      27.157  -0.367  52.652  1.00  0.00    -0.165 SA
BRANCH  21  22
HETATM   22  C12 UNL     1      28.569   0.560  53.311  1.00  0.00     0.069 C 
HETATM   23  C13 UNL     1      28.800   0.115  54.728  1.00  0.00     0.016 C 
ENDBRANCH  21  22
ENDBRANCH  20  21
ENDBRANCH  14  20
ENDBRANCH   1  10
TORSDOF 8
ENDMDL
MODEL 6
REMARK VINA RESULT:      -6.0      2.711      5.713
REMARK  8 active torsions:
REMARK  status: ('A' for Active; 'I' for Inactive)
REMARK    1  A    between atoms: C2_2  and  O1_3 
REMARK    2  A    between atoms: O1_3  and  C3_4 
REMARK    3  A    between atoms: C5_6  and  C6_7 
REMARK    4  A    between atoms: C7_8  and  C9_11 
REMARK       I    between atoms: C9_11  and  N2_12 
REMARK    5  A    between atoms: C10_14  and  C11_15 
REMARK    6  A    between atoms: C11_15  and  S1_16 
REMARK    7  A    between atoms: S1_16  and  C12_17 
REMARK    8  A    between atoms: C14_19  and  O3_20 
ROOT
HETATM    1  C6  UNL     1      24.993   0.914  53.111  1.00  0.00     0.014 C 
HETATM    2  C7  UNL     1      26.157   0.384  53.396  1.00  0.00     0.109 C 
HETATM    3  C8  UNL     1      26.534  -0.948  53.022  1.00  0.00     0.105 C 
HETATM    4  N1  UNL     1      26.848  -2.048  52.735  1.00  0.00    -0.191 NA
ENDROOT
BRANCH   2   5
HETATM    5  C9  UNL     1      27.108   1.206  54.133  1.00  0.00     0.259 C 
HETATM    6  N2  UNL     1      27.170   2.601  53.907  1.00  0.00    -0.365 N 
HETATM    7  H9  UNL     1      27.865   2.844  53.162  1.00  0.00     0.159 HD
HETATM    8  H10 UNL     1      26.500   3.115  54.539  1.00  0.00     0.159 HD
HETATM    9  O2  UNL     1      27.900   0.734  54.985  1.00  0.00    -0.267 OA
ENDBRANCH   2   5
BRANCH   1  10
HETATM   10  C5  UNL     1      23.751   0.569  52.442  1.00  0.00     0.068 A 
HETATM   11  C4  UNL     1      23.006  -0.415  53.269  1.00  0.00     0.026 A 
HETATM   12  C3  UNL     1      21.812   0.071  53.579  1.00  0.00     0.099 A 
HETATM   13  C14 UNL     1      21.655   1.406  52.995  1.00  0.00     0.102 A 
HETATM   14  C10 UNL     1      22.783   1.683  52.340  1.00  0.00    -0.023 A 
BRANCH  12  15
HETATM   15  O1  UNL     1      20.839  -0.556  54.335  1.00  0.00    -0.349 OA
BRANCH  15  16
HETATM   16  C2  UNL     1      19.938  -1.529  53.831  1.00  0.00     0.171 C 
HETATM   17  C1  UNL     1      18.752  -0.885  53.155  1.00  0.00     0.034 C 
ENDBRANCH  15  16
ENDBRANCH  12  15
BRANCH  13  18
HETATM   18  O3  UNL     1      20.537   2.246  53.097  1.00  0.00    -0.358 OA
HETATM   19  H18 UNL     1      20.653   3.212  52.894  1.00  0.00     0.217 HD
ENDBRANCH  13  18
BRANCH  14  20
HETATM   20  C11 UNL     1      23.064   2.921  51.601  1.00  0.00     0.111 C 
BRANCH  20  21
HETATM   21  S1  UNL     1      23.652   2.645  49.928  1.00  0.00    -0.165 SA
BRANCH  21  22
HETATM   22  C12 UNL     1      25.158   3.579  49.555  1.00  0.00     0.069 C 
HETATM   23  C13 UNL     1      26.323   2.852  50.168  1.00  0.00     0.016 C 
ENDBRANCH  21  22
ENDBRANCH  20  21
ENDBRANCH  14  20
ENDBRANCH   1  10
TORSDOF 8
ENDMDL
MODEL 7
REMARK VINA RESULT:      -6.0      3.023      5.307
REMARK  8 active torsions:
REMARK  status: ('A' for Active; 'I' for Inactive)
REMARK    1  A    between atoms: C2_2  and  O1_3 
REMARK    2  A    between atoms: O1_3  and  C3_4 
REMARK    3  A    between atoms: C5_6  and  C6_7 
REMARK    4  A    between atoms: C7_8  and  C9_11 
REMARK       I    between atoms: C9_11  and  N2_12 
REMARK    5  A    between atoms: C10_14  and  C11_15 
REMARK    6  A    between atoms: C11_15  and  S1_16 
REMARK    7  A    between atoms: S1_16  and  C12_17 
REMARK    8  A    between atoms: C14_19  and  O3_20 
ROOT
HETATM    1  C6  UNL     1      26.553   0.949  52.869  1.00  0.00     0.014 C 
HETATM    2  C7  UNL     1      27.765   0.667  53.278  1.00  0.00     0.109 C 
HETATM    3  C8  UNL     1      28.292  -0.666  53.337  1.00  0.00     0.105 C 
HETATM    4  N1  UNL     1      28.729  -1.759  53.405  1.00  0.00    -0.191 NA
ENDROOT
BRANCH   2   5
HETATM    5  C9  UNL     1      28.611   1.779  53.692  1.00  0.00     0.259 C 
HETATM    6  N2  UNL     1      29.223   1.773  54.967  1.00  0.00    -0.365 N 
HETATM    7  H9  UNL     1      28.624   2.241  55.688  1.00  0.00     0.159 HD
HETATM    8  H10 UNL     1      30.164   1.298  54.931  1.00  0.00     0.159 HD
HETATM    9  O2  UNL     1      28.836   2.773  52.958  1.00  0.00    -0.267 OA
ENDBRANCH   2   5
BRANCH   1  10
HETATM   10  C5  UNL     1      25.364   0.277  52.375  1.00  0.00     0.068 A 
HETATM   11  C4  UNL     1      24.777  -0.545  53.465  1.00  0.00     0.026 A 
HETATM   12  C3  UNL     1      23.530  -0.158  53.697  1.00  0.00     0.099 A 
HETATM   13  C14 UNL     1      23.177   0.942  52.796  1.00  0.00     0.102 A 
HETATM   14  C10 UNL     1      24.247   1.185  52.036  1.00  0.00    -0.023 A 
BRANCH  12  15
HETATM   15  O1  UNL     1      22.666  -0.687  54.638  1.00  0.00    -0.349 OA
BRANCH  15  16
HETATM   16  C2  UNL     1      21.775  -1.763  54.389  1.00  0.00     0.171 C 
HETATM   17  C1  UNL     1      20.404  -1.266  54.001  1.00  0.00     0.034 C 
ENDBRANCH  15  16
ENDBRANCH  12  15
BRANCH  13  18
HETATM   18  O3  UNL     1      21.953   1.622  52.732  1.00  0.00    -0.358 OA
HETATM   19  H18 UNL     1      21.964   2.595  52.528  1.00  0.00     0.217 HD
ENDBRANCH  13  18
BRANCH  14  20
HETATM   20  C11 UNL     1      24.339   2.209  50.988  1.00  0.00     0.111 C 
BRANCH  20  21
HETATM   21  S1  UNL     1      24.212   3.889  51.607  1.00  0.00    -0.165 SA
BRANCH  21  22
HETATM   22  C12 UNL     1      22.864   4.818  50.830  1.00  0.00     0.069 C 
HETATM   23  C13 UNL     1      23.282   5.162  49.427  1.00  0.00     0.016 C 
ENDBRANCH  21  22
ENDBRANCH  20  21
ENDBRANCH  14  20
ENDBRANCH   1  10
TORSDOF 8
ENDMDL
MODEL 8
REMARK VINA RESULT:      -6.0      3.168      4.300
REMARK  8 active torsions:
REMARK  status: ('A' for Active; 'I' for Inactive)
REMARK    1  A    between atoms: C2_2  and  O1_3 
REMARK    2  A    between atoms: O1_3  and  C3_4 
REMARK    3  A    between atoms: C5_6  and  C6_7 
REMARK    4  A    between atoms: C7_8  and  C9_11 
REMARK       I    between atoms: C9_11  and  N2_12 
REMARK    5  A    between atoms: C10_14  and  C11_15 
REMARK    6  A    between atoms: C11_15  and  S1_16 
REMARK    7  A    between atoms: S1_16  and  C12_17 
REMARK    8  A    between atoms: C14_19  and  O3_20 
ROOT
HETATM    1  C6  UNL     1      22.900   0.718  52.663  1.00  0.00     0.014 C 
HETATM    2  C7  UNL     1      21.809  -0.006  52.726  1.00  0.00     0.109 C 
HETATM    3  C8  UNL     1      21.512  -0.899  53.808  1.00  0.00     0.105 C 
HETATM    4  N1  UNL     1      21.266  -1.648  54.684  1.00  0.00    -0.191 NA
ENDROOT
BRANCH   2   5
HETATM    5  C9  UNL     1      20.858   0.115  51.629  1.00  0.00     0.259 C 
HETATM    6  N2  UNL     1      19.468   0.029  51.877  1.00  0.00    -0.365 N 
HETATM    7  H9  UNL     1      19.118  -0.955  51.788  1.00  0.00     0.159 HD
HETATM    8  H10 UNL     1      19.067   0.978  52.100  1.00  0.00     0.159 HD
HETATM    9  O2  UNL     1      21.212   0.299  50.438  1.00  0.00    -0.267 OA
ENDBRANCH   2   5
BRANCH   1  10
HETATM   10  C5  UNL     1      24.108   0.974  53.428  1.00  0.00     0.068 A 
HETATM   11  C4  UNL     1      25.102  -0.093  53.146  1.00  0.00     0.026 A 
HETATM   12  C3  UNL     1      26.213   0.445  52.661  1.00  0.00     0.099 A 
HETATM   13  C14 UNL     1      26.061   1.900  52.577  1.00  0.00     0.102 A 
HETATM   14  C10 UNL     1      24.839   2.194  53.023  1.00  0.00    -0.023 A 
BRANCH  12  15
HETATM   15  O1  UNL     1      27.357  -0.231  52.281  1.00  0.00    -0.349 OA
BRANCH  15  16
HETATM   16  C2  UNL     1      28.203  -0.936  53.176  1.00  0.00     0.171 C 
HETATM   17  C1  UNL     1      28.762  -0.023  54.241  1.00  0.00     0.034 C 
ENDBRANCH  15  16
ENDBRANCH  12  15
BRANCH  13  18
HETATM   18  O3  UNL     1      27.011   2.823  52.116  1.00  0.00    -0.358 OA
HETATM   19  H18 UNL     1      27.647   3.213  52.773  1.00  0.00     0.217 HD
ENDBRANCH  13  18
BRANCH  14  20
HETATM   20  C11 UNL     1      24.261   3.541  53.118  1.00  0.00     0.111 C 
BRANCH  20  21
HETATM   21  S1  UNL     1      23.731   4.211  51.539  1.00  0.00    -0.165 SA
BRANCH  21  22
HETATM   22  C12 UNL     1      22.051   4.886  51.598  1.00  0.00     0.069 C 
HETATM   23  C13 UNL     1      21.146   3.837  52.182  1.00  0.00     0.016 C 
ENDBRANCH  21  22
ENDBRANCH  20  21
ENDBRANCH  14  20
ENDBRANCH   1  10
TORSDOF 8
ENDMDL
MODEL 9
REMARK VINA RESULT:      -5.7      3.206      4.598
REMARK  8 active torsions:
REMARK  status: ('A' for Active; 'I' for Inactive)
REMARK    1  A    between atoms: C2_2  and  O1_3 
REMARK    2  A    between atoms: O1_3  and  C3_4 
REMARK    3  A    between atoms: C5_6  and  C6_7 
REMARK    4  A    between atoms: C7_8  and  C9_11 
REMARK       I    between atoms: C9_11  and  N2_12 
REMARK    5  A    between atoms: C10_14  and  C11_15 
REMARK    6  A    between atoms: C11_15  and  S1_16 
REMARK    7  A    between atoms: S1_16  and  C12_17 
REMARK    8  A    between atoms: C14_19  and  O3_20 
ROOT
HETATM    1  C6  UNL     1      22.734   1.720  50.962  1.00  0.00     0.014 C 
HETATM    2  C7  UNL     1      21.441   1.822  50.769  1.00  0.00     0.109 C 
HETATM    3  C8  UNL     1      20.548   2.447  51.701  1.00  0.00     0.105 C 
HETATM    4  N1  UNL     1      19.803   2.943  52.467  1.00  0.00    -0.191 NA
ENDROOT
BRANCH   2   5
HETATM    5  C9  UNL     1      20.900   1.265  49.537  1.00  0.00     0.259 C 
HETATM    6  N2  UNL     1      19.501   1.218  49.329  1.00  0.00    -0.365 N 
HETATM    7  H9  UNL     1      19.089   0.316  49.665  1.00  0.00     0.159 HD
HETATM    8  H10 UNL     1      19.159   2.106  48.874  1.00  0.00     0.159 HD
HETATM    9  O2  UNL     1      21.626   0.810  48.618  1.00  0.00    -0.267 OA
ENDBRANCH   2   5
BRANCH   1  10
HETATM   10  C5  UNL     1      23.740   2.074  51.947  1.00  0.00     0.068 A 
HETATM   11  C4  UNL     1      24.569   0.880  52.252  1.00  0.00     0.026 A 
HETATM   12  C3  UNL     1      25.843   1.138  51.984  1.00  0.00     0.099 A 
HETATM   13  C14 UNL     1      25.975   2.508  51.483  1.00  0.00     0.102 A 
HETATM   14  C10 UNL     1      24.752   3.039  51.466  1.00  0.00    -0.023 A 
BRANCH  12  15
HETATM   15  O1  UNL     1      26.908   0.270  52.141  1.00  0.00    -0.349 OA
BRANCH  15  16
HETATM   16  C2  UNL     1      27.112  -0.547  53.283  1.00  0.00     0.171 C 
HETATM   17  C1  UNL     1      27.535   0.271  54.478  1.00  0.00     0.034 C 
ENDBRANCH  15  16
ENDBRANCH  12  15
BRANCH  13  18
HETATM   18  O3  UNL     1      27.156   3.153  51.090  1.00  0.00    -0.358 OA
HETATM   19  H18 UNL     1      27.749   2.695  50.437  1.00  0.00     0.217 HD
ENDBRANCH  13  18
BRANCH  14  20
HETATM   20  C11 UNL     1      24.415   4.402  51.034  1.00  0.00     0.111 C 
BRANCH  20  21
HETATM   21  S1  UNL     1      23.262   5.241  52.124  1.00  0.00    -0.165 SA
BRANCH  21  22
HETATM   22  C12 UNL     1      21.793   5.846  51.253  1.00  0.00     0.069 C 
HETATM   23  C13 UNL     1      21.899   5.427  49.812  1.00  0.00     0.016 C 
ENDBRANCH  21  22
ENDBRANCH  20  21
ENDBRANCH  14  20
ENDBRANCH   1  10
TORSDOF 8
ENDMDL
