MODEL 1
REMARK VINA RESULT:      -8.1      0.000      0.000
REMARK  6 active torsions:
REMARK  status: ('A' for Active; 'I' for Inactive)
REMARK    1  A    between atoms: C4_5  and  N2_6 
REMARK    2  A    between atoms: N2_6  and  C5_7 
REMARK    3  A    between atoms: C5_7  and  C6_8 
REMARK    4  A    between atoms: C7_9  and  O1_11 
REMARK    5  A    between atoms: O1_11  and  C8_12 
REMARK    6  A    between atoms: C8_12  and  C9_13 
ROOT
HETATM    1  N2  UNL     1      22.815   2.964  50.194  1.00  0.00    -0.391 N 
HETATM    2  H5  UNL     1      22.568   2.691  49.210  1.00  0.00     0.159 HD
ENDROOT
BRANCH   1   3
HETATM    3  C4  UNL     1      23.699   2.206  50.985  1.00  0.00     0.011 C 
HETATM    4  C3  UNL     1      22.834   1.447  51.738  1.00  0.00     0.183 C 
HETATM    5  N1  UNL     1      22.686   0.489  52.710  1.00  0.00    -0.280 NA
HETATM    6  C2  UNL     1      23.407  -0.255  53.461  1.00  0.00     0.037 C 
HETATM    7  C1  UNL     1      22.770  -1.199  54.421  1.00  0.00     0.071 C 
HETATM    8  C19 UNL     1      24.903  -0.316  53.518  1.00  0.00     0.000 C 
HETATM    9  C18 UNL     1      26.018  -0.416  52.514  1.00  0.00     0.022 C 
HETATM   10  C20 UNL     1      25.548  -0.282  54.677  1.00  0.00    -0.001 C 
HETATM   11  C17 UNL     1      26.371   0.940  52.332  1.00  0.00    -0.051 C 
HETATM   12  C16 UNL     1      26.478   2.019  51.235  1.00  0.00     0.068 C 
HETATM   13  C22 UNL     1      26.729   1.288  53.768  1.00  0.00     0.020 C 
HETATM   14  C15 UNL     1      25.228   2.449  50.772  1.00  0.00     0.028 C 
HETATM   15  C21 UNL     1      26.613   0.467  54.836  1.00  0.00    -0.012 C 
ENDBRANCH   1   3
BRANCH   1  16
HETATM   16  C5  UNL     1      22.408   4.079  51.029  1.00  0.00     0.151 C 
BRANCH  16  17
HETATM   17  C6  UNL     1      22.946   5.317  50.446  1.00  0.00     0.061 C 
HETATM   18  C7  UNL     1      23.898   5.957  51.080  1.00  0.00     0.223 C 
HETATM   19  F1  UNL     1      24.253   5.339  52.239  1.00  0.00    -0.179 F 
BRANCH  18  20
HETATM   20  O1  UNL     1      24.530   7.113  50.716  1.00  0.00    -0.323 OA
BRANCH  20  21
HETATM   21  C8  UNL     1      25.010   7.424  49.446  1.00  0.00     0.216 C 
BRANCH  21  22
HETATM   22  C9  UNL     1      26.234   6.676  49.059  1.00  0.00    -0.034 A 
HETATM   23  C10 UNL     1      26.415   5.309  49.030  1.00  0.00     0.009 A 
HETATM   24  C11 UNL     1      27.632   4.782  48.640  1.00  0.00     0.001 A 
HETATM   25  C12 UNL     1      28.698   5.587  48.269  1.00  0.00     0.000 A 
HETATM   26  C13 UNL     1      28.488   6.953  48.306  1.00  0.00     0.001 A 
HETATM   27  C14 UNL     1      27.276   7.522  48.694  1.00  0.00     0.009 A 
ENDBRANCH  21  22
ENDBRANCH  20  21
ENDBRANCH  18  20
ENDBRANCH  16  17
ENDBRANCH   1  16
TORSDOF 6
ENDMDL
MODEL 2
REMARK VINA RESULT:      -8.0      1.788      2.888
REMARK  6 active torsions:
REMARK  status: ('A' for Active; 'I' for Inactive)
REMARK    1  A    between atoms: C4_5  and  N2_6 
REMARK    2  A    between atoms: N2_6  and  C5_7 
REMARK    3  A    between atoms: C5_7  and  C6_8 
REMARK    4  A    between atoms: C7_9  and  O1_11 
REMARK    5  A    between atoms: O1_11  and  C8_12 
REMARK    6  A    between atoms: C8_12  and  C9_13 
ROOT
HETATM    1  N2  UNL     1      22.869   3.024  52.362  1.00  0.00    -0.391 N 
HETATM    2  H5  UNL     1      22.531   3.788  52.999  1.00  0.00     0.159 HD
ENDROOT
BRANCH   1   3
HETATM    3  C4  UNL     1      23.798   2.053  52.779  1.00  0.00     0.011 C 
HETATM    4  C3  UNL     1      24.965   2.778  52.847  1.00  0.00     0.183 C 
HETATM    5  N1  UNL     1      26.309   2.778  53.120  1.00  0.00    -0.280 NA
HETATM    6  C2  UNL     1      27.223   1.971  53.512  1.00  0.00     0.037 C 
HETATM    7  C1  UNL     1      28.626   2.445  53.677  1.00  0.00     0.071 C 
HETATM    8  C19 UNL     1      27.074   0.520  53.852  1.00  0.00     0.000 C 
HETATM    9  C18 UNL     1      26.127  -0.303  54.682  1.00  0.00     0.022 C 
HETATM   10  C20 UNL     1      27.914  -0.388  53.370  1.00  0.00    -0.001 C 
HETATM   11  C17 UNL     1      25.188  -0.731  53.718  1.00  0.00    -0.051 C 
HETATM   12  C16 UNL     1      23.680  -0.673  53.397  1.00  0.00     0.068 C 
HETATM   13  C22 UNL     1      26.130  -1.459  52.773  1.00  0.00     0.020 C 
HETATM   14  C15 UNL     1      23.256   0.604  53.009  1.00  0.00     0.028 C 
HETATM   15  C21 UNL     1      27.476  -1.526  52.890  1.00  0.00    -0.012 C 
ENDBRANCH   1   3
BRANCH   1  16
HETATM   16  C5  UNL     1      22.560   2.696  50.982  1.00  0.00     0.151 C 
BRANCH  16  17
HETATM   17  C6  UNL     1      22.712   3.912  50.171  1.00  0.00     0.061 C 
HETATM   18  C7  UNL     1      23.737   4.012  49.360  1.00  0.00     0.223 C 
HETATM   19  F1  UNL     1      24.539   2.914  49.403  1.00  0.00    -0.179 F 
BRANCH  18  20
HETATM   20  O1  UNL     1      24.061   5.046  48.527  1.00  0.00    -0.323 OA
BRANCH  20  21
HETATM   21  C8  UNL     1      24.746   6.206  48.883  1.00  0.00     0.216 C 
BRANCH  21  22
HETATM   22  C9  UNL     1      26.187   6.196  48.521  1.00  0.00    -0.034 A 
HETATM   23  C10 UNL     1      27.125   5.229  48.814  1.00  0.00     0.009 A 
HETATM   24  C11 UNL     1      28.432   5.385  48.394  1.00  0.00     0.001 A 
HETATM   25  C12 UNL     1      28.848   6.497  47.678  1.00  0.00     0.000 A 
HETATM   26  C13 UNL     1      27.887   7.451  47.397  1.00  0.00     0.001 A 
HETATM   27  C14 UNL     1      26.559   7.328  47.804  1.00  0.00     0.009 A 
ENDBRANCH  21  22
ENDBRANCH  20  21
ENDBRANCH  18  20
ENDBRANCH  16  17
ENDBRANCH   1  16
TORSDOF 6
ENDMDL
MODEL 3
REMARK VINA RESULT:      -7.9      2.522      7.816
REMARK  6 active torsions:
REMARK  status: ('A' for Active; 'I' for Inactive)
REMARK    1  A    between atoms: C4_5  and  N2_6 
REMARK    2  A    between atoms: N2_6  and  C5_7 
REMARK    3  A    between atoms: C5_7  and  C6_8 
REMARK    4  A    between atoms: C7_9  and  O1_11 
REMARK    5  A    between atoms: O1_11  and  C8_12 
REMARK    6  A    between atoms: C8_12  and  C9_13 
ROOT
HETATM    1  N2  UNL     1      25.232   3.566  49.598  1.00  0.00    -0.391 N 
HETATM    2  H5  UNL     1      25.044   2.819  48.883  1.00  0.00     0.159 HD
ENDROOT
BRANCH   1   3
HETATM    3  C4  UNL     1      25.844   4.788  49.263  1.00  0.00     0.011 C 
HETATM    4  C3  UNL     1      27.129   4.397  48.965  1.00  0.00     0.183 C 
HETATM    5  N1  UNL     1      28.387   4.775  48.570  1.00  0.00    -0.280 NA
HETATM    6  C2  UNL     1      29.027   5.832  48.234  1.00  0.00     0.037 C 
HETATM    7  C1  UNL     1      30.467   5.754  47.860  1.00  0.00     0.071 C 
HETATM    8  C19 UNL     1      28.498   7.231  48.158  1.00  0.00     0.000 C 
HETATM    9  C18 UNL     1      27.284   7.896  47.570  1.00  0.00     0.022 C 
HETATM   10  C20 UNL     1      29.158   8.245  48.703  1.00  0.00    -0.001 C 
HETATM   11  C17 UNL     1      26.406   7.935  48.677  1.00  0.00    -0.051 C 
HETATM   12  C16 UNL     1      25.011   7.454  49.124  1.00  0.00     0.068 C 
HETATM   13  C22 UNL     1      27.269   8.738  49.637  1.00  0.00     0.020 C 
HETATM   14  C15 UNL     1      24.952   6.071  49.331  1.00  0.00     0.028 C 
HETATM   15  C21 UNL     1      28.533   9.158  49.406  1.00  0.00    -0.012 C 
ENDBRANCH   1   3
BRANCH   1  16
HETATM   16  C5  UNL     1      24.975   3.641  51.024  1.00  0.00     0.151 C 
BRANCH  16  17
HETATM   17  C6  UNL     1      25.472   2.407  51.650  1.00  0.00     0.061 C 
HETATM   18  C7  UNL     1      25.104   2.124  52.876  1.00  0.00     0.223 C 
HETATM   19  F1  UNL     1      24.277   3.068  53.400  1.00  0.00    -0.179 F 
BRANCH  18  20
HETATM   20  O1  UNL     1      25.449   1.040  53.635  1.00  0.00    -0.323 OA
BRANCH  20  21
HETATM   21  C8  UNL     1      25.746  -0.236  53.161  1.00  0.00     0.216 C 
BRANCH  21  22
HETATM   22  C9  UNL     1      27.176  -0.616  53.293  1.00  0.00    -0.034 A 
HETATM   23  C10 UNL     1      27.770  -1.808  52.936  1.00  0.00     0.009 A 
HETATM   24  C11 UNL     1      29.126  -1.990  53.132  1.00  0.00     0.001 A 
HETATM   25  C12 UNL     1      29.929  -1.004  53.684  1.00  0.00     0.000 A 
HETATM   26  C13 UNL     1      29.308   0.181  54.032  1.00  0.00     0.001 A 
HETATM   27  C14 UNL     1      27.943   0.402  53.850  1.00  0.00     0.009 A 
ENDBRANCH  21  22
ENDBRANCH  20  21
ENDBRANCH  18  20
ENDBRANCH  16  17
ENDBRANCH   1  16
TORSDOF 6
ENDMDL
MODEL 4
REMARK VINA RESULT:      -7.8      3.365      6.686
REMARK  6 active torsions:
REMARK  status: ('A' for Active; 'I' for Inactive)
REMARK    1  A    between atoms: C4_5  and  N2_6 
REMARK    2  A    between atoms: N2_6  and  C5_7 
REMARK    3  A    between atoms: C5_7  and  C6_8 
REMARK    4  A    between atoms: C7_9  and  O1_11 
REMARK    5  A    between atoms: O1_11  and  C8_12 
REMARK    6  A    between atoms: C8_12  and  C9_13 
ROOT
HETATM    1  N2  UNL     1      20.484   1.694  52.978  1.00  0.00    -0.391 N 
HETATM    2  H5  UNL     1      19.917   2.338  53.585  1.00  0.00     0.159 HD
ENDROOT
BRANCH   1   3
HETATM    3  C4  UNL     1      21.223   2.157  51.874  1.00  0.00     0.011 C 
HETATM    4  C3  UNL     1      21.745   3.338  52.350  1.00  0.00     0.183 C 
HETATM    5  N1  UNL     1      22.521   4.441  52.098  1.00  0.00    -0.280 NA
HETATM    6  C2  UNL     1      23.232   4.937  51.156  1.00  0.00     0.037 C 
HETATM    7  C1  UNL     1      23.934   6.237  51.347  1.00  0.00     0.071 C 
HETATM    8  C19 UNL     1      23.477   4.357  49.797  1.00  0.00     0.000 C 
HETATM    9  C18 UNL     1      23.867   3.011  49.251  1.00  0.00     0.022 C 
HETATM   10  C20 UNL     1      23.354   5.097  48.703  1.00  0.00    -0.001 C 
HETATM   11  C17 UNL     1      22.610   2.441  48.949  1.00  0.00    -0.051 C 
HETATM   12  C16 UNL     1      21.728   1.222  49.287  1.00  0.00     0.068 C 
HETATM   13  C22 UNL     1      22.102   3.490  47.973  1.00  0.00     0.020 C 
HETATM   14  C15 UNL     1      21.214   1.267  50.589  1.00  0.00     0.028 C 
HETATM   15  C21 UNL     1      22.734   4.639  47.643  1.00  0.00    -0.012 C 
ENDBRANCH   1   3
BRANCH   1  16
HETATM   16  C5  UNL     1      20.708   0.260  53.019  1.00  0.00     0.151 C 
BRANCH  16  17
HETATM   17  C6  UNL     1      21.602  -0.037  54.148  1.00  0.00     0.061 C 
HETATM   18  C7  UNL     1      22.594  -0.875  53.969  1.00  0.00     0.223 C 
HETATM   19  F1  UNL     1      22.638  -1.362  52.700  1.00  0.00    -0.179 F 
BRANCH  18  20
HETATM   20  O1  UNL     1      23.531  -1.285  54.877  1.00  0.00    -0.323 OA
BRANCH  20  21
HETATM   21  C8  UNL     1      24.803  -0.745  55.048  1.00  0.00     0.216 C 
BRANCH  21  22
HETATM   22  C9  UNL     1      25.379  -0.144  53.818  1.00  0.00    -0.034 A 
HETATM   23  C10 UNL     1      26.197  -0.747  52.885  1.00  0.00     0.009 A 
HETATM   24  C11 UNL     1      26.643  -0.030  51.791  1.00  0.00     0.001 A 
HETATM   25  C12 UNL     1      26.295   1.297  51.588  1.00  0.00     0.000 A 
HETATM   26  C13 UNL     1      25.474   1.876  52.538  1.00  0.00     0.001 A 
HETATM   27  C14 UNL     1      25.004   1.186  53.654  1.00  0.00     0.009 A 
ENDBRANCH  21  22
ENDBRANCH  20  21
ENDBRANCH  18  20
ENDBRANCH  16  17
ENDBRANCH   1  16
TORSDOF 6
ENDMDL
MODEL 5
REMARK VINA RESULT:      -7.7      4.181      8.873
REMARK  6 active torsions:
REMARK  status: ('A' for Active; 'I' for Inactive)
REMARK    1  A    between atoms: C4_5  and  N2_6 
REMARK    2  A    between atoms: N2_6  and  C5_7 
REMARK    3  A    between atoms: C5_7  and  C6_8 
REMARK    4  A    between atoms: C7_9  and  O1_11 
REMARK    5  A    between atoms: O1_11  and  C8_12 
REMARK    6  A    between atoms: C8_12  and  C9_13 
ROOT
HETATM    1  N2  UNL     1      28.883   7.299  49.037  1.00  0.00    -0.391 N 
HETATM    2  H5  UNL     1      28.593   7.800  49.914  1.00  0.00     0.159 HD
ENDROOT
BRANCH   1   3
HETATM    3  C4  UNL     1      30.223   7.243  48.611  1.00  0.00     0.011 C 
HETATM    4  C3  UNL     1      30.450   5.889  48.546  1.00  0.00     0.183 C 
HETATM    5  N1  UNL     1      31.338   4.879  48.269  1.00  0.00    -0.280 NA
HETATM    6  C2  UNL     1      32.544   4.726  47.870  1.00  0.00     0.037 C 
HETATM    7  C1  UNL     1      33.116   3.361  47.705  1.00  0.00     0.071 C 
HETATM    8  C19 UNL     1      33.532   5.797  47.520  1.00  0.00     0.000 C 
HETATM    9  C18 UNL     1      33.517   7.049  46.687  1.00  0.00     0.022 C 
HETATM   10  C20 UNL     1      34.771   5.769  47.993  1.00  0.00    -0.001 C 
HETATM   11  C17 UNL     1      33.223   8.040  47.650  1.00  0.00    -0.051 C 
HETATM   12  C16 UNL     1      32.184   9.132  47.974  1.00  0.00     0.068 C 
HETATM   13  C22 UNL     1      34.399   7.817  48.587  1.00  0.00     0.020 C 
HETATM   14  C15 UNL     1      30.949   8.607  48.372  1.00  0.00     0.028 C 
HETATM   15  C21 UNL     1      35.338   6.852  48.467  1.00  0.00    -0.012 C 
ENDBRANCH   1   3
BRANCH   1  16
HETATM   16  C5  UNL     1      28.129   6.560  48.041  1.00  0.00     0.151 C 
BRANCH  16  17
HETATM   17  C6  UNL     1      26.854   6.141  48.641  1.00  0.00     0.061 C 
HETATM   18  C7  UNL     1      26.647   4.866  48.867  1.00  0.00     0.223 C 
HETATM   19  F1  UNL     1      27.702   4.096  48.490  1.00  0.00    -0.179 F 
BRANCH  18  20
HETATM   20  O1  UNL     1      25.543   4.271  49.411  1.00  0.00    -0.323 OA
BRANCH  20  21
HETATM   21  C8  UNL     1      25.243   4.175  50.768  1.00  0.00     0.216 C 
BRANCH  21  22
HETATM   22  C9  UNL     1      25.471   2.826  51.348  1.00  0.00    -0.034 A 
HETATM   23  C10 UNL     1      26.606   2.050  51.261  1.00  0.00     0.009 A 
HETATM   24  C11 UNL     1      26.643   0.808  51.867  1.00  0.00     0.001 A 
HETATM   25  C12 UNL     1      25.562   0.302  52.574  1.00  0.00     0.000 A 
HETATM   26  C13 UNL     1      24.437   1.102  52.646  1.00  0.00     0.001 A 
HETATM   27  C14 UNL     1      24.362   2.359  52.047  1.00  0.00     0.009 A 
ENDBRANCH  21  22
ENDBRANCH  20  21
ENDBRANCH  18  20
ENDBRANCH  16  17
ENDBRANCH   1  16
TORSDOF 6
ENDMDL
MODEL 6
REMARK VINA RESULT:      -7.5      3.415      5.482
REMARK  6 active torsions:
REMARK  status: ('A' for Active; 'I' for Inactive)
REMARK    1  A    between atoms: C4_5  and  N2_6 
REMARK    2  A    between atoms: N2_6  and  C5_7 
REMARK    3  A    between atoms: C5_7  and  C6_8 
REMARK    4  A    between atoms: C7_9  and  O1_11 
REMARK    5  A    between atoms: O1_11  and  C8_12 
REMARK    6  A    between atoms: C8_12  and  C9_13 
ROOT
HETATM    1  N2  UNL     1      26.541   4.511  50.178  1.00  0.00    -0.391 N 
HETATM    2  H5  UNL     1      27.135   4.414  51.039  1.00  0.00     0.159 HD
ENDROOT
BRANCH   1   3
HETATM    3  C4  UNL     1      25.254   3.950  50.086  1.00  0.00     0.011 C 
HETATM    4  C3  UNL     1      25.277   3.006  51.086  1.00  0.00     0.183 C 
HETATM    5  N1  UNL     1      24.598   2.021  51.759  1.00  0.00    -0.280 NA
HETATM    6  C2  UNL     1      23.448   1.460  51.763  1.00  0.00     0.037 C 
HETATM    7  C1  UNL     1      23.146   0.369  52.732  1.00  0.00     0.071 C 
HETATM    8  C19 UNL     1      22.283   1.762  50.872  1.00  0.00     0.000 C 
HETATM    9  C18 UNL     1      21.567   3.004  50.415  1.00  0.00     0.022 C 
HETATM   10  C20 UNL     1      21.615   0.792  50.262  1.00  0.00    -0.001 C 
HETATM   11  C17 UNL     1      22.206   3.274  49.184  1.00  0.00    -0.051 C 
HETATM   12  C16 UNL     1      23.015   4.371  48.463  1.00  0.00     0.068 C 
HETATM   13  C22 UNL     1      21.904   1.967  48.467  1.00  0.00     0.020 C 
HETATM   14  C15 UNL     1      24.306   4.524  48.983  1.00  0.00     0.028 C 
HETATM   15  C21 UNL     1      21.272   0.897  49.000  1.00  0.00    -0.012 C 
ENDBRANCH   1   3
BRANCH   1  16
HETATM   16  C5  UNL     1      26.767   5.172  48.905  1.00  0.00     0.151 C 
BRANCH  16  17
HETATM   17  C6  UNL     1      28.173   4.978  48.525  1.00  0.00     0.061 C 
HETATM   18  C7  UNL     1      28.857   6.002  48.077  1.00  0.00     0.223 C 
HETATM   19  F1  UNL     1      28.115   7.141  48.033  1.00  0.00    -0.179 F 
BRANCH  18  20
HETATM   20  O1  UNL     1      30.163   6.037  47.673  1.00  0.00    -0.323 OA
BRANCH  20  21
HETATM   21  C8  UNL     1      31.281   5.845  48.482  1.00  0.00     0.216 C 
BRANCH  21  22
HETATM   22  C9  UNL     1      32.295   4.923  47.909  1.00  0.00    -0.034 A 
HETATM   23  C10 UNL     1      33.663   4.959  48.081  1.00  0.00     0.009 A 
HETATM   24  C11 UNL     1      34.462   4.013  47.468  1.00  0.00     0.001 A 
HETATM   25  C12 UNL     1      33.934   3.009  46.671  1.00  0.00     0.000 A 
HETATM   26  C13 UNL     1      32.560   2.995  46.516  1.00  0.00     0.001 A 
HETATM   27  C14 UNL     1      31.722   3.933  47.118  1.00  0.00     0.009 A 
ENDBRANCH  21  22
ENDBRANCH  20  21
ENDBRANCH  18  20
ENDBRANCH  16  17
ENDBRANCH   1  16
TORSDOF 6
ENDMDL
MODEL 7
REMARK VINA RESULT:      -7.5      2.140      3.156
REMARK  6 active torsions:
REMARK  status: ('A' for Active; 'I' for Inactive)
REMARK    1  A    between atoms: C4_5  and  N2_6 
REMARK    2  A    between atoms: N2_6  and  C5_7 
REMARK    3  A    between atoms: C5_7  and  C6_8 
REMARK    4  A    between atoms: C7_9  and  O1_11 
REMARK    5  A    between atoms: O1_11  and  C8_12 
REMARK    6  A    between atoms: C8_12  and  C9_13 
ROOT
HETATM    1  N2  UNL     1      21.695   4.171  52.044  1.00  0.00    -0.391 N 
HETATM    2  H5  UNL     1      21.653   4.943  52.757  1.00  0.00     0.159 HD
ENDROOT
BRANCH   1   3
HETATM    3  C4  UNL     1      21.854   2.821  52.408  1.00  0.00     0.011 C 
HETATM    4  C3  UNL     1      20.561   2.354  52.362  1.00  0.00     0.183 C 
HETATM    5  N1  UNL     1      19.713   1.288  52.526  1.00  0.00    -0.280 NA
HETATM    6  C2  UNL     1      19.758   0.045  52.831  1.00  0.00     0.037 C 
HETATM    7  C1  UNL     1      18.508  -0.763  52.888  1.00  0.00     0.071 C 
HETATM    8  C19 UNL     1      20.971  -0.768  53.164  1.00  0.00     0.000 C 
HETATM    9  C18 UNL     1      22.336  -0.966  52.564  1.00  0.00     0.022 C 
HETATM   10  C20 UNL     1      20.996  -1.561  54.227  1.00  0.00    -0.001 C 
HETATM   11  C17 UNL     1      23.115  -0.040  53.294  1.00  0.00    -0.051 C 
HETATM   12  C16 UNL     1      24.021   1.192  53.096  1.00  0.00     0.068 C 
HETATM   13  C22 UNL     1      22.864  -0.573  54.696  1.00  0.00     0.020 C 
HETATM   14  C15 UNL     1      23.308   2.335  52.716  1.00  0.00     0.028 C 
HETATM   15  C21 UNL     1      22.039  -1.593  55.022  1.00  0.00    -0.012 C 
ENDBRANCH   1   3
BRANCH   1  16
HETATM   16  C5  UNL     1      21.615   4.174  50.595  1.00  0.00     0.151 C 
BRANCH  16  17
HETATM   17  C6  UNL     1      22.907   4.628  50.061  1.00  0.00     0.061 C 
HETATM   18  C7  UNL     1      23.682   3.762  49.454  1.00  0.00     0.223 C 
HETATM   19  F1  UNL     1      23.137   2.517  49.415  1.00  0.00    -0.179 F 
BRANCH  18  20
HETATM   20  O1  UNL     1      24.910   3.974  48.891  1.00  0.00    -0.323 OA
BRANCH  20  21
HETATM   21  C8  UNL     1      26.079   4.315  49.568  1.00  0.00     0.216 C 
BRANCH  21  22
HETATM   22  C9  UNL     1      26.931   5.300  48.854  1.00  0.00    -0.034 A 
HETATM   23  C10 UNL     1      28.260   5.176  48.511  1.00  0.00     0.009 A 
HETATM   24  C11 UNL     1      28.900   6.202  47.841  1.00  0.00     0.001 A 
HETATM   25  C12 UNL     1      28.246   7.375  47.493  1.00  0.00     0.000 A 
HETATM   26  C13 UNL     1      26.913   7.472  47.848  1.00  0.00     0.001 A 
HETATM   27  C14 UNL     1      26.234   6.459  48.525  1.00  0.00     0.009 A 
ENDBRANCH  21  22
ENDBRANCH  20  21
ENDBRANCH  18  20
ENDBRANCH  16  17
ENDBRANCH   1  16
TORSDOF 6
ENDMDL
MODEL 8
REMARK VINA RESULT:      -7.5      2.455      3.895
REMARK  6 active torsions:
REMARK  status: ('A' for Active; 'I' for Inactive)
REMARK    1  A    between atoms: C4_5  and  N2_6 
REMARK    2  A    between atoms: N2_6  and  C5_7 
REMARK    3  A    between atoms: C5_7  and  C6_8 
REMARK    4  A    between atoms: C7_9  and  O1_11 
REMARK    5  A    between atoms: O1_11  and  C8_12 
REMARK    6  A    between atoms: C8_12  and  C9_13 
ROOT
HETATM    1  N2  UNL     1      25.048   3.542  51.749  1.00  0.00    -0.391 N 
HETATM    2  H5  UNL     1      25.416   4.250  52.433  1.00  0.00     0.159 HD
ENDROOT
BRANCH   1   3
HETATM    3  C4  UNL     1      24.269   2.441  52.151  1.00  0.00     0.011 C 
HETATM    4  C3  UNL     1      22.990   2.891  51.922  1.00  0.00     0.183 C 
HETATM    5  N1  UNL     1      21.646   2.622  51.973  1.00  0.00    -0.280 NA
HETATM    6  C2  UNL     1      20.855   1.670  52.300  1.00  0.00     0.037 C 
HETATM    7  C1  UNL     1      19.380   1.841  52.182  1.00  0.00     0.071 C 
HETATM    8  C19 UNL     1      21.226   0.315  52.820  1.00  0.00     0.000 C 
HETATM    9  C18 UNL     1      22.203  -0.761  52.432  1.00  0.00     0.022 C 
HETATM   10  C20 UNL     1      20.628  -0.199  53.887  1.00  0.00    -0.001 C 
HETATM   11  C17 UNL     1      23.311  -0.461  53.256  1.00  0.00    -0.051 C 
HETATM   12  C16 UNL     1      24.810  -0.105  53.176  1.00  0.00     0.068 C 
HETATM   13  C22 UNL     1      22.633  -0.565  54.612  1.00  0.00     0.020 C 
HETATM   14  C15 UNL     1      25.036   1.184  52.678  1.00  0.00     0.028 C 
HETATM   15  C21 UNL     1      21.319  -0.796  54.827  1.00  0.00    -0.012 C 
ENDBRANCH   1   3
BRANCH   1  16
HETATM   16  C5  UNL     1      25.172   3.422  50.308  1.00  0.00     0.151 C 
BRANCH  16  17
HETATM   17  C6  UNL     1      26.595   3.527  49.954  1.00  0.00     0.061 C 
HETATM   18  C7  UNL     1      26.973   4.461  49.115  1.00  0.00     0.223 C 
HETATM   19  F1  UNL     1      25.932   5.222  48.683  1.00  0.00    -0.179 F 
BRANCH  18  20
HETATM   20  O1  UNL     1      28.234   4.729  48.658  1.00  0.00    -0.323 OA
BRANCH  20  21
HETATM   21  C8  UNL     1      28.710   5.967  48.232  1.00  0.00     0.216 C 
BRANCH  21  22
HETATM   22  C9  UNL     1      30.074   5.926  47.646  1.00  0.00    -0.034 A 
HETATM   23  C10 UNL     1      30.958   4.867  47.636  1.00  0.00     0.009 A 
HETATM   24  C11 UNL     1      32.197   5.007  47.040  1.00  0.00     0.001 A 
HETATM   25  C12 UNL     1      32.596   6.192  46.440  1.00  0.00     0.000 A 
HETATM   26  C13 UNL     1      31.690   7.236  46.463  1.00  0.00     0.001 A 
HETATM   27  C14 UNL     1      30.432   7.133  47.055  1.00  0.00     0.009 A 
ENDBRANCH  21  22
ENDBRANCH  20  21
ENDBRANCH  18  20
ENDBRANCH  16  17
ENDBRANCH   1  16
TORSDOF 6
ENDMDL
MODEL 9
REMARK VINA RESULT:      -7.4      5.296      9.712
REMARK  6 active torsions:
REMARK  status: ('A' for Active; 'I' for Inactive)
REMARK    1  A    between atoms: C4_5  and  N2_6 
REMARK    2  A    between atoms: N2_6  and  C5_7 
REMARK    3  A    between atoms: C5_7  and  C6_8 
REMARK    4  A    between atoms: C7_9  and  O1_11 
REMARK    5  A    between atoms: O1_11  and  C8_12 
REMARK    6  A    between atoms: C8_12  and  C9_13 
ROOT
HETATM    1  N2  UNL     1      20.674   0.316  51.016  1.00  0.00    -0.391 N 
HETATM    2  H5  UNL     1      20.507  -0.233  50.136  1.00  0.00     0.159 HD
ENDROOT
BRANCH   1   3
HETATM    3  C4  UNL     1      21.966   0.669  51.448  1.00  0.00     0.011 C 
HETATM    4  C3  UNL     1      22.333   1.616  50.521  1.00  0.00     0.183 C 
HETATM    5  N1  UNL     1      23.296   2.491  50.084  1.00  0.00    -0.280 NA
HETATM    6  C2  UNL     1      24.469   2.889  50.407  1.00  0.00     0.037 C 
HETATM    7  C1  UNL     1      25.168   3.917  49.587  1.00  0.00     0.071 C 
HETATM    8  C19 UNL     1      25.296   2.437  51.572  1.00  0.00     0.000 C 
HETATM    9  C18 UNL     1      25.066   2.230  53.044  1.00  0.00     0.022 C 
HETATM   10  C20 UNL     1      26.570   2.100  51.419  1.00  0.00    -0.001 C 
HETATM   11  C17 UNL     1      24.757   0.853  53.101  1.00  0.00    -0.051 C 
HETATM   12  C16 UNL     1      23.641  -0.113  53.547  1.00  0.00     0.068 C 
HETATM   13  C22 UNL     1      26.034   0.297  52.490  1.00  0.00     0.020 C 
HETATM   14  C15 UNL     1      22.513  -0.059  52.719  1.00  0.00     0.028 C 
HETATM   15  C21 UNL     1      27.058   1.026  51.991  1.00  0.00    -0.012 C 
ENDBRANCH   1   3
BRANCH   1  16
HETATM   16  C5  UNL     1      19.771   0.862  52.012  1.00  0.00     0.151 C 
BRANCH  16  17
HETATM   17  C6  UNL     1      18.582   0.000  52.082  1.00  0.00     0.061 C 
HETATM   18  C7  UNL     1      18.517  -0.919  53.014  1.00  0.00     0.223 C 
HETATM   19  F1  UNL     1      19.620  -0.929  53.809  1.00  0.00    -0.179 F 
BRANCH  18  20
HETATM   20  O1  UNL     1      17.512  -1.816  53.252  1.00  0.00    -0.323 OA
BRANCH  20  21
HETATM   21  C8  UNL     1      17.664  -3.115  53.730  1.00  0.00     0.216 C 
BRANCH  21  22
HETATM   22  C9  UNL     1      16.485  -3.990  53.501  1.00  0.00    -0.034 A 
HETATM   23  C10 UNL     1      16.206  -5.204  54.092  1.00  0.00     0.009 A 
HETATM   24  C11 UNL     1      15.052  -5.886  53.757  1.00  0.00     0.001 A 
HETATM   25  C12 UNL     1      14.145  -5.390  52.833  1.00  0.00     0.000 A 
HETATM   26  C13 UNL     1      14.449  -4.170  52.257  1.00  0.00     0.001 A 
HETATM   27  C14 UNL     1      15.603  -3.453  52.569  1.00  0.00     0.009 A 
ENDBRANCH  21  22
ENDBRANCH  20  21
ENDBRANCH  18  20
ENDBRANCH  16  17
ENDBRANCH   1  16
TORSDOF 6
ENDMDL
