MODEL 1
REMARK VINA RESULT:      -7.1      0.000      0.000
REMARK  6 active torsions:
REMARK  status: ('A' for Active; 'I' for Inactive)
REMARK    1  A    between atoms: O1_2  and  C2_3 
REMARK    2  A    between atoms: C2_3  and  N1_4 
REMARK    3  A    between atoms: C2_3  and  C10_15 
REMARK    4  A    between atoms: N1_4  and  S1_5 
REMARK    5  A    between atoms: S1_5  and  C3_8 
REMARK    6  A    between atoms: N2_17  and  C11_18 
ROOT
HETATM    1  N1  UNL     1      26.177   1.198  54.730  1.00  0.00    -0.184 NA
HETATM    2  H5  UNL     1      25.462   1.947  54.779  1.00  0.00     0.142 HD
ENDROOT
BRANCH   1   3
HETATM    3  C2  UNL     1      27.146   1.360  53.676  1.00  0.00     0.257 C 
BRANCH   3   4
HETATM    4  O1  UNL     1      28.137   2.242  54.094  1.00  0.00    -0.371 OA
HETATM    5  C1  UNL     1      29.335   1.593  54.368  1.00  0.00     0.204 C 
ENDBRANCH   3   4
BRANCH   3   6
HETATM    6  C10 UNL     1      26.427   2.011  52.540  1.00  0.00     0.213 A 
HETATM    7 CL1  UNL     1      26.614   0.960  51.130  1.00  0.00    -0.064 Cl
HETATM    8  N2  UNL     1      25.916   2.305  51.404  1.00  0.00    -0.280 N 
BRANCH   8   9
HETATM    9  C11 UNL     1      25.161   3.459  51.118  1.00  0.00     0.101 C 
HETATM   10  C12 UNL     1      25.561   4.265  50.135  1.00  0.00    -0.013 C 
HETATM   11  C13 UNL     1      26.787   3.961  49.345  1.00  0.00     0.037 C 
ENDBRANCH   8   9
ENDBRANCH   3   6
ENDBRANCH   1   3
BRANCH   1  12
HETATM   12  S1  UNL     1      25.509  -0.371  54.662  1.00  0.00     0.243 S 
HETATM   13  O2  UNL     1      26.314  -1.183  53.669  1.00  0.00    -0.206 OA
HETATM   14  O3  UNL     1      25.676  -1.029  56.002  1.00  0.00    -0.206 OA
BRANCH  12  15
HETATM   15  C3  UNL     1      23.856  -0.410  54.125  1.00  0.00     0.074 A 
HETATM   16  C4  UNL     1      22.934  -1.038  54.963  1.00  0.00     0.025 A 
HETATM   17  C5  UNL     1      21.591  -1.156  54.687  1.00  0.00     0.008 A 
HETATM   18  C6  UNL     1      21.127  -0.608  53.491  1.00  0.00    -0.062 A 
HETATM   19  C7  UNL     1      19.676  -0.735  53.193  1.00  0.00     0.048 C 
HETATM   20  C8  UNL     1      22.019   0.019  52.643  1.00  0.00     0.008 A 
HETATM   21  C9  UNL     1      23.360   0.119  52.952  1.00  0.00     0.025 A 
ENDBRANCH  12  15
ENDBRANCH   1  12
TORSDOF 6
ENDMDL
MODEL 2
REMARK VINA RESULT:      -6.8      2.966      7.023
REMARK  6 active torsions:
REMARK  status: ('A' for Active; 'I' for Inactive)
REMARK    1  A    between atoms: O1_2  and  C2_3 
REMARK    2  A    between atoms: C2_3  and  N1_4 
REMARK    3  A    between atoms: C2_3  and  C10_15 
REMARK    4  A    between atoms: N1_4  and  S1_5 
REMARK    5  A    between atoms: S1_5  and  C3_8 
REMARK    6  A    between atoms: N2_17  and  C11_18 
ROOT
HETATM    1  N1  UNL     1      25.115   3.156  52.376  1.00  0.00    -0.184 NA
HETATM    2  H5  UNL     1      26.103   3.407  52.568  1.00  0.00     0.142 HD
ENDROOT
BRANCH   1   3
HETATM    3  C2  UNL     1      24.842   1.741  52.381  1.00  0.00     0.257 C 
BRANCH   3   4
HETATM    4  O1  UNL     1      23.731   1.490  53.179  1.00  0.00    -0.371 OA
HETATM    5  C1  UNL     1      23.031   0.364  52.763  1.00  0.00     0.204 C 
ENDBRANCH   3   4
BRANCH   3   6
HETATM    6  C10 UNL     1      26.014   1.089  53.040  1.00  0.00     0.213 A 
HETATM    7 CL1  UNL     1      26.585  -0.185  51.954  1.00  0.00    -0.064 Cl
HETATM    8  N2  UNL     1      27.014   0.348  53.334  1.00  0.00    -0.280 N 
BRANCH   8   9
HETATM    9  C11 UNL     1      27.779   0.430  54.513  1.00  0.00     0.101 C 
HETATM   10  C12 UNL     1      28.970  -0.166  54.555  1.00  0.00    -0.013 C 
HETATM   11  C13 UNL     1      29.495  -0.912  53.377  1.00  0.00     0.037 C 
ENDBRANCH   8   9
ENDBRANCH   3   6
ENDBRANCH   1   3
BRANCH   1  12
HETATM   12  S1  UNL     1      24.506   3.855  50.944  1.00  0.00     0.243 S 
HETATM   13  O2  UNL     1      23.898   2.751  50.103  1.00  0.00    -0.206 OA
HETATM   14  O3  UNL     1      23.392   4.798  51.298  1.00  0.00    -0.206 OA
BRANCH  12  15
HETATM   15  C3  UNL     1      25.718   4.627  49.965  1.00  0.00     0.074 A 
HETATM   16  C4  UNL     1      25.575   5.997  49.745  1.00  0.00     0.025 A 
HETATM   17  C5  UNL     1      26.444   6.756  48.996  1.00  0.00     0.008 A 
HETATM   18  C6  UNL     1      27.538   6.109  48.423  1.00  0.00    -0.062 A 
HETATM   19  C7  UNL     1      28.477   6.930  47.614  1.00  0.00     0.048 C 
HETATM   20  C8  UNL     1      27.704   4.753  48.625  1.00  0.00     0.008 A 
HETATM   21  C9  UNL     1      26.812   4.021  49.383  1.00  0.00     0.025 A 
ENDBRANCH  12  15
ENDBRANCH   1  12
TORSDOF 6
ENDMDL
MODEL 3
REMARK VINA RESULT:      -6.7      2.661      6.202
REMARK  6 active torsions:
REMARK  status: ('A' for Active; 'I' for Inactive)
REMARK    1  A    between atoms: O1_2  and  C2_3 
REMARK    2  A    between atoms: C2_3  and  N1_4 
REMARK    3  A    between atoms: C2_3  and  C10_15 
REMARK    4  A    between atoms: N1_4  and  S1_5 
REMARK    5  A    between atoms: S1_5  and  C3_8 
REMARK    6  A    between atoms: N2_17  and  C11_18 
ROOT
HETATM    1  N1  UNL     1      23.932   1.902  53.101  1.00  0.00    -0.184 NA
HETATM    2  H5  UNL     1      24.651   2.486  53.567  1.00  0.00     0.142 HD
ENDROOT
BRANCH   1   3
HETATM    3  C2  UNL     1      24.303   0.522  52.922  1.00  0.00     0.257 C 
BRANCH   3   4
HETATM    4  O1  UNL     1      23.599  -0.265  53.827  1.00  0.00    -0.371 OA
HETATM    5  C1  UNL     1      22.583  -0.988  53.213  1.00  0.00     0.204 C 
ENDBRANCH   3   4
BRANCH   3   6
HETATM    6  C10 UNL     1      25.749   0.424  53.284  1.00  0.00     0.213 A 
HETATM    7 CL1  UNL     1      26.586  -0.312  51.911  1.00  0.00    -0.064 Cl
HETATM    8  N2  UNL     1      27.010   0.208  53.297  1.00  0.00    -0.280 N 
BRANCH   8   9
HETATM    9  C11 UNL     1      27.884   0.510  54.359  1.00  0.00     0.101 C 
HETATM   10  C12 UNL     1      29.052  -0.127  54.437  1.00  0.00    -0.013 C 
HETATM   11  C13 UNL     1      29.437  -1.147  53.421  1.00  0.00     0.037 C 
ENDBRANCH   8   9
ENDBRANCH   3   6
ENDBRANCH   1   3
BRANCH   1  12
HETATM   12  S1  UNL     1      23.389   2.550  51.619  1.00  0.00     0.243 S 
HETATM   13  O2  UNL     1      22.896   1.407  50.758  1.00  0.00    -0.206 OA
HETATM   14  O3  UNL     1      22.209   3.442  51.881  1.00  0.00    -0.206 OA
BRANCH  12  15
HETATM   15  C3  UNL     1      24.627   3.368  50.713  1.00  0.00     0.074 A 
HETATM   16  C4  UNL     1      24.360   4.679  50.316  1.00  0.00     0.025 A 
HETATM   17  C5  UNL     1      25.230   5.463  49.595  1.00  0.00     0.008 A 
HETATM   18  C6  UNL     1      26.459   4.907  49.241  1.00  0.00    -0.062 A 
HETATM   19  C7  UNL     1      27.400   5.755  48.463  1.00  0.00     0.048 C 
HETATM   20  C8  UNL     1      26.750   3.612  49.621  1.00  0.00     0.008 A 
HETATM   21  C9  UNL     1      25.853   2.852  50.345  1.00  0.00     0.025 A 
ENDBRANCH  12  15
ENDBRANCH   1  12
TORSDOF 6
ENDMDL
MODEL 4
REMARK VINA RESULT:      -6.6      2.618      4.173
REMARK  6 active torsions:
REMARK  status: ('A' for Active; 'I' for Inactive)
REMARK    1  A    between atoms: O1_2  and  C2_3 
REMARK    2  A    between atoms: C2_3  and  N1_4 
REMARK    3  A    between atoms: C2_3  and  C10_15 
REMARK    4  A    between atoms: N1_4  and  S1_5 
REMARK    5  A    between atoms: S1_5  and  C3_8 
REMARK    6  A    between atoms: N2_17  and  C11_18 
ROOT
HETATM    1  N1  UNL     1      24.971   2.427  50.883  1.00  0.00    -0.184 NA
HETATM    2  H5  UNL     1      24.946   1.422  50.630  1.00  0.00     0.142 HD
ENDROOT
BRANCH   1   3
HETATM    3  C2  UNL     1      26.228   2.880  51.422  1.00  0.00     0.257 C 
BRANCH   3   4
HETATM    4  O1  UNL     1      27.086   3.203  50.376  1.00  0.00    -0.371 OA
HETATM    5  C1  UNL     1      26.498   4.074  49.466  1.00  0.00     0.204 C 
ENDBRANCH   3   4
BRANCH   3   6
HETATM    6  C10 UNL     1      26.826   1.712  52.136  1.00  0.00     0.213 A 
HETATM    7 CL1  UNL     1      27.781   2.351  53.480  1.00  0.00    -0.064 Cl
HETATM    8  N2  UNL     1      27.464   0.945  52.937  1.00  0.00    -0.280 N 
BRANCH   8   9
HETATM    9  C11 UNL     1      27.501  -0.461  52.874  1.00  0.00     0.101 C 
HETATM   10  C12 UNL     1      28.627  -1.094  53.201  1.00  0.00    -0.013 C 
HETATM   11  C13 UNL     1      29.835  -0.335  53.628  1.00  0.00     0.037 C 
ENDBRANCH   8   9
ENDBRANCH   3   6
ENDBRANCH   1   3
BRANCH   1  12
HETATM   12  S1  UNL     1      23.698   2.895  51.919  1.00  0.00     0.243 S 
HETATM   13  O2  UNL     1      24.289   3.713  53.049  1.00  0.00    -0.206 OA
HETATM   14  O3  UNL     1      22.766   3.800  51.165  1.00  0.00    -0.206 OA
BRANCH  12  15
HETATM   15  C3  UNL     1      22.856   1.561  52.647  1.00  0.00     0.074 A 
HETATM   16  C4  UNL     1      23.637   0.535  53.180  1.00  0.00     0.025 A 
HETATM   17  C5  UNL     1      23.128  -0.589  53.789  1.00  0.00     0.008 A 
HETATM   18  C6  UNL     1      21.741  -0.704  53.879  1.00  0.00    -0.062 A 
HETATM   19  C7  UNL     1      21.192  -1.919  54.537  1.00  0.00     0.048 C 
HETATM   20  C8  UNL     1      20.945   0.297  53.360  1.00  0.00     0.008 A 
HETATM   21  C9  UNL     1      21.489   1.412  52.755  1.00  0.00     0.025 A 
ENDBRANCH  12  15
ENDBRANCH   1  12
TORSDOF 6
ENDMDL
MODEL 5
REMARK VINA RESULT:      -6.3      4.157      6.708
REMARK  6 active torsions:
REMARK  status: ('A' for Active; 'I' for Inactive)
REMARK    1  A    between atoms: O1_2  and  C2_3 
REMARK    2  A    between atoms: C2_3  and  N1_4 
REMARK    3  A    between atoms: C2_3  and  C10_15 
REMARK    4  A    between atoms: N1_4  and  S1_5 
REMARK    5  A    between atoms: S1_5  and  C3_8 
REMARK    6  A    between atoms: N2_17  and  C11_18 
ROOT
HETATM    1  N1  UNL     1      21.981   3.720  52.194  1.00  0.00    -0.184 NA
HETATM    2  H5  UNL     1      22.348   3.499  53.139  1.00  0.00     0.142 HD
ENDROOT
BRANCH   1   3
HETATM    3  C2  UNL     1      20.753   3.047  51.853  1.00  0.00     0.257 C 
BRANCH   3   4
HETATM    4  O1  UNL     1      19.675   3.853  52.204  1.00  0.00    -0.371 OA
HETATM    5  C1  UNL     1      18.602   3.699  51.334  1.00  0.00     0.204 C 
ENDBRANCH   3   4
BRANCH   3   6
HETATM    6  C10 UNL     1      20.689   1.827  52.713  1.00  0.00     0.213 A 
HETATM    7 CL1  UNL     1      20.297   0.463  51.659  1.00  0.00    -0.064 Cl
HETATM    8  N2  UNL     1      20.565   0.637  53.165  1.00  0.00    -0.280 N 
BRANCH   8   9
HETATM    9  C11 UNL     1      20.715   0.249  54.511  1.00  0.00     0.101 C 
HETATM   10  C12 UNL     1      21.500  -0.788  54.801  1.00  0.00    -0.013 C 
HETATM   11  C13 UNL     1      22.212  -1.534  53.727  1.00  0.00     0.037 C 
ENDBRANCH   8   9
ENDBRANCH   3   6
ENDBRANCH   1   3
BRANCH   1  12
HETATM   12  S1  UNL     1      23.128   3.492  50.952  1.00  0.00     0.243 S 
HETATM   13  O2  UNL     1      22.426   2.840  49.778  1.00  0.00    -0.206 OA
HETATM   14  O3  UNL     1      23.610   4.834  50.482  1.00  0.00    -0.206 OA
BRANCH  12  15
HETATM   15  C3  UNL     1      24.447   2.450  51.394  1.00  0.00     0.074 A 
HETATM   16  C4  UNL     1      24.142   1.345  52.190  1.00  0.00     0.025 A 
HETATM   17  C5  UNL     1      25.067   0.426  52.627  1.00  0.00     0.008 A 
HETATM   18  C6  UNL     1      26.395   0.614  52.245  1.00  0.00    -0.062 A 
HETATM   19  C7  UNL     1      27.395  -0.380  52.717  1.00  0.00     0.048 C 
HETATM   20  C8  UNL     1      26.725   1.699  51.457  1.00  0.00     0.008 A 
HETATM   21  C9  UNL     1      25.770   2.603  51.037  1.00  0.00     0.025 A 
ENDBRANCH  12  15
ENDBRANCH   1  12
TORSDOF 6
ENDMDL
MODEL 6
REMARK VINA RESULT:      -6.2      2.199      3.280
REMARK  6 active torsions:
REMARK  status: ('A' for Active; 'I' for Inactive)
REMARK    1  A    between atoms: O1_2  and  C2_3 
REMARK    2  A    between atoms: C2_3  and  N1_4 
REMARK    3  A    between atoms: C2_3  and  C10_15 
REMARK    4  A    between atoms: N1_4  and  S1_5 
REMARK    5  A    between atoms: S1_5  and  C3_8 
REMARK    6  A    between atoms: N2_17  and  C11_18 
ROOT
HETATM    1  N1  UNL     1      26.149   2.591  52.505  1.00  0.00    -0.184 NA
HETATM    2  H5  UNL     1      25.432   3.085  53.069  1.00  0.00     0.142 HD
ENDROOT
BRANCH   1   3
HETATM    3  C2  UNL     1      26.007   2.750  51.080  1.00  0.00     0.257 C 
BRANCH   3   4
HETATM    4  O1  UNL     1      27.083   3.484  50.591  1.00  0.00    -0.371 OA
HETATM    5  C1  UNL     1      26.829   4.006  49.328  1.00  0.00     0.204 C 
ENDBRANCH   3   4
BRANCH   3   6
HETATM    6  C10 UNL     1      24.779   3.574  50.868  1.00  0.00     0.213 A 
HETATM    7 CL1  UNL     1      23.663   2.611  49.892  1.00  0.00    -0.064 Cl
HETATM    8  N2  UNL     1      23.631   4.016  50.519  1.00  0.00    -0.280 N 
BRANCH   8   9
HETATM    9  C11 UNL     1      23.105   5.282  50.845  1.00  0.00     0.101 C 
HETATM   10  C12 UNL     1      21.982   5.350  51.559  1.00  0.00    -0.013 C 
HETATM   11  C13 UNL     1      21.285   4.114  52.011  1.00  0.00     0.037 C 
ENDBRANCH   8   9
ENDBRANCH   3   6
ENDBRANCH   1   3
BRANCH   1  12
HETATM   12  S1  UNL     1      26.288   0.934  52.888  1.00  0.00     0.243 S 
HETATM   13  O2  UNL     1      26.694   0.193  51.632  1.00  0.00    -0.206 OA
HETATM   14  O3  UNL     1      27.401   0.756  53.881  1.00  0.00    -0.206 OA
BRANCH  12  15
HETATM   15  C3  UNL     1      24.807   0.213  53.444  1.00  0.00     0.074 A 
HETATM   16  C4  UNL     1      23.634   0.589  52.786  1.00  0.00     0.025 A 
HETATM   17  C5  UNL     1      22.383   0.114  53.102  1.00  0.00     0.008 A 
HETATM   18  C6  UNL     1      22.285  -0.806  54.146  1.00  0.00    -0.062 A 
HETATM   19  C7  UNL     1      20.932  -1.320  54.486  1.00  0.00     0.048 C 
HETATM   20  C8  UNL     1      23.429  -1.196  54.813  1.00  0.00     0.008 A 
HETATM   21  C9  UNL     1      24.670  -0.698  54.470  1.00  0.00     0.025 A 
ENDBRANCH  12  15
ENDBRANCH   1  12
TORSDOF 6
ENDMDL
MODEL 7
REMARK VINA RESULT:      -6.2      3.215      6.286
REMARK  6 active torsions:
REMARK  status: ('A' for Active; 'I' for Inactive)
REMARK    1  A    between atoms: O1_2  and  C2_3 
REMARK    2  A    between atoms: C2_3  and  N1_4 
REMARK    3  A    between atoms: C2_3  and  C10_15 
REMARK    4  A    between atoms: N1_4  and  S1_5 
REMARK    5  A    between atoms: S1_5  and  C3_8 
REMARK    6  A    between atoms: N2_17  and  C11_18 
ROOT
HETATM    1  N1  UNL     1      23.292   0.993  51.965  1.00  0.00    -0.184 NA
HETATM    2  H5  UNL     1      22.737   1.268  51.133  1.00  0.00     0.142 HD
ENDROOT
BRANCH   1   3
HETATM    3  C2  UNL     1      22.556   0.980  53.203  1.00  0.00     0.257 C 
BRANCH   3   4
HETATM    4  O1  UNL     1      22.923  -0.137  53.945  1.00  0.00    -0.371 OA
HETATM    5  C1  UNL     1      22.290  -1.292  53.500  1.00  0.00     0.204 C 
ENDBRANCH   3   4
BRANCH   3   6
HETATM    6  C10 UNL     1      21.117   0.811  52.835  1.00  0.00     0.213 A 
HETATM    7 CL1  UNL     1      20.408   2.428  52.738  1.00  0.00    -0.064 Cl
HETATM    8  N2  UNL     1      19.887   0.993  52.537  1.00  0.00    -0.280 N 
BRANCH   8   9
HETATM    9  C11 UNL     1      18.952  -0.022  52.255  1.00  0.00     0.101 C 
HETATM   10  C12 UNL     1      18.323  -0.012  51.080  1.00  0.00    -0.013 C 
HETATM   11  C13 UNL     1      18.595   1.052  50.074  1.00  0.00     0.037 C 
ENDBRANCH   8   9
ENDBRANCH   3   6
ENDBRANCH   1   3
BRANCH   1  12
HETATM   12  S1  UNL     1      24.722   1.905  52.155  1.00  0.00     0.243 S 
HETATM   13  O2  UNL     1      25.031   2.576  50.833  1.00  0.00    -0.206 OA
HETATM   14  O3  UNL     1      24.473   2.999  53.154  1.00  0.00    -0.206 OA
BRANCH  12  15
HETATM   15  C3  UNL     1      26.114   0.952  52.575  1.00  0.00     0.074 A 
HETATM   16  C4  UNL     1      27.249   1.644  53.001  1.00  0.00     0.025 A 
HETATM   17  C5  UNL     1      28.430   1.043  53.368  1.00  0.00     0.008 A 
HETATM   18  C6  UNL     1      28.492  -0.350  53.312  1.00  0.00    -0.062 A 
HETATM   19  C7  UNL     1      29.769  -0.999  53.710  1.00  0.00     0.048 C 
HETATM   20  C8  UNL     1      27.383  -1.059  52.895  1.00  0.00     0.008 A 
HETATM   21  C9  UNL     1      26.213  -0.423  52.533  1.00  0.00     0.025 A 
ENDBRANCH  12  15
ENDBRANCH   1  12
TORSDOF 6
ENDMDL
MODEL 8
REMARK VINA RESULT:      -6.1      3.657      4.838
REMARK  6 active torsions:
REMARK  status: ('A' for Active; 'I' for Inactive)
REMARK    1  A    between atoms: O1_2  and  C2_3 
REMARK    2  A    between atoms: C2_3  and  N1_4 
REMARK    3  A    between atoms: C2_3  and  C10_15 
REMARK    4  A    between atoms: N1_4  and  S1_5 
REMARK    5  A    between atoms: S1_5  and  C3_8 
REMARK    6  A    between atoms: N2_17  and  C11_18 
ROOT
HETATM    1  N1  UNL     1      22.986   3.638  50.254  1.00  0.00    -0.184 NA
HETATM    2  H5  UNL     1      23.420   2.865  49.715  1.00  0.00     0.142 HD
ENDROOT
BRANCH   1   3
HETATM    3  C2  UNL     1      23.828   4.205  51.276  1.00  0.00     0.257 C 
BRANCH   3   4
HETATM    4  O1  UNL     1      24.533   5.281  50.746  1.00  0.00    -0.371 OA
HETATM    5  C1  UNL     1      24.068   6.499  51.227  1.00  0.00     0.204 C 
ENDBRANCH   3   4
BRANCH   3   6
HETATM    6  C10 UNL     1      24.829   3.153  51.628  1.00  0.00     0.213 A 
HETATM    7 CL1  UNL     1      24.640   2.806  53.352  1.00  0.00    -0.064 Cl
HETATM    8  N2  UNL     1      25.555   2.287  52.227  1.00  0.00    -0.280 N 
BRANCH   8   9
HETATM    9  C11 UNL     1      26.569   1.512  51.631  1.00  0.00     0.101 C 
HETATM   10  C12 UNL     1      26.685   0.229  51.970  1.00  0.00    -0.013 C 
HETATM   11  C13 UNL     1      25.763  -0.388  52.964  1.00  0.00     0.037 C 
ENDBRANCH   8   9
ENDBRANCH   3   6
ENDBRANCH   1   3
BRANCH   1  12
HETATM   12  S1  UNL     1      21.468   3.231  50.918  1.00  0.00     0.243 S 
HETATM   13  O2  UNL     1      21.038   4.358  51.834  1.00  0.00    -0.206 OA
HETATM   14  O3  UNL     1      20.456   3.157  49.811  1.00  0.00    -0.206 OA
BRANCH  12  15
HETATM   15  C3  UNL     1      21.484   1.780  51.876  1.00  0.00     0.074 A 
HETATM   16  C4  UNL     1      20.686   1.769  53.021  1.00  0.00     0.025 A 
HETATM   17  C5  UNL     1      20.587   0.703  53.885  1.00  0.00     0.008 A 
HETATM   18  C6  UNL     1      21.332  -0.439  53.592  1.00  0.00    -0.062 A 
HETATM   19  C7  UNL     1      21.223  -1.591  54.525  1.00  0.00     0.048 C 
HETATM   20  C8  UNL     1      22.130  -0.454  52.464  1.00  0.00     0.008 A 
HETATM   21  C9  UNL     1      22.206   0.634  51.619  1.00  0.00     0.025 A 
ENDBRANCH  12  15
ENDBRANCH   1  12
TORSDOF 6
ENDMDL
MODEL 9
REMARK VINA RESULT:      -6.0      4.014      5.234
REMARK  6 active torsions:
REMARK  status: ('A' for Active; 'I' for Inactive)
REMARK    1  A    between atoms: O1_2  and  C2_3 
REMARK    2  A    between atoms: C2_3  and  N1_4 
REMARK    3  A    between atoms: C2_3  and  C10_15 
REMARK    4  A    between atoms: N1_4  and  S1_5 
REMARK    5  A    between atoms: S1_5  and  C3_8 
REMARK    6  A    between atoms: N2_17  and  C11_18 
ROOT
HETATM    1  N1  UNL     1      21.458   2.784  50.465  1.00  0.00    -0.184 NA
HETATM    2  H5  UNL     1      22.121   2.100  50.056  1.00  0.00     0.142 HD
ENDROOT
BRANCH   1   3
HETATM    3  C2  UNL     1      22.081   3.918  51.101  1.00  0.00     0.257 C 
BRANCH   3   4
HETATM    4  O1  UNL     1      22.015   5.015  50.249  1.00  0.00    -0.371 OA
HETATM    5  C1  UNL     1      20.871   5.776  50.463  1.00  0.00     0.204 C 
ENDBRANCH   3   4
BRANCH   3   6
HETATM    6  C10 UNL     1      23.525   3.570  51.260  1.00  0.00     0.213 A 
HETATM    7 CL1  UNL     1      23.852   3.468  52.995  1.00  0.00    -0.064 Cl
HETATM    8  N2  UNL     1      24.687   3.287  51.714  1.00  0.00    -0.280 N 
BRANCH   8   9
HETATM    9  C11 UNL     1      25.831   3.025  50.936  1.00  0.00     0.101 C 
HETATM   10  C12 UNL     1      26.562   1.944  51.204  1.00  0.00    -0.013 C 
HETATM   11  C13 UNL     1      26.184   1.019  52.309  1.00  0.00     0.037 C 
ENDBRANCH   8   9
ENDBRANCH   3   6
ENDBRANCH   1   3
BRANCH   1  12
HETATM   12  S1  UNL     1      20.327   2.077  51.529  1.00  0.00     0.243 S 
HETATM   13  O2  UNL     1      19.632   3.190  52.285  1.00  0.00    -0.206 OA
HETATM   14  O3  UNL     1      19.275   1.372  50.722  1.00  0.00    -0.206 OA
BRANCH  12  15
HETATM   15  C3  UNL     1      21.039   1.028  52.718  1.00  0.00     0.074 A 
HETATM   16  C4  UNL     1      22.205   0.355  52.351  1.00  0.00     0.025 A 
HETATM   17  C5  UNL     1      22.891  -0.510  53.172  1.00  0.00     0.008 A 
HETATM   18  C6  UNL     1      22.385  -0.724  54.454  1.00  0.00    -0.062 A 
HETATM   19  C7  UNL     1      23.127  -1.658  55.340  1.00  0.00     0.048 C 
HETATM   20  C8  UNL     1      21.232  -0.071  54.843  1.00  0.00     0.008 A 
HETATM   21  C9  UNL     1      20.569   0.791  53.993  1.00  0.00     0.025 A 
ENDBRANCH  12  15
ENDBRANCH   1  12
TORSDOF 6
ENDMDL
