MODEL 1
REMARK VINA RESULT:      -8.4      0.000      0.000
REMARK  6 active torsions:
REMARK  status: ('A' for Active; 'I' for Inactive)
REMARK    1  A    between atoms: N1_3  and  C3_4 
REMARK    2  A    between atoms: C3_4  and  C4_5 
REMARK    3  A    between atoms: C5_6  and  C6_7 
REMARK    4  A    between atoms: C6_7  and  N2_8 
REMARK    5  A    between atoms: C11_15  and  N5_16 
REMARK    6  A    between atoms: N5_16  and  C12_17 
ROOT
HETATM    1  N2  UNL     1      22.329   0.373  52.772  1.00  0.00     0.103 N 
HETATM    2  C7  UNL     1      21.662   0.155  51.514  1.00  0.00     0.303 C 
HETATM    3  C8  UNL     1      21.942   1.159  50.474  1.00  0.00     0.031 C 
HETATM    4  C9  UNL     1      22.980   1.964  50.372  1.00  0.00     0.047 A 
HETATM    5  N3  UNL     1      23.196   2.916  49.340  1.00  0.00    -0.246 NA
HETATM    6  C10 UNL     1      24.273   3.655  49.459  1.00  0.00     0.235 A 
HETATM    7  N4  UNL     1      25.183   3.523  50.543  1.00  0.00    -0.228 NA
HETATM    8  C11 UNL     1      24.986   2.635  51.490  1.00  0.00     0.117 A 
HETATM    9  C18 UNL     1      23.877   1.695  51.542  1.00  0.00     0.135 A 
HETATM   10  C19 UNL     1      23.122   1.588  52.815  1.00  0.00     0.292 C 
ENDROOT
BRANCH   8  11
HETATM   11  N5  UNL     1      25.993   2.652  52.488  1.00  0.00    -0.344 N 
HETATM   12  H13 UNL     1      26.070   3.528  53.089  1.00  0.00     0.167 HD
BRANCH  11  13
HETATM   13  C12 UNL     1      26.917   1.619  52.783  1.00  0.00     0.035 A 
HETATM   14  C13 UNL     1      28.160   1.904  53.350  1.00  0.00     0.032 A 
HETATM   15  C14 UNL     1      29.083   0.931  53.656  1.00  0.00     0.046 A 
HETATM   16  C15 UNL     1      28.815  -0.396  53.411  1.00  0.00     0.138 A 
HETATM   17  F1  UNL     1      29.763  -1.306  53.735  1.00  0.00    -0.204 F 
HETATM   18  C16 UNL     1      27.583  -0.740  52.844  1.00  0.00     0.074 A 
HETATM   19 CL1  UNL     1      27.237  -2.419  52.531  1.00  0.00    -0.081 Cl
HETATM   20  C17 UNL     1      26.706   0.281  52.561  1.00  0.00     0.056 A 
ENDBRANCH  11  13
ENDBRANCH   8  11
BRANCH   1  21
HETATM   21  C6  UNL     1      21.308   0.534  53.791  1.00  0.00     0.366 C 
BRANCH  21  22
HETATM   22  C5  UNL     1      20.050  -0.104  53.473  1.00  0.00    -0.074 C 
HETATM   23  C4  UNL     1      19.010  -0.649  53.202  1.00  0.00    -0.083 C 
BRANCH  23  24
HETATM   24  C3  UNL     1      17.739  -1.331  52.853  1.00  0.00     0.241 C 
BRANCH  24  25
HETATM   25  N1  UNL     1      17.672  -2.592  53.565  1.00  0.00    -0.294 NA
HETATM   26  C2  UNL     1      16.787  -3.459  53.218  1.00  0.00     0.080 C 
HETATM   27  C1  UNL     1      16.698  -4.753  53.928  1.00  0.00     0.057 C 
ENDBRANCH  24  25
ENDBRANCH  23  24
ENDBRANCH  21  22
ENDBRANCH   1  21
TORSDOF 6
ENDMDL
MODEL 2
REMARK VINA RESULT:      -8.3      3.243      8.149
REMARK  6 active torsions:
REMARK  status: ('A' for Active; 'I' for Inactive)
REMARK    1  A    between atoms: N1_3  and  C3_4 
REMARK    2  A    between atoms: C3_4  and  C4_5 
REMARK    3  A    between atoms: C5_6  and  C6_7 
REMARK    4  A    between atoms: C6_7  and  N2_8 
REMARK    5  A    between atoms: C11_15  and  N5_16 
REMARK    6  A    between atoms: N5_16  and  C12_17 
ROOT
HETATM    1  N2  UNL     1      26.046   4.221  50.038  1.00  0.00     0.103 N 
HETATM    2  C7  UNL     1      24.799   4.452  49.354  1.00  0.00     0.303 C 
HETATM    3  C8  UNL     1      23.763   3.430  49.579  1.00  0.00     0.031 C 
HETATM    4  C9  UNL     1      23.649   2.589  50.585  1.00  0.00     0.047 A 
HETATM    5  N3  UNL     1      22.621   1.620  50.748  1.00  0.00    -0.246 NA
HETATM    6  C10 UNL     1      22.726   0.845  51.800  1.00  0.00     0.235 A 
HETATM    7  N4  UNL     1      23.791   0.954  52.736  1.00  0.00    -0.228 NA
HETATM    8  C11 UNL     1      24.733   1.856  52.588  1.00  0.00     0.117 A 
HETATM    9  C18 UNL     1      24.798   2.835  51.513  1.00  0.00     0.135 A 
HETATM   10  C19 UNL     1      26.084   2.980  50.788  1.00  0.00     0.292 C 
ENDROOT
BRANCH   8  11
HETATM   11  N5  UNL     1      25.712   1.812  53.613  1.00  0.00    -0.344 N 
HETATM   12  H13 UNL     1      25.532   2.396  54.485  1.00  0.00     0.167 HD
BRANCH  11  13
HETATM   13  C12 UNL     1      26.916   1.064  53.610  1.00  0.00     0.035 A 
HETATM   14  C13 UNL     1      28.133   1.655  53.955  1.00  0.00     0.032 A 
HETATM   15  C14 UNL     1      29.322   0.964  53.970  1.00  0.00     0.046 A 
HETATM   16  C15 UNL     1      29.365  -0.370  53.638  1.00  0.00     0.138 A 
HETATM   17  F1  UNL     1      30.565  -0.995  53.672  1.00  0.00    -0.204 F 
HETATM   18  C16 UNL     1      28.174  -1.015  53.284  1.00  0.00     0.074 A 
HETATM   19 CL1  UNL     1      28.222  -2.705  52.863  1.00  0.00    -0.081 Cl
HETATM   20  C17 UNL     1      27.021  -0.267  53.288  1.00  0.00     0.056 A 
ENDBRANCH  11  13
ENDBRANCH   8  11
BRANCH   1  21
HETATM   21  C6  UNL     1      27.086   4.104  49.032  1.00  0.00     0.366 C 
BRANCH  21  22
HETATM   22  C5  UNL     1      27.609   5.372  48.573  1.00  0.00    -0.074 C 
HETATM   23  C4  UNL     1      28.033   6.435  48.195  1.00  0.00    -0.083 C 
BRANCH  23  24
HETATM   24  C3  UNL     1      28.533   7.751  47.726  1.00  0.00     0.241 C 
BRANCH  24  25
HETATM   25  N1  UNL     1      29.579   8.203  48.623  1.00  0.00    -0.294 NA
HETATM   26  C2  UNL     1      30.686   7.547  48.672  1.00  0.00     0.080 C 
HETATM   27  C1  UNL     1      31.768   7.988  49.578  1.00  0.00     0.057 C 
ENDBRANCH  24  25
ENDBRANCH  23  24
ENDBRANCH  21  22
ENDBRANCH   1  21
TORSDOF 6
ENDMDL
MODEL 3
REMARK VINA RESULT:      -8.1      4.124      8.391
REMARK  6 active torsions:
REMARK  status: ('A' for Active; 'I' for Inactive)
REMARK    1  A    between atoms: N1_3  and  C3_4 
REMARK    2  A    between atoms: C3_4  and  C4_5 
REMARK    3  A    between atoms: C5_6  and  C6_7 
REMARK    4  A    between atoms: C6_7  and  N2_8 
REMARK    5  A    between atoms: C11_15  and  N5_16 
REMARK    6  A    between atoms: N5_16  and  C12_17 
ROOT
HETATM    1  N2  UNL     1      25.725   5.673  50.002  1.00  0.00     0.103 N 
HETATM    2  C7  UNL     1      25.038   6.837  50.501  1.00  0.00     0.303 C 
HETATM    3  C8  UNL     1      23.636   6.616  50.895  1.00  0.00     0.031 C 
HETATM    4  C9  UNL     1      23.051   5.487  51.239  1.00  0.00     0.047 A 
HETATM    5  N3  UNL     1      21.688   5.335  51.611  1.00  0.00    -0.246 NA
HETATM    6  C10 UNL     1      21.297   4.111  51.866  1.00  0.00     0.235 A 
HETATM    7  N4  UNL     1      22.168   2.990  51.787  1.00  0.00    -0.228 NA
HETATM    8  C11 UNL     1      23.429   3.134  51.452  1.00  0.00     0.117 A 
HETATM    9  C18 UNL     1      24.081   4.401  51.157  1.00  0.00     0.135 A 
HETATM   10  C19 UNL     1      24.891   4.489  49.917  1.00  0.00     0.292 C 
ENDROOT
BRANCH   8  11
HETATM   11  N5  UNL     1      24.141   1.908  51.421  1.00  0.00    -0.344 N 
HETATM   12  H13 UNL     1      23.943   1.249  50.609  1.00  0.00     0.167 HD
BRANCH  11  13
HETATM   13  C12 UNL     1      25.103   1.458  52.359  1.00  0.00     0.035 A 
HETATM   14  C13 UNL     1      24.875   0.321  53.136  1.00  0.00     0.032 A 
HETATM   15  C14 UNL     1      25.785  -0.153  54.053  1.00  0.00     0.046 A 
HETATM   16  C15 UNL     1      26.986   0.489  54.250  1.00  0.00     0.138 A 
HETATM   17  F1  UNL     1      27.838  -0.025  55.166  1.00  0.00    -0.204 F 
HETATM   18  C16 UNL     1      27.267   1.635  53.497  1.00  0.00     0.074 A 
HETATM   19 CL1  UNL     1      28.787   2.452  53.742  1.00  0.00    -0.081 Cl
HETATM   20  C17 UNL     1      26.316   2.056  52.599  1.00  0.00     0.056 A 
ENDBRANCH  11  13
ENDBRANCH   8  11
BRANCH   1  21
HETATM   21  C6  UNL     1      26.143   5.958  48.641  1.00  0.00     0.366 C 
BRANCH  21  22
HETATM   22  C5  UNL     1      27.575   5.935  48.446  1.00  0.00    -0.074 C 
HETATM   23  C4  UNL     1      28.770   5.931  48.289  1.00  0.00    -0.083 C 
BRANCH  23  24
HETATM   24  C3  UNL     1      30.241   5.948  48.093  1.00  0.00     0.241 C 
BRANCH  24  25
HETATM   25  N1  UNL     1      30.686   4.609  47.756  1.00  0.00    -0.294 NA
HETATM   26  C2  UNL     1      31.778   4.463  47.092  1.00  0.00     0.080 C 
HETATM   27  C1  UNL     1      32.253   3.108  46.736  1.00  0.00     0.057 C 
ENDBRANCH  24  25
ENDBRANCH  23  24
ENDBRANCH  21  22
ENDBRANCH   1  21
TORSDOF 6
ENDMDL
MODEL 4
REMARK VINA RESULT:      -8.1      2.067      2.933
REMARK  6 active torsions:
REMARK  status: ('A' for Active; 'I' for Inactive)
REMARK    1  A    between atoms: N1_3  and  C3_4 
REMARK    2  A    between atoms: C3_4  and  C4_5 
REMARK    3  A    between atoms: C5_6  and  C6_7 
REMARK    4  A    between atoms: C6_7  and  N2_8 
REMARK    5  A    between atoms: C11_15  and  N5_16 
REMARK    6  A    between atoms: N5_16  and  C12_17 
ROOT
HETATM    1  N2  UNL     1      21.558   1.151  49.668  1.00  0.00     0.103 N 
HETATM    2  C7  UNL     1      21.709   1.613  48.311  1.00  0.00     0.303 C 
HETATM    3  C8  UNL     1      22.489   2.851  48.155  1.00  0.00     0.031 C 
HETATM    4  C9  UNL     1      23.384   3.364  48.974  1.00  0.00     0.047 A 
HETATM    5  N3  UNL     1      24.109   4.568  48.767  1.00  0.00    -0.246 NA
HETATM    6  C10 UNL     1      24.916   4.925  49.736  1.00  0.00     0.235 A 
HETATM    7  N4  UNL     1      25.075   4.165  50.927  1.00  0.00    -0.228 NA
HETATM    8  C11 UNL     1      24.410   3.048  51.111  1.00  0.00     0.117 A 
HETATM    9  C18 UNL     1      23.488   2.451  50.158  1.00  0.00     0.135 A 
HETATM   10  C19 UNL     1      22.157   2.027  50.657  1.00  0.00     0.292 C 
ENDROOT
BRANCH   8  11
HETATM   11  N5  UNL     1      24.693   2.431  52.357  1.00  0.00    -0.344 N 
HETATM   12  H13 UNL     1      24.002   2.595  53.151  1.00  0.00     0.167 HD
BRANCH  11  13
HETATM   13  C12 UNL     1      25.802   1.606  52.667  1.00  0.00     0.035 A 
HETATM   14  C13 UNL     1      25.827   0.261  52.295  1.00  0.00     0.032 A 
HETATM   15  C14 UNL     1      26.886  -0.572  52.571  1.00  0.00     0.046 A 
HETATM   16  C15 UNL     1      27.993  -0.106  53.240  1.00  0.00     0.138 A 
HETATM   17  F1  UNL     1      29.002  -0.974  53.481  1.00  0.00    -0.204 F 
HETATM   18  C16 UNL     1      28.024   1.236  53.637  1.00  0.00     0.074 A 
HETATM   19 CL1  UNL     1      29.424   1.833  54.485  1.00  0.00    -0.081 Cl
HETATM   20  C17 UNL     1      26.932   2.015  53.331  1.00  0.00     0.056 A 
ENDBRANCH  11  13
ENDBRANCH   8  11
BRANCH   1  21
HETATM   21  C6  UNL     1      20.139   1.128  49.971  1.00  0.00     0.366 C 
BRANCH  21  22
HETATM   22  C5  UNL     1      19.808   0.449  51.204  1.00  0.00    -0.074 C 
HETATM   23  C4  UNL     1      19.544  -0.128  52.229  1.00  0.00    -0.083 C 
BRANCH  23  24
HETATM   24  C3  UNL     1      19.228  -0.857  53.482  1.00  0.00     0.241 C 
BRANCH  24  25
HETATM   25  N1  UNL     1      20.453  -1.417  54.021  1.00  0.00    -0.294 NA
HETATM   26  C2  UNL     1      21.359  -0.621  54.470  1.00  0.00     0.080 C 
HETATM   27  C1  UNL     1      22.616  -1.168  55.025  1.00  0.00     0.057 C 
ENDBRANCH  24  25
ENDBRANCH  23  24
ENDBRANCH  21  22
ENDBRANCH   1  21
TORSDOF 6
ENDMDL
MODEL 5
REMARK VINA RESULT:      -8.1      2.269      3.523
REMARK  6 active torsions:
REMARK  status: ('A' for Active; 'I' for Inactive)
REMARK    1  A    between atoms: N1_3  and  C3_4 
REMARK    2  A    between atoms: C3_4  and  C4_5 
REMARK    3  A    between atoms: C5_6  and  C6_7 
REMARK    4  A    between atoms: C6_7  and  N2_8 
REMARK    5  A    between atoms: C11_15  and  N5_16 
REMARK    6  A    between atoms: N5_16  and  C12_17 
ROOT
HETATM    1  N2  UNL     1      21.053   1.439  51.716  1.00  0.00     0.103 N 
HETATM    2  C7  UNL     1      20.147   1.422  52.836  1.00  0.00     0.303 C 
HETATM    3  C8  UNL     1      20.510   0.495  53.922  1.00  0.00     0.031 C 
HETATM    4  C9  UNL     1      21.695   0.001  54.213  1.00  0.00     0.047 A 
HETATM    5  N3  UNL     1      21.985  -0.893  55.279  1.00  0.00    -0.246 NA
HETATM    6  C10 UNL     1      23.226  -1.306  55.359  1.00  0.00     0.235 A 
HETATM    7  N4  UNL     1      24.237  -0.893  54.449  1.00  0.00    -0.228 NA
HETATM    8  C11 UNL     1      23.968  -0.060  53.470  1.00  0.00     0.117 A 
HETATM    9  C18 UNL     1      22.670   0.545  53.214  1.00  0.00     0.135 A 
HETATM   10  C19 UNL     1      22.144   0.488  51.828  1.00  0.00     0.292 C 
ENDROOT
BRANCH   8  11
HETATM   11  N5  UNL     1      25.097   0.234  52.663  1.00  0.00    -0.344 N 
HETATM   12  H13 UNL     1      24.914   0.652  51.701  1.00  0.00     0.167 HD
BRANCH  11  13
HETATM   13  C12 UNL     1      26.459   0.036  52.999  1.00  0.00     0.035 A 
HETATM   14  C13 UNL     1      27.086  -1.191  52.776  1.00  0.00     0.032 A 
HETATM   15  C14 UNL     1      28.406  -1.423  53.082  1.00  0.00     0.046 A 
HETATM   16  C15 UNL     1      29.185  -0.434  53.636  1.00  0.00     0.138 A 
HETATM   17  F1  UNL     1      30.477  -0.724  53.915  1.00  0.00    -0.204 F 
HETATM   18  C16 UNL     1      28.609   0.818  53.882  1.00  0.00     0.074 A 
HETATM   19 CL1  UNL     1      29.591   2.075  54.582  1.00  0.00    -0.081 Cl
HETATM   20  C17 UNL     1      27.284   0.983  53.553  1.00  0.00     0.056 A 
ENDBRANCH  11  13
ENDBRANCH   8  11
BRANCH   1  21
HETATM   21  C6  UNL     1      20.305   1.042  50.538  1.00  0.00     0.366 C 
BRANCH  21  22
HETATM   22  C5  UNL     1      18.959   0.591  50.816  1.00  0.00    -0.074 C 
HETATM   23  C4  UNL     1      17.842   0.212  51.062  1.00  0.00    -0.083 C 
BRANCH  23  24
HETATM   24  C3  UNL     1      16.476  -0.270  51.380  1.00  0.00     0.241 C 
BRANCH  24  25
HETATM   25  N1  UNL     1      16.575  -1.413  52.267  1.00  0.00    -0.294 NA
HETATM   26  C2  UNL     1      17.667  -1.603  52.921  1.00  0.00     0.080 C 
HETATM   27  C1  UNL     1      17.793  -2.761  53.832  1.00  0.00     0.057 C 
ENDBRANCH  24  25
ENDBRANCH  23  24
ENDBRANCH  21  22
ENDBRANCH   1  21
TORSDOF 6
ENDMDL
MODEL 6
REMARK VINA RESULT:      -8.1      3.005      7.763
REMARK  6 active torsions:
REMARK  status: ('A' for Active; 'I' for Inactive)
REMARK    1  A    between atoms: N1_3  and  C3_4 
REMARK    2  A    between atoms: C3_4  and  C4_5 
REMARK    3  A    between atoms: C5_6  and  C6_7 
REMARK    4  A    between atoms: C6_7  and  N2_8 
REMARK    5  A    between atoms: C11_15  and  N5_16 
REMARK    6  A    between atoms: N5_16  and  C12_17 
ROOT
HETATM    1  N2  UNL     1      25.370   3.301  50.464  1.00  0.00     0.103 N 
HETATM    2  C7  UNL     1      24.239   3.792  49.718  1.00  0.00     0.303 C 
HETATM    3  C8  UNL     1      23.063   2.905  49.708  1.00  0.00     0.031 C 
HETATM    4  C9  UNL     1      22.740   1.965  50.573  1.00  0.00     0.047 A 
HETATM    5  N3  UNL     1      21.586   1.138  50.510  1.00  0.00    -0.246 NA
HETATM    6  C10 UNL     1      21.483   0.227  51.447  1.00  0.00     0.235 A 
HETATM    7  N4  UNL     1      22.452   0.063  52.474  1.00  0.00    -0.228 NA
HETATM    8  C11 UNL     1      23.513   0.835  52.534  1.00  0.00     0.117 A 
HETATM    9  C18 UNL     1      23.812   1.926  51.619  1.00  0.00     0.135 A 
HETATM   10  C19 UNL     1      25.172   1.980  51.031  1.00  0.00     0.292 C 
ENDROOT
BRANCH   8  11
HETATM   11  N5  UNL     1      24.368   0.521  53.621  1.00  0.00    -0.344 N 
HETATM   12  H13 UNL     1      23.955   0.581  54.600  1.00  0.00     0.167 HD
BRANCH  11  13
HETATM   13  C12 UNL     1      25.727   0.127  53.548  1.00  0.00     0.035 A 
HETATM   14  C13 UNL     1      26.097  -1.081  52.956  1.00  0.00     0.032 A 
HETATM   15  C14 UNL     1      27.404  -1.498  52.859  1.00  0.00     0.046 A 
HETATM   16  C15 UNL     1      28.428  -0.725  53.355  1.00  0.00     0.138 A 
HETATM   17  F1  UNL     1      29.693  -1.189  53.230  1.00  0.00    -0.204 F 
HETATM   18  C16 UNL     1      28.116   0.498  53.960  1.00  0.00     0.074 A 
HETATM   19 CL1  UNL     1      29.409   1.482  54.589  1.00  0.00    -0.081 Cl
HETATM   20  C17 UNL     1      26.790   0.855  54.024  1.00  0.00     0.056 A 
ENDBRANCH  11  13
ENDBRANCH   8  11
BRANCH   1  21
HETATM   21  C6  UNL     1      26.483   3.170  49.541  1.00  0.00     0.366 C 
BRANCH  21  22
HETATM   22  C5  UNL     1      26.995   4.430  49.050  1.00  0.00    -0.074 C 
HETATM   23  C4  UNL     1      27.433   5.473  48.634  1.00  0.00    -0.083 C 
BRANCH  23  24
HETATM   24  C3  UNL     1      27.993   6.747  48.119  1.00  0.00     0.241 C 
BRANCH  24  25
HETATM   25  N1  UNL     1      29.313   6.494  47.574  1.00  0.00    -0.294 NA
HETATM   26  C2  UNL     1      30.240   6.065  48.356  1.00  0.00     0.080 C 
HETATM   27  C1  UNL     1      31.594   5.799  47.823  1.00  0.00     0.057 C 
ENDBRANCH  24  25
ENDBRANCH  23  24
ENDBRANCH  21  22
ENDBRANCH   1  21
TORSDOF 6
ENDMDL
MODEL 7
REMARK VINA RESULT:      -8.0      3.855      7.488
REMARK  6 active torsions:
REMARK  status: ('A' for Active; 'I' for Inactive)
REMARK    1  A    between atoms: N1_3  and  C3_4 
REMARK    2  A    between atoms: C3_4  and  C4_5 
REMARK    3  A    between atoms: C5_6  and  C6_7 
REMARK    4  A    between atoms: C6_7  and  N2_8 
REMARK    5  A    between atoms: C11_15  and  N5_16 
REMARK    6  A    between atoms: N5_16  and  C12_17 
ROOT
HETATM    1  N2  UNL     1      26.374   0.800  51.836  1.00  0.00     0.103 N 
HETATM    2  C7  UNL     1      27.352   0.186  52.697  1.00  0.00     0.303 C 
HETATM    3  C8  UNL     1      26.835  -0.290  53.991  1.00  0.00     0.031 C 
HETATM    4  C9  UNL     1      25.598  -0.607  54.312  1.00  0.00     0.047 A 
HETATM    5  N3  UNL     1      25.158  -1.064  55.584  1.00  0.00    -0.246 NA
HETATM    6  C10 UNL     1      23.870  -1.273  55.704  1.00  0.00     0.235 A 
HETATM    7  N4  UNL     1      22.953  -1.067  54.637  1.00  0.00    -0.228 NA
HETATM    8  C11 UNL     1      23.363  -0.654  53.461  1.00  0.00     0.117 A 
HETATM    9  C18 UNL     1      24.747  -0.390  53.098  1.00  0.00     0.135 A 
HETATM   10  C19 UNL     1      25.050   0.896  52.423  1.00  0.00     0.292 C 
ENDROOT
BRANCH   8  11
HETATM   11  N5  UNL     1      22.308  -0.501  52.525  1.00  0.00    -0.344 N 
HETATM   12  H13 UNL     1      22.094  -1.328  51.891  1.00  0.00     0.167 HD
BRANCH  11  13
HETATM   13  C12 UNL     1      21.492   0.643  52.342  1.00  0.00     0.035 A 
HETATM   14  C13 UNL     1      20.120   0.522  52.116  1.00  0.00     0.032 A 
HETATM   15  C14 UNL     1      19.292   1.606  51.939  1.00  0.00     0.046 A 
HETATM   16  C15 UNL     1      19.792   2.887  51.977  1.00  0.00     0.138 A 
HETATM   17  F1  UNL     1      18.927   3.912  51.796  1.00  0.00    -0.204 F 
HETATM   18  C16 UNL     1      21.162   3.069  52.201  1.00  0.00     0.074 A 
HETATM   19 CL1  UNL     1      21.800   4.689  52.250  1.00  0.00    -0.081 Cl
HETATM   20  C17 UNL     1      21.933   1.944  52.369  1.00  0.00     0.056 A 
ENDBRANCH  11  13
ENDBRANCH   8  11
BRANCH   1  21
HETATM   21  C6  UNL     1      26.796   2.167  51.593  1.00  0.00     0.366 C 
BRANCH  21  22
HETATM   22  C5  UNL     1      25.903   2.919  50.740  1.00  0.00    -0.074 C 
HETATM   23  C4  UNL     1      25.168   3.543  50.017  1.00  0.00    -0.083 C 
BRANCH  23  24
HETATM   24  C3  UNL     1      24.280   4.317  49.114  1.00  0.00     0.241 C 
BRANCH  24  25
HETATM   25  N1  UNL     1      22.968   3.700  49.103  1.00  0.00    -0.294 NA
HETATM   26  C2  UNL     1      22.840   2.512  48.625  1.00  0.00     0.080 C 
HETATM   27  C1  UNL     1      21.513   1.861  48.602  1.00  0.00     0.057 C 
ENDBRANCH  24  25
ENDBRANCH  23  24
ENDBRANCH  21  22
ENDBRANCH   1  21
TORSDOF 6
ENDMDL
MODEL 8
REMARK VINA RESULT:      -8.0      3.381      8.223
REMARK  6 active torsions:
REMARK  status: ('A' for Active; 'I' for Inactive)
REMARK    1  A    between atoms: N1_3  and  C3_4 
REMARK    2  A    between atoms: C3_4  and  C4_5 
REMARK    3  A    between atoms: C5_6  and  C6_7 
REMARK    4  A    between atoms: C6_7  and  N2_8 
REMARK    5  A    between atoms: C11_15  and  N5_16 
REMARK    6  A    between atoms: N5_16  and  C12_17 
ROOT
HETATM    1  N2  UNL     1      25.695   4.221  50.044  1.00  0.00     0.103 N 
HETATM    2  C7  UNL     1      24.641   4.647  49.159  1.00  0.00     0.303 C 
HETATM    3  C8  UNL     1      23.514   3.709  49.029  1.00  0.00     0.031 C 
HETATM    4  C9  UNL     1      23.130   2.771  49.870  1.00  0.00     0.047 A 
HETATM    5  N3  UNL     1      22.028   1.892  49.689  1.00  0.00    -0.246 NA
HETATM    6  C10 UNL     1      21.852   0.993  50.627  1.00  0.00     0.235 A 
HETATM    7  N4  UNL     1      22.697   0.891  51.765  1.00  0.00    -0.228 NA
HETATM    8  C11 UNL     1      23.709   1.710  51.934  1.00  0.00     0.117 A 
HETATM    9  C18 UNL     1      24.069   2.797  51.037  1.00  0.00     0.135 A 
HETATM   10  C19 UNL     1      25.487   2.902  50.613  1.00  0.00     0.292 C 
ENDROOT
BRANCH   8  11
HETATM   11  N5  UNL     1      24.441   1.454  53.122  1.00  0.00    -0.344 N 
HETATM   12  H13 UNL     1      23.997   1.752  54.042  1.00  0.00     0.167 HD
BRANCH  11  13
HETATM   13  C12 UNL     1      25.710   0.833  53.222  1.00  0.00     0.035 A 
HETATM   14  C13 UNL     1      25.917  -0.466  52.753  1.00  0.00     0.032 A 
HETATM   15  C14 UNL     1      27.134  -1.103  52.826  1.00  0.00     0.046 A 
HETATM   16  C15 UNL     1      28.226  -0.474  53.378  1.00  0.00     0.138 A 
HETATM   17  F1  UNL     1      29.395  -1.153  53.420  1.00  0.00    -0.204 F 
HETATM   18  C16 UNL     1      28.077   0.830  53.864  1.00  0.00     0.074 A 
HETATM   19 CL1  UNL     1      29.457   1.632  54.564  1.00  0.00    -0.081 Cl
HETATM   20  C17 UNL     1      26.834   1.409  53.762  1.00  0.00     0.056 A 
ENDBRANCH  11  13
ENDBRANCH   8  11
BRANCH   1  21
HETATM   21  C6  UNL     1      26.915   4.124  49.264  1.00  0.00     0.366 C 
BRANCH  21  22
HETATM   22  C5  UNL     1      27.325   5.368  48.651  1.00  0.00    -0.074 C 
HETATM   23  C4  UNL     1      27.668   6.411  48.154  1.00  0.00    -0.083 C 
BRANCH  23  24
HETATM   24  C3  UNL     1      28.084   7.705  47.561  1.00  0.00     0.241 C 
BRANCH  24  25
HETATM   25  N1  UNL     1      28.791   8.477  48.565  1.00  0.00    -0.294 NA
HETATM   26  C2  UNL     1      30.070   8.590  48.480  1.00  0.00     0.080 C 
HETATM   27  C1  UNL     1      30.814   9.372  49.491  1.00  0.00     0.057 C 
ENDBRANCH  24  25
ENDBRANCH  23  24
ENDBRANCH  21  22
ENDBRANCH   1  21
TORSDOF 6
ENDMDL
MODEL 9
REMARK VINA RESULT:      -7.9      2.804      5.632
REMARK  6 active torsions:
REMARK  status: ('A' for Active; 'I' for Inactive)
REMARK    1  A    between atoms: N1_3  and  C3_4 
REMARK    2  A    between atoms: C3_4  and  C4_5 
REMARK    3  A    between atoms: C5_6  and  C6_7 
REMARK    4  A    between atoms: C6_7  and  N2_8 
REMARK    5  A    between atoms: C11_15  and  N5_16 
REMARK    6  A    between atoms: N5_16  and  C12_17 
ROOT
HETATM    1  N2  UNL     1      20.984   1.253  51.696  1.00  0.00     0.103 N 
HETATM    2  C7  UNL     1      20.055   1.169  52.795  1.00  0.00     0.303 C 
HETATM    3  C8  UNL     1      20.454   0.262  53.883  1.00  0.00     0.031 C 
HETATM    4  C9  UNL     1      21.663  -0.155  54.200  1.00  0.00     0.047 A 
HETATM    5  N3  UNL     1      21.987  -1.035  55.268  1.00  0.00    -0.246 NA
HETATM    6  C10 UNL     1      23.251  -1.364  55.376  1.00  0.00     0.235 A 
HETATM    7  N4  UNL     1      24.252  -0.878  54.491  1.00  0.00    -0.228 NA
HETATM    8  C11 UNL     1      23.951  -0.058  53.511  1.00  0.00     0.117 A 
HETATM    9  C18 UNL     1      22.622   0.460  53.227  1.00  0.00     0.135 A 
HETATM   10  C19 UNL     1      22.133   0.377  51.829  1.00  0.00     0.292 C 
ENDROOT
BRANCH   8  11
HETATM   11  N5  UNL     1      25.076   0.315  52.732  1.00  0.00    -0.344 N 
HETATM   12  H13 UNL     1      24.888   0.824  51.816  1.00  0.00     0.167 HD
BRANCH  11  13
HETATM   13  C12 UNL     1      26.440   0.089  53.043  1.00  0.00     0.035 A 
HETATM   14  C13 UNL     1      27.047  -1.139  52.774  1.00  0.00     0.032 A 
HETATM   15  C14 UNL     1      28.368  -1.397  53.055  1.00  0.00     0.046 A 
HETATM   16  C15 UNL     1      29.168  -0.435  53.626  1.00  0.00     0.138 A 
HETATM   17  F1  UNL     1      30.459  -0.750  53.878  1.00  0.00    -0.204 F 
HETATM   18  C16 UNL     1      28.612   0.816  53.917  1.00  0.00     0.074 A 
HETATM   19 CL1  UNL     1      29.621   2.040  54.640  1.00  0.00    -0.081 Cl
HETATM   20  C17 UNL     1      27.286   1.009  53.612  1.00  0.00     0.056 A 
ENDBRANCH  11  13
ENDBRANCH   8  11
BRANCH   1  21
HETATM   21  C6  UNL     1      20.292   0.815  50.498  1.00  0.00     0.366 C 
BRANCH  21  22
HETATM   22  C5  UNL     1      20.550   1.632  49.334  1.00  0.00    -0.074 C 
HETATM   23  C4  UNL     1      20.751   2.316  48.362  1.00  0.00    -0.083 C 
BRANCH  23  24
HETATM   24  C3  UNL     1      20.976   3.153  47.157  1.00  0.00     0.241 C 
BRANCH  24  25
HETATM   25  N1  UNL     1      22.225   3.873  47.313  1.00  0.00    -0.294 NA
HETATM   26  C2  UNL     1      22.260   4.904  48.083  1.00  0.00     0.080 C 
HETATM   27  C1  UNL     1      23.521   5.655  48.259  1.00  0.00     0.057 C 
ENDBRANCH  24  25
ENDBRANCH  23  24
ENDBRANCH  21  22
ENDBRANCH   1  21
TORSDOF 6
ENDMDL
