MODEL 1
REMARK VINA RESULT:      -8.2      0.000      0.000
REMARK  4 active torsions:
REMARK  status: ('A' for Active; 'I' for Inactive)
REMARK    1  A    between atoms: N1_1  and  C1_2 
REMARK    2  A    between atoms: C6_9  and  N4_10 
REMARK    3  A    between atoms: N4_10  and  P1_11 
REMARK    4  A    between atoms: P1_11  and  C7_12 
ROOT
HETATM    1  C1  UNL     1      28.658  -2.087  53.175  1.00  0.00     0.026 A 
HETATM    2  C2  UNL     1      29.878  -1.597  53.616  1.00  0.00     0.031 A 
HETATM    3  C3  UNL     1      30.045  -0.236  53.807  1.00  0.00     0.035 A 
HETATM    4  C4  UNL     1      28.980   0.609  53.549  1.00  0.00     0.072 A 
HETATM    5  N2  UNL     1      29.189   1.925  53.750  1.00  0.00    -0.241 NA
HETATM    6  C5  UNL     1      28.150   2.748  53.498  1.00  0.00     0.236 A 
HETATM    7  N3  UNL     1      26.929   2.333  53.064  1.00  0.00    -0.224 NA
HETATM    8  C6  UNL     1      26.751   1.000  52.873  1.00  0.00     0.141 A 
HETATM    9  C13 UNL     1      27.770   0.098  53.110  1.00  0.00     0.041 A 
HETATM   10  C14 UNL     1      27.577  -1.251  52.912  1.00  0.00     0.046 A 
ENDROOT
BRANCH   8  11
HETATM   11  N4  UNL     1      25.469   0.586  52.420  1.00  0.00    -0.347 N 
HETATM   12  H6  UNL     1      25.674  -0.376  52.069  1.00  0.00     0.166 HD
BRANCH  11  13
HETATM   13  P1  UNL     1      23.822   1.292  52.347  1.00  0.00     0.006 P 
HETATM   14  H7  UNL     1      23.782   2.559  53.042  1.00  0.00     0.085 HD
BRANCH  13  15
HETATM   15  C7  UNL     1      22.661   0.139  53.202  1.00  0.00    -0.013 A 
HETATM   16  C8  UNL     1      22.909  -0.742  54.219  1.00  0.00     0.014 A 
HETATM   17  C9  UNL     1      21.878  -1.502  54.700  1.00  0.00     0.002 A 
HETATM   18  C10 UNL     1      20.595  -1.417  54.201  1.00  0.00     0.019 A 
HETATM   19  C11 UNL     1      20.330  -0.523  53.165  1.00  0.00     0.011 A 
HETATM   20 BR1  UNL     1      18.552  -0.430  52.500  1.00  0.00    -0.051 Br
HETATM   21  C12 UNL     1      21.371   0.250  52.674  1.00  0.00     0.032 A 
ENDBRANCH  13  15
ENDBRANCH  11  13
ENDBRANCH   8  11
BRANCH   1  22
HETATM   22  N1  UNL     1      28.452  -3.485  52.969  1.00  0.00    -0.399 N 
HETATM   23  H1  UNL     1      27.666  -3.964  52.472  1.00  0.00     0.156 HD
HETATM   24  H2  UNL     1      29.197  -4.095  53.375  1.00  0.00     0.156 HD
ENDBRANCH   1  22
TORSDOF 4
ENDMDL
MODEL 2
REMARK VINA RESULT:      -8.0      1.712      2.202
REMARK  4 active torsions:
REMARK  status: ('A' for Active; 'I' for Inactive)
REMARK    1  A    between atoms: N1_1  and  C1_2 
REMARK    2  A    between atoms: C6_9  and  N4_10 
REMARK    3  A    between atoms: N4_10  and  P1_11 
REMARK    4  A    between atoms: P1_11  and  C7_12 
ROOT
HETATM    1  C1  UNL     1      28.394  -1.866  53.264  1.00  0.00     0.026 A 
HETATM    2  C2  UNL     1      29.435  -0.964  53.426  1.00  0.00     0.031 A 
HETATM    3  C3  UNL     1      29.159   0.385  53.576  1.00  0.00     0.035 A 
HETATM    4  C4  UNL     1      27.840   0.801  53.559  1.00  0.00     0.072 A 
HETATM    5  N2  UNL     1      27.620   2.123  53.709  1.00  0.00    -0.241 NA
HETATM    6  C5  UNL     1      26.334   2.528  53.692  1.00  0.00     0.236 A 
HETATM    7  N3  UNL     1      25.269   1.696  53.537  1.00  0.00    -0.224 NA
HETATM    8  C6  UNL     1      25.525   0.370  53.389  1.00  0.00     0.141 A 
HETATM    9  C13 UNL     1      26.817  -0.117  53.396  1.00  0.00     0.041 A 
HETATM   10  C14 UNL     1      27.062  -1.464  53.245  1.00  0.00     0.046 A 
ENDROOT
BRANCH   8  11
HETATM   11  N4  UNL     1      24.398  -0.483  53.229  1.00  0.00    -0.347 N 
HETATM   12  H6  UNL     1      24.631  -0.966  52.333  1.00  0.00     0.166 HD
BRANCH  11  13
HETATM   13  P1  UNL     1      22.888  -0.831  54.131  1.00  0.00     0.006 P 
HETATM   14  H7  UNL     1      22.786  -2.244  54.422  1.00  0.00     0.085 HD
BRANCH  13  15
HETATM   15  C7  UNL     1      21.456  -0.367  53.062  1.00  0.00    -0.013 A 
HETATM   16  C8  UNL     1      20.116  -0.453  53.327  1.00  0.00     0.014 A 
HETATM   17  C9  UNL     1      19.227  -0.043  52.370  1.00  0.00     0.002 A 
HETATM   18  C10 UNL     1      19.626   0.454  51.148  1.00  0.00     0.019 A 
HETATM   19  C11 UNL     1      20.988   0.546  50.867  1.00  0.00     0.011 A 
HETATM   20 BR1  UNL     1      21.506   1.235  49.173  1.00  0.00    -0.051 Br
HETATM   21  C12 UNL     1      21.894   0.133  51.832  1.00  0.00     0.032 A 
ENDBRANCH  13  15
ENDBRANCH  11  13
ENDBRANCH   8  11
BRANCH   1  22
HETATM   22  N1  UNL     1      28.644  -3.265  53.108  1.00  0.00    -0.399 N 
HETATM   23  H1  UNL     1      28.466  -3.871  52.274  1.00  0.00     0.156 HD
HETATM   24  H2  UNL     1      29.059  -3.725  53.949  1.00  0.00     0.156 HD
ENDBRANCH   1  22
TORSDOF 4
ENDMDL
MODEL 3
REMARK VINA RESULT:      -7.7      3.053      6.528
REMARK  4 active torsions:
REMARK  status: ('A' for Active; 'I' for Inactive)
REMARK    1  A    between atoms: N1_1  and  C1_2 
REMARK    2  A    between atoms: C6_9  and  N4_10 
REMARK    3  A    between atoms: N4_10  and  P1_11 
REMARK    4  A    between atoms: P1_11  and  C7_12 
ROOT
HETATM    1  C1  UNL     1      23.848  -1.073  54.999  1.00  0.00     0.026 A 
HETATM    2  C2  UNL     1      22.519  -1.280  55.336  1.00  0.00     0.031 A 
HETATM    3  C3  UNL     1      21.517  -0.746  54.544  1.00  0.00     0.035 A 
HETATM    4  C4  UNL     1      21.871  -0.012  53.426  1.00  0.00     0.072 A 
HETATM    5  N2  UNL     1      20.862   0.488  52.686  1.00  0.00    -0.241 NA
HETATM    6  C5  UNL     1      21.208   1.203  51.595  1.00  0.00     0.236 A 
HETATM    7  N3  UNL     1      22.490   1.442  51.210  1.00  0.00    -0.224 NA
HETATM    8  C6  UNL     1      23.484   0.924  51.978  1.00  0.00     0.141 A 
HETATM    9  C13 UNL     1      23.204   0.182  53.108  1.00  0.00     0.041 A 
HETATM   10  C14 UNL     1      24.221  -0.339  53.878  1.00  0.00     0.046 A 
ENDROOT
BRANCH   8  11
HETATM   11  N4  UNL     1      24.817   1.185  51.557  1.00  0.00    -0.347 N 
HETATM   12  H6  UNL     1      24.997   0.370  50.928  1.00  0.00     0.166 HD
BRANCH  11  13
HETATM   13  P1  UNL     1      26.054   2.448  51.853  1.00  0.00     0.006 P 
HETATM   14  H7  UNL     1      26.594   2.933  50.602  1.00  0.00     0.085 HD
BRANCH  13  15
HETATM   15  C7  UNL     1      27.438   1.688  52.811  1.00  0.00    -0.013 A 
HETATM   16  C8  UNL     1      28.363   2.291  53.618  1.00  0.00     0.014 A 
HETATM   17  C9  UNL     1      29.307   1.514  54.234  1.00  0.00     0.002 A 
HETATM   18  C10 UNL     1      29.365   0.145  54.074  1.00  0.00     0.019 A 
HETATM   19  C11 UNL     1      28.427  -0.479  53.253  1.00  0.00     0.011 A 
HETATM   20 BR1  UNL     1      28.533  -2.366  53.053  1.00  0.00    -0.051 Br
HETATM   21  C12 UNL     1      27.468   0.302  52.627  1.00  0.00     0.032 A 
ENDBRANCH  13  15
ENDBRANCH  11  13
ENDBRANCH   8  11
BRANCH   1  22
HETATM   22  N1  UNL     1      24.907  -1.611  55.794  1.00  0.00    -0.399 N 
HETATM   23  H1  UNL     1      25.630  -2.317  55.527  1.00  0.00     0.156 HD
HETATM   24  H2  UNL     1      24.947  -1.236  56.768  1.00  0.00     0.156 HD
ENDBRANCH   1  22
TORSDOF 4
ENDMDL
MODEL 4
REMARK VINA RESULT:      -7.7      3.136      7.422
REMARK  4 active torsions:
REMARK  status: ('A' for Active; 'I' for Inactive)
REMARK    1  A    between atoms: N1_1  and  C1_2 
REMARK    2  A    between atoms: C6_9  and  N4_10 
REMARK    3  A    between atoms: N4_10  and  P1_11 
REMARK    4  A    between atoms: P1_11  and  C7_12 
ROOT
HETATM    1  C1  UNL     1      20.230   0.355  51.714  1.00  0.00     0.026 A 
HETATM    2  C2  UNL     1      19.377  -0.295  52.595  1.00  0.00     0.031 A 
HETATM    3  C3  UNL     1      19.892  -0.910  53.723  1.00  0.00     0.035 A 
HETATM    4  C4  UNL     1      21.257  -0.860  53.945  1.00  0.00     0.072 A 
HETATM    5  N2  UNL     1      21.712  -1.472  55.056  1.00  0.00    -0.241 NA
HETATM    6  C5  UNL     1      23.043  -1.423  55.272  1.00  0.00     0.236 A 
HETATM    7  N3  UNL     1      23.932  -0.803  54.450  1.00  0.00    -0.224 NA
HETATM    8  C6  UNL     1      23.440  -0.195  53.338  1.00  0.00     0.141 A 
HETATM    9  C13 UNL     1      22.089  -0.205  53.053  1.00  0.00     0.041 A 
HETATM   10  C14 UNL     1      21.604   0.415  51.923  1.00  0.00     0.046 A 
ENDROOT
BRANCH   8  11
HETATM   11  N4  UNL     1      24.385   0.447  52.493  1.00  0.00    -0.347 N 
HETATM   12  H6  UNL     1      24.401  -0.199  51.673  1.00  0.00     0.166 HD
BRANCH  11  13
HETATM   13  P1  UNL     1      25.398   1.925  52.555  1.00  0.00     0.006 P 
HETATM   14  H7  UNL     1      25.515   2.516  51.241  1.00  0.00     0.085 HD
BRANCH  13  15
HETATM   15  C7  UNL     1      27.091   1.442  53.112  1.00  0.00    -0.013 A 
HETATM   16  C8  UNL     1      28.092   2.227  53.618  1.00  0.00     0.014 A 
HETATM   17  C9  UNL     1      29.278   1.639  53.967  1.00  0.00     0.002 A 
HETATM   18  C10 UNL     1      29.507   0.287  53.831  1.00  0.00     0.019 A 
HETATM   19  C11 UNL     1      28.496  -0.522  53.316  1.00  0.00     0.011 A 
HETATM   20 BR1  UNL     1      28.843  -2.382  53.140  1.00  0.00    -0.051 Br
HETATM   21  C12 UNL     1      27.292   0.066  52.960  1.00  0.00     0.032 A 
ENDBRANCH  13  15
ENDBRANCH  11  13
ENDBRANCH   8  11
BRANCH   1  22
HETATM   22  N1  UNL     1      19.731   1.001  50.541  1.00  0.00    -0.399 N 
HETATM   23  H1  UNL     1      19.720   0.648  49.556  1.00  0.00     0.156 HD
HETATM   24  H2  UNL     1      19.327   1.950  50.709  1.00  0.00     0.156 HD
ENDBRANCH   1  22
TORSDOF 4
ENDMDL
MODEL 5
REMARK VINA RESULT:      -7.6      4.393      6.625
REMARK  4 active torsions:
REMARK  status: ('A' for Active; 'I' for Inactive)
REMARK    1  A    between atoms: N1_1  and  C1_2 
REMARK    2  A    between atoms: C6_9  and  N4_10 
REMARK    3  A    between atoms: N4_10  and  P1_11 
REMARK    4  A    between atoms: P1_11  and  C7_12 
ROOT
HETATM    1  C1  UNL     1      26.413   1.727  53.807  1.00  0.00     0.026 A 
HETATM    2  C2  UNL     1      26.456   0.415  54.256  1.00  0.00     0.031 A 
HETATM    3  C3  UNL     1      25.363  -0.413  54.067  1.00  0.00     0.035 A 
HETATM    4  C4  UNL     1      24.244   0.094  53.429  1.00  0.00     0.072 A 
HETATM    5  N2  UNL     1      23.205  -0.749  53.268  1.00  0.00    -0.241 NA
HETATM    6  C5  UNL     1      22.115  -0.254  52.647  1.00  0.00     0.236 A 
HETATM    7  N3  UNL     1      22.008   1.021  52.184  1.00  0.00    -0.224 NA
HETATM    8  C6  UNL     1      23.074   1.845  52.362  1.00  0.00     0.141 A 
HETATM    9  C13 UNL     1      24.223   1.407  52.990  1.00  0.00     0.041 A 
HETATM   10  C14 UNL     1      25.296   2.252  53.164  1.00  0.00     0.046 A 
ENDROOT
BRANCH   8  11
HETATM   11  N4  UNL     1      22.942   3.172  51.870  1.00  0.00    -0.347 N 
HETATM   12  H6  UNL     1      22.867   3.715  52.759  1.00  0.00     0.166 HD
BRANCH  11  13
HETATM   13  P1  UNL     1      22.888   3.969  50.265  1.00  0.00     0.006 P 
HETATM   14  H7  UNL     1      22.260   3.104  49.290  1.00  0.00     0.085 HD
BRANCH  13  15
HETATM   15  C7  UNL     1      24.622   4.278  49.714  1.00  0.00    -0.013 A 
HETATM   16  C8  UNL     1      25.708   3.447  49.769  1.00  0.00     0.014 A 
HETATM   17  C9  UNL     1      26.909   3.899  49.293  1.00  0.00     0.002 A 
HETATM   18  C10 UNL     1      27.071   5.160  48.759  1.00  0.00     0.019 A 
HETATM   19  C11 UNL     1      25.972   6.015  48.697  1.00  0.00     0.011 A 
HETATM   20 BR1  UNL     1      26.228   7.746  47.956  1.00  0.00    -0.051 Br
HETATM   21  C12 UNL     1      24.753   5.563  49.177  1.00  0.00     0.032 A 
ENDBRANCH  13  15
ENDBRANCH  11  13
ENDBRANCH   8  11
BRANCH   1  22
HETATM   22  N1  UNL     1      27.524   2.608  53.985  1.00  0.00    -0.399 N 
HETATM   23  H1  UNL     1      28.027   3.178  53.267  1.00  0.00     0.156 HD
HETATM   24  H2  UNL     1      27.863   2.679  54.970  1.00  0.00     0.156 HD
ENDBRANCH   1  22
TORSDOF 4
ENDMDL
MODEL 6
REMARK VINA RESULT:      -7.6      4.991      7.215
REMARK  4 active torsions:
REMARK  status: ('A' for Active; 'I' for Inactive)
REMARK    1  A    between atoms: N1_1  and  C1_2 
REMARK    2  A    between atoms: C6_9  and  N4_10 
REMARK    3  A    between atoms: N4_10  and  P1_11 
REMARK    4  A    between atoms: P1_11  and  C7_12 
ROOT
HETATM    1  C1  UNL     1      24.113   0.333  53.099  1.00  0.00     0.026 A 
HETATM    2  C2  UNL     1      24.569  -0.540  54.076  1.00  0.00     0.031 A 
HETATM    3  C3  UNL     1      25.884  -0.469  54.501  1.00  0.00     0.035 A 
HETATM    4  C4  UNL     1      26.719   0.478  53.935  1.00  0.00     0.072 A 
HETATM    5  N2  UNL     1      27.990   0.509  54.381  1.00  0.00    -0.241 NA
HETATM    6  C5  UNL     1      28.803   1.433  53.828  1.00  0.00     0.236 A 
HETATM    7  N3  UNL     1      28.419   2.317  52.868  1.00  0.00    -0.224 NA
HETATM    8  C6  UNL     1      27.130   2.260  52.441  1.00  0.00     0.141 A 
HETATM    9  C13 UNL     1      26.242   1.339  52.961  1.00  0.00     0.041 A 
HETATM   10  C14 UNL     1      24.938   1.292  52.520  1.00  0.00     0.046 A 
ENDROOT
BRANCH   8  11
HETATM   11  N4  UNL     1      26.749   3.192  51.437  1.00  0.00    -0.347 N 
HETATM   12  H6  UNL     1      26.659   4.070  51.996  1.00  0.00     0.166 HD
BRANCH  11  13
HETATM   13  P1  UNL     1      26.441   3.154  49.672  1.00  0.00     0.006 P 
HETATM   14  H7  UNL     1      27.396   2.293  49.009  1.00  0.00     0.085 HD
BRANCH  13  15
HETATM   15  C7  UNL     1      26.664   4.863  49.009  1.00  0.00    -0.013 A 
HETATM   16  C8  UNL     1      25.744   5.868  48.885  1.00  0.00     0.014 A 
HETATM   17  C9  UNL     1      26.145   7.067  48.360  1.00  0.00     0.002 A 
HETATM   18  C10 UNL     1      27.439   7.305  47.949  1.00  0.00     0.019 A 
HETATM   19  C11 UNL     1      28.384   6.288  48.071  1.00  0.00     0.011 A 
HETATM   20 BR1  UNL     1      30.160   6.646  47.496  1.00  0.00    -0.051 Br
HETATM   21  C12 UNL     1      27.985   5.071  48.603  1.00  0.00     0.032 A 
ENDBRANCH  13  15
ENDBRANCH  11  13
ENDBRANCH   8  11
BRANCH   1  22
HETATM   22  N1  UNL     1      22.761   0.289  52.639  1.00  0.00    -0.399 N 
HETATM   23  H1  UNL     1      21.969   0.929  52.874  1.00  0.00     0.156 HD
HETATM   24  H2  UNL     1      22.556  -0.496  51.979  1.00  0.00     0.156 HD
ENDBRANCH   1  22
TORSDOF 4
ENDMDL
MODEL 7
REMARK VINA RESULT:      -7.4      2.873      3.879
REMARK  4 active torsions:
REMARK  status: ('A' for Active; 'I' for Inactive)
REMARK    1  A    between atoms: N1_1  and  C1_2 
REMARK    2  A    between atoms: C6_9  and  N4_10 
REMARK    3  A    between atoms: N4_10  and  P1_11 
REMARK    4  A    between atoms: P1_11  and  C7_12 
ROOT
HETATM    1  C1  UNL     1      24.553  -0.304  53.512  1.00  0.00     0.026 A 
HETATM    2  C2  UNL     1      25.100  -0.621  54.747  1.00  0.00     0.031 A 
HETATM    3  C3  UNL     1      26.319  -0.079  55.119  1.00  0.00     0.035 A 
HETATM    4  C4  UNL     1      26.966   0.773  54.241  1.00  0.00     0.072 A 
HETATM    5  N2  UNL     1      28.148   1.276  54.647  1.00  0.00    -0.241 NA
HETATM    6  C5  UNL     1      28.779   2.106  53.790  1.00  0.00     0.236 A 
HETATM    7  N3  UNL     1      28.298   2.456  52.567  1.00  0.00    -0.224 NA
HETATM    8  C6  UNL     1      27.103   1.932  52.188  1.00  0.00     0.141 A 
HETATM    9  C13 UNL     1      26.401   1.075  53.013  1.00  0.00     0.041 A 
HETATM   10  C14 UNL     1      25.191   0.550  52.618  1.00  0.00     0.046 A 
ENDROOT
BRANCH   8  11
HETATM   11  N4  UNL     1      26.617   2.311  50.907  1.00  0.00    -0.347 N 
HETATM   12  H6  UNL     1      26.948   1.515  50.317  1.00  0.00     0.166 HD
BRANCH  11  13
HETATM   13  P1  UNL     1      25.691   3.682  50.217  1.00  0.00     0.006 P 
HETATM   14  H7  UNL     1      26.330   4.939  50.537  1.00  0.00     0.085 HD
BRANCH  13  15
HETATM   15  C7  UNL     1      24.011   3.689  50.984  1.00  0.00    -0.013 A 
HETATM   16  C8  UNL     1      23.454   4.603  51.836  1.00  0.00     0.014 A 
HETATM   17  C9  UNL     1      22.176   4.397  52.280  1.00  0.00     0.002 A 
HETATM   18  C10 UNL     1      21.424   3.304  51.904  1.00  0.00     0.019 A 
HETATM   19  C11 UNL     1      21.981   2.367  51.036  1.00  0.00     0.011 A 
HETATM   20 BR1  UNL     1      20.920   0.872  50.536  1.00  0.00    -0.051 Br
HETATM   21  C12 UNL     1      23.276   2.570  50.583  1.00  0.00     0.032 A 
ENDBRANCH  13  15
ENDBRANCH  11  13
ENDBRANCH   8  11
BRANCH   1  22
HETATM   22  N1  UNL     1      23.298  -0.845  53.097  1.00  0.00    -0.399 N 
HETATM   23  H1  UNL     1      22.347  -0.668  53.494  1.00  0.00     0.156 HD
HETATM   24  H2  UNL     1      23.359  -1.503  52.288  1.00  0.00     0.156 HD
ENDBRANCH   1  22
TORSDOF 4
ENDMDL
MODEL 8
REMARK VINA RESULT:      -7.4      3.372      6.441
REMARK  4 active torsions:
REMARK  status: ('A' for Active; 'I' for Inactive)
REMARK    1  A    between atoms: N1_1  and  C1_2 
REMARK    2  A    between atoms: C6_9  and  N4_10 
REMARK    3  A    between atoms: N4_10  and  P1_11 
REMARK    4  A    between atoms: P1_11  and  C7_12 
ROOT
HETATM    1  C1  UNL     1      21.294   0.052  52.361  1.00  0.00     0.026 A 
HETATM    2  C2  UNL     1      20.549  -0.451  53.418  1.00  0.00     0.031 A 
HETATM    3  C3  UNL     1      21.192  -0.944  54.540  1.00  0.00     0.035 A 
HETATM    4  C4  UNL     1      22.575  -0.922  54.579  1.00  0.00     0.072 A 
HETATM    5  N2  UNL     1      23.156  -1.413  55.692  1.00  0.00    -0.241 NA
HETATM    6  C5  UNL     1      24.505  -1.392  55.730  1.00  0.00     0.236 A 
HETATM    7  N3  UNL     1      25.293  -0.914  54.729  1.00  0.00    -0.224 NA
HETATM    8  C6  UNL     1      24.675  -0.426  53.622  1.00  0.00     0.141 A 
HETATM    9  C13 UNL     1      23.299  -0.416  53.513  1.00  0.00     0.041 A 
HETATM   10  C14 UNL     1      22.685   0.081  52.385  1.00  0.00     0.046 A 
ENDROOT
BRANCH   8  11
HETATM   11  N4  UNL     1      25.517   0.069  52.588  1.00  0.00    -0.347 N 
HETATM   12  H6  UNL     1      25.276  -0.573  51.801  1.00  0.00     0.166 HD
BRANCH  11  13
HETATM   13  P1  UNL     1      26.725   1.381  52.408  1.00  0.00     0.006 P 
HETATM   14  H7  UNL     1      27.002   1.996  53.687  1.00  0.00     0.085 HD
BRANCH  13  15
HETATM   15  C7  UNL     1      26.011   2.675  51.301  1.00  0.00    -0.013 A 
HETATM   16  C8  UNL     1      26.532   3.217  50.157  1.00  0.00     0.014 A 
HETATM   17  C9  UNL     1      25.812   4.175  49.495  1.00  0.00     0.002 A 
HETATM   18  C10 UNL     1      24.582   4.618  49.933  1.00  0.00     0.019 A 
HETATM   19  C11 UNL     1      24.043   4.073  51.096  1.00  0.00     0.011 A 
HETATM   20 BR1  UNL     1      22.346   4.705  51.674  1.00  0.00    -0.051 Br
HETATM   21  C12 UNL     1      24.766   3.103  51.772  1.00  0.00     0.032 A 
ENDBRANCH  13  15
ENDBRANCH  11  13
ENDBRANCH   8  11
BRANCH   1  22
HETATM   22  N1  UNL     1      20.662   0.569  51.189  1.00  0.00    -0.399 N 
HETATM   23  H1  UNL     1      21.089   0.794  50.261  1.00  0.00     0.156 HD
HETATM   24  H2  UNL     1      19.636   0.739  51.292  1.00  0.00     0.156 HD
ENDBRANCH   1  22
TORSDOF 4
ENDMDL
MODEL 9
REMARK VINA RESULT:      -7.3      4.185      6.646
REMARK  4 active torsions:
REMARK  status: ('A' for Active; 'I' for Inactive)
REMARK    1  A    between atoms: N1_1  and  C1_2 
REMARK    2  A    between atoms: C6_9  and  N4_10 
REMARK    3  A    between atoms: N4_10  and  P1_11 
REMARK    4  A    between atoms: P1_11  and  C7_12 
ROOT
HETATM    1  C1  UNL     1      22.190  -0.581  53.832  1.00  0.00     0.026 A 
HETATM    2  C2  UNL     1      22.597  -1.318  54.934  1.00  0.00     0.031 A 
HETATM    3  C3  UNL     1      23.936  -1.348  55.285  1.00  0.00     0.035 A 
HETATM    4  C4  UNL     1      24.842  -0.636  54.520  1.00  0.00     0.072 A 
HETATM    5  N2  UNL     1      26.134  -0.695  54.901  1.00  0.00    -0.241 NA
HETATM    6  C5  UNL     1      27.017  -0.000  54.154  1.00  0.00     0.236 A 
HETATM    7  N3  UNL     1      26.684   0.741  53.063  1.00  0.00    -0.224 NA
HETATM    8  C6  UNL     1      25.373   0.780  52.707  1.00  0.00     0.141 A 
HETATM    9  C13 UNL     1      24.413   0.093  53.424  1.00  0.00     0.041 A 
HETATM   10  C14 UNL     1      23.088   0.141  53.053  1.00  0.00     0.046 A 
ENDROOT
BRANCH   8  11
HETATM   11  N4  UNL     1      25.046   1.561  51.565  1.00  0.00    -0.347 N 
HETATM   12  H6  UNL     1      25.333   0.922  50.790  1.00  0.00     0.166 HD
BRANCH  11  13
HETATM   13  P1  UNL     1      24.346   3.181  51.250  1.00  0.00     0.006 P 
HETATM   14  H7  UNL     1      23.085   3.062  50.551  1.00  0.00     0.085 HD
BRANCH  13  15
HETATM   15  C7  UNL     1      25.511   4.113  50.161  1.00  0.00    -0.013 A 
HETATM   16  C8  UNL     1      26.706   3.711  49.630  1.00  0.00     0.014 A 
HETATM   17  C9  UNL     1      27.404   4.585  48.841  1.00  0.00     0.002 A 
HETATM   18  C10 UNL     1      26.952   5.856  48.558  1.00  0.00     0.019 A 
HETATM   19  C11 UNL     1      25.736   6.276  49.093  1.00  0.00     0.011 A 
HETATM   20 BR1  UNL     1      25.140   8.034  48.685  1.00  0.00    -0.051 Br
HETATM   21  C12 UNL     1      25.024   5.396  49.894  1.00  0.00     0.032 A 
ENDBRANCH  13  15
ENDBRANCH  11  13
ENDBRANCH   8  11
BRANCH   1  22
HETATM   22  N1  UNL     1      20.816  -0.527  53.442  1.00  0.00    -0.399 N 
HETATM   23  H1  UNL     1      20.061  -1.229  53.614  1.00  0.00     0.156 HD
HETATM   24  H2  UNL     1      20.551   0.336  52.917  1.00  0.00     0.156 HD
ENDBRANCH   1  22
TORSDOF 4
ENDMDL
