MODEL 1
REMARK VINA RESULT:      -6.6      0.000      0.000
REMARK  6 active torsions:
REMARK  status: ('A' for Active; 'I' for Inactive)
REMARK    1  A    between atoms: C2_2  and  N1_3 
REMARK    2  A    between atoms: N1_3  and  C3_4 
REMARK       I    between atoms: N1_3  and  C10_13 
REMARK    3  A    between atoms: C3_4  and  C4_5 
REMARK    4  A    between atoms: C9_11  and  O1_12 
REMARK       I    between atoms: C10_13  and  N2_15 
REMARK    5  A    between atoms: N2_15  and  C11_16 
REMARK    6  A    between atoms: C12_17  and  C13_18 
ROOT
HETATM    1  N1  UNL     1      23.804   1.805  51.707  1.00  0.00    -0.330 N 
HETATM    2  C10 UNL     1      24.455   2.807  50.924  1.00  0.00     0.330 C 
HETATM    3  O2  UNL     1      23.763   2.934  49.871  1.00  0.00    -0.246 OA
HETATM    4  N2  UNL     1      25.601   3.585  51.106  1.00  0.00    -0.267 N 
HETATM    5  H12 UNL     1      26.062   3.384  52.006  1.00  0.00     0.181 HD
ENDROOT
BRANCH   1   6
HETATM    6  C2  UNL     1      22.602   1.313  51.054  1.00  0.00     0.123 C 
HETATM    7  C1  UNL     1      21.850   0.342  51.940  1.00  0.00     0.026 C 
ENDBRANCH   1   6
BRANCH   1   8
HETATM    8  C3  UNL     1      24.048   1.144  52.974  1.00  0.00     0.169 C 
BRANCH   8   9
HETATM    9  C4  UNL     1      25.422   0.630  53.131  1.00  0.00    -0.006 A 
HETATM   10  C5  UNL     1      25.566  -0.710  52.754  1.00  0.00     0.012 A 
HETATM   11  C6  UNL     1      26.815  -1.330  52.844  1.00  0.00     0.002 A 
HETATM   12  C7  UNL     1      27.917  -0.641  53.302  1.00  0.00     0.022 A 
HETATM   13  C8  UNL     1      27.805   0.701  53.687  1.00  0.00     0.044 A 
HETATM   14 BR1  UNL     1      29.259   1.754  54.336  1.00  0.00    -0.048 Br
HETATM   15  C9  UNL     1      26.553   1.261  53.578  1.00  0.00     0.090 A 
BRANCH  15  16
HETATM   16  O1  UNL     1      26.400   2.567  53.943  1.00  0.00    -0.359 OA
HETATM   17  H11 UNL     1      26.847   2.973  54.757  1.00  0.00     0.217 HD
ENDBRANCH  15  16
ENDBRANCH   8   9
ENDBRANCH   1   8
BRANCH   4  18
HETATM   18  C11 UNL     1      25.981   4.501  50.121  1.00  0.00     0.015 C 
HETATM   19  C12 UNL     1      26.326   5.290  49.279  1.00  0.00    -0.074 C 
BRANCH  19  20
HETATM   20  C13 UNL     1      26.753   6.248  48.280  1.00  0.00     0.121 C 
HETATM   21  C14 UNL     1      28.063   6.327  48.099  1.00  0.00     0.432 C 
HETATM   22  F1  UNL     1      28.763   7.127  47.239  1.00  0.00    -0.454 F 
ENDBRANCH  19  20
ENDBRANCH   4  18
TORSDOF 6
ENDMDL
MODEL 2
REMARK VINA RESULT:      -6.5      4.054      6.025
REMARK  6 active torsions:
REMARK  status: ('A' for Active; 'I' for Inactive)
REMARK    1  A    between atoms: C2_2  and  N1_3 
REMARK    2  A    between atoms: N1_3  and  C3_4 
REMARK       I    between atoms: N1_3  and  C10_13 
REMARK    3  A    between atoms: C3_4  and  C4_5 
REMARK    4  A    between atoms: C9_11  and  O1_12 
REMARK       I    between atoms: C10_13  and  N2_15 
REMARK    5  A    between atoms: N2_15  and  C11_16 
REMARK    6  A    between atoms: C12_17  and  C13_18 
ROOT
HETATM    1  N1  UNL     1      23.094   0.153  53.095  1.00  0.00    -0.330 N 
HETATM    2  C10 UNL     1      24.511   0.228  53.261  1.00  0.00     0.330 C 
HETATM    3  O2  UNL     1      24.869  -0.893  53.729  1.00  0.00    -0.246 OA
HETATM    4  N2  UNL     1      25.462   1.223  53.019  1.00  0.00    -0.267 N 
HETATM    5  H12 UNL     1      25.034   2.078  52.633  1.00  0.00     0.181 HD
ENDROOT
BRANCH   1   6
HETATM    6  C2  UNL     1      22.577  -1.148  53.487  1.00  0.00     0.123 C 
HETATM    7  C1  UNL     1      21.539  -1.025  54.583  1.00  0.00     0.026 C 
ENDBRANCH   1   6
BRANCH   1   8
HETATM    8  C3  UNL     1      22.042   1.049  52.654  1.00  0.00     0.169 C 
BRANCH   8   9
HETATM    9  C4  UNL     1      22.195   1.521  51.265  1.00  0.00    -0.006 A 
HETATM   10  C5  UNL     1      21.493   0.752  50.331  1.00  0.00     0.012 A 
HETATM   11  C6  UNL     1      21.542   1.084  48.975  1.00  0.00     0.002 A 
HETATM   12  C7  UNL     1      22.276   2.165  48.536  1.00  0.00     0.022 A 
HETATM   13  C8  UNL     1      22.990   2.955  49.448  1.00  0.00     0.044 A 
HETATM   14 BR1  UNL     1      24.038   4.472  48.957  1.00  0.00    -0.048 Br
HETATM   15  C9  UNL     1      22.906   2.581  50.769  1.00  0.00     0.090 A 
BRANCH  15  16
HETATM   16  O1  UNL     1      23.587   3.324  51.690  1.00  0.00    -0.359 OA
HETATM   17  H11 UNL     1      24.537   3.646  51.551  1.00  0.00     0.217 HD
ENDBRANCH  15  16
ENDBRANCH   8   9
ENDBRANCH   1   8
BRANCH   4  18
HETATM   18  C11 UNL     1      26.809   0.976  53.297  1.00  0.00     0.015 C 
HETATM   19  C12 UNL     1      27.967   0.745  53.535  1.00  0.00    -0.074 C 
BRANCH  19  20
HETATM   20  C13 UNL     1      29.354   0.449  53.829  1.00  0.00     0.121 C 
HETATM   21  C14 UNL     1      29.668  -0.838  53.835  1.00  0.00     0.432 C 
HETATM   22  F1  UNL     1      30.879  -1.424  54.076  1.00  0.00    -0.454 F 
ENDBRANCH  19  20
ENDBRANCH   4  18
TORSDOF 6
ENDMDL
MODEL 3
REMARK VINA RESULT:      -6.4      3.634      6.412
REMARK  6 active torsions:
REMARK  status: ('A' for Active; 'I' for Inactive)
REMARK    1  A    between atoms: C2_2  and  N1_3 
REMARK    2  A    between atoms: N1_3  and  C3_4 
REMARK       I    between atoms: N1_3  and  C10_13 
REMARK    3  A    between atoms: C3_4  and  C4_5 
REMARK    4  A    between atoms: C9_11  and  O1_12 
REMARK       I    between atoms: C10_13  and  N2_15 
REMARK    5  A    between atoms: N2_15  and  C11_16 
REMARK    6  A    between atoms: C12_17  and  C13_18 
ROOT
HETATM    1  N1  UNL     1      25.447   3.720  50.394  1.00  0.00    -0.330 N 
HETATM    2  C10 UNL     1      26.127   2.855  51.305  1.00  0.00     0.330 C 
HETATM    3  O2  UNL     1      27.343   2.861  50.954  1.00  0.00    -0.246 OA
HETATM    4  N2  UNL     1      25.717   2.086  52.398  1.00  0.00    -0.267 N 
HETATM    5  H12 UNL     1      24.706   2.179  52.575  1.00  0.00     0.181 HD
ENDROOT
BRANCH   1   6
HETATM    6  C2  UNL     1      26.362   4.306  49.428  1.00  0.00     0.123 C 
HETATM    7  C1  UNL     1      25.881   5.665  48.964  1.00  0.00     0.026 C 
ENDBRANCH   1   6
BRANCH   1   8
HETATM    8  C3  UNL     1      24.077   4.146  50.179  1.00  0.00     0.169 C 
BRANCH   8   9
HETATM    9  C4  UNL     1      23.140   3.043  49.898  1.00  0.00    -0.006 A 
HETATM   10  C5  UNL     1      22.956   2.796  48.533  1.00  0.00     0.012 A 
HETATM   11  C6  UNL     1      22.098   1.775  48.118  1.00  0.00     0.002 A 
HETATM   12  C7  UNL     1      21.423   0.999  49.035  1.00  0.00     0.022 A 
HETATM   13  C8  UNL     1      21.586   1.222  50.409  1.00  0.00     0.044 A 
HETATM   14 BR1  UNL     1      20.704   0.214  51.769  1.00  0.00    -0.048 Br
HETATM   15  C9  UNL     1      22.442   2.239  50.761  1.00  0.00     0.090 A 
BRANCH  15  16
HETATM   16  O1  UNL     1      22.629   2.490  52.090  1.00  0.00    -0.359 OA
HETATM   17  H11 UNL     1      21.871   2.702  52.727  1.00  0.00     0.217 HD
ENDBRANCH  15  16
ENDBRANCH   8   9
ENDBRANCH   1   8
BRANCH   4  18
HETATM   18  C11 UNL     1      26.656   1.324  53.100  1.00  0.00     0.015 C 
HETATM   19  C12 UNL     1      27.471   0.684  53.712  1.00  0.00    -0.074 C 
BRANCH  19  20
HETATM   20  C13 UNL     1      28.465  -0.072  54.447  1.00  0.00     0.121 C 
HETATM   21  C14 UNL     1      29.421  -0.614  53.708  1.00  0.00     0.432 C 
HETATM   22  F1  UNL     1      30.486  -1.373  54.106  1.00  0.00    -0.454 F 
ENDBRANCH  19  20
ENDBRANCH   4  18
TORSDOF 6
ENDMDL
MODEL 4
REMARK VINA RESULT:      -6.3      3.715      6.207
REMARK  6 active torsions:
REMARK  status: ('A' for Active; 'I' for Inactive)
REMARK    1  A    between atoms: C2_2  and  N1_3 
REMARK    2  A    between atoms: N1_3  and  C3_4 
REMARK       I    between atoms: N1_3  and  C10_13 
REMARK    3  A    between atoms: C3_4  and  C4_5 
REMARK    4  A    between atoms: C9_11  and  O1_12 
REMARK       I    between atoms: C10_13  and  N2_15 
REMARK    5  A    between atoms: N2_15  and  C11_16 
REMARK    6  A    between atoms: C12_17  and  C13_18 
ROOT
HETATM    1  N1  UNL     1      22.930   3.187  52.495  1.00  0.00    -0.330 N 
HETATM    2  C10 UNL     1      24.094   2.502  52.959  1.00  0.00     0.330 C 
HETATM    3  O2  UNL     1      23.756   1.290  53.100  1.00  0.00    -0.246 OA
HETATM    4  N2  UNL     1      25.401   2.903  53.251  1.00  0.00    -0.267 N 
HETATM    5  H12 UNL     1      25.539   3.911  53.087  1.00  0.00     0.181 HD
ENDROOT
BRANCH   1   6
HETATM    6  C2  UNL     1      21.806   2.280  52.330  1.00  0.00     0.123 C 
HETATM    7  C1  UNL     1      20.488   3.026  52.326  1.00  0.00     0.026 C 
ENDBRANCH   1   6
BRANCH   1   8
HETATM    8  C3  UNL     1      22.581   4.556  52.166  1.00  0.00     0.169 C 
BRANCH   8   9
HETATM    9  C4  UNL     1      23.353   5.121  51.043  1.00  0.00    -0.006 A 
HETATM   10  C5  UNL     1      23.093   4.500  49.816  1.00  0.00     0.012 A 
HETATM   11  C6  UNL     1      23.749   4.934  48.662  1.00  0.00     0.002 A 
HETATM   12  C7  UNL     1      24.656   5.971  48.709  1.00  0.00     0.022 A 
HETATM   13  C8  UNL     1      24.936   6.613  49.922  1.00  0.00     0.044 A 
HETATM   14 BR1  UNL     1      26.169   8.058  50.109  1.00  0.00    -0.048 Br
HETATM   15  C9  UNL     1      24.262   6.145  51.026  1.00  0.00     0.090 A 
BRANCH  15  16
HETATM   16  O1  UNL     1      24.507   6.743  52.229  1.00  0.00    -0.359 OA
HETATM   17  H11 UNL     1      23.773   7.048  52.857  1.00  0.00     0.217 HD
ENDBRANCH  15  16
ENDBRANCH   8   9
ENDBRANCH   1   8
BRANCH   4  18
HETATM   18  C11 UNL     1      26.330   1.961  53.701  1.00  0.00     0.015 C 
HETATM   19  C12 UNL     1      27.128   1.139  54.074  1.00  0.00    -0.074 C 
BRANCH  19  20
HETATM   20  C13 UNL     1      28.074   0.136  54.515  1.00  0.00     0.121 C 
HETATM   21  C14 UNL     1      29.157   0.012  53.762  1.00  0.00     0.432 C 
HETATM   22  F1  UNL     1      30.217  -0.837  53.918  1.00  0.00    -0.454 F 
ENDBRANCH  19  20
ENDBRANCH   4  18
TORSDOF 6
ENDMDL
MODEL 5
REMARK VINA RESULT:      -6.1      4.881      7.552
REMARK  6 active torsions:
REMARK  status: ('A' for Active; 'I' for Inactive)
REMARK    1  A    between atoms: C2_2  and  N1_3 
REMARK    2  A    between atoms: N1_3  and  C3_4 
REMARK       I    between atoms: N1_3  and  C10_13 
REMARK    3  A    between atoms: C3_4  and  C4_5 
REMARK    4  A    between atoms: C9_11  and  O1_12 
REMARK       I    between atoms: C10_13  and  N2_15 
REMARK    5  A    between atoms: N2_15  and  C11_16 
REMARK    6  A    between atoms: C12_17  and  C13_18 
ROOT
HETATM    1  N1  UNL     1      24.236   0.620  53.281  1.00  0.00    -0.330 N 
HETATM    2  C10 UNL     1      22.871   0.202  53.244  1.00  0.00     0.330 C 
HETATM    3  O2  UNL     1      22.893  -1.064  53.197  1.00  0.00    -0.246 OA
HETATM    4  N2  UNL     1      21.650   0.881  53.249  1.00  0.00    -0.267 N 
HETATM    5  H12 UNL     1      21.779   1.903  53.296  1.00  0.00     0.181 HD
ENDROOT
BRANCH   1   6
HETATM    6  C2  UNL     1      25.145  -0.515  53.276  1.00  0.00     0.123 C 
HETATM    7  C1  UNL     1      26.394  -0.227  54.082  1.00  0.00     0.026 C 
ENDBRANCH   1   6
BRANCH   1   8
HETATM    8  C3  UNL     1      24.943   1.887  53.305  1.00  0.00     0.169 C 
BRANCH   8   9
HETATM    9  C4  UNL     1      25.023   2.557  51.993  1.00  0.00    -0.006 A 
HETATM   10  C5  UNL     1      26.265   2.415  51.365  1.00  0.00     0.012 A 
HETATM   11  C6  UNL     1      26.484   2.994  50.113  1.00  0.00     0.002 A 
HETATM   12  C7  UNL     1      25.492   3.709  49.479  1.00  0.00     0.022 A 
HETATM   13  C8  UNL     1      24.237   3.869  50.082  1.00  0.00     0.044 A 
HETATM   14 BR1  UNL     1      22.789   4.836  49.301  1.00  0.00    -0.048 Br
HETATM   15  C9  UNL     1      24.077   3.278  51.314  1.00  0.00     0.090 A 
BRANCH  15  16
HETATM   16  O1  UNL     1      22.869   3.410  51.937  1.00  0.00    -0.359 OA
HETATM   17  H11 UNL     1      21.987   3.432  51.440  1.00  0.00     0.217 HD
ENDBRANCH  15  16
ENDBRANCH   8   9
ENDBRANCH   1   8
BRANCH   4  18
HETATM   18  C11 UNL     1      20.455   0.159  53.200  1.00  0.00     0.015 C 
HETATM   19  C12 UNL     1      19.419  -0.453  53.144  1.00  0.00    -0.074 C 
BRANCH  19  20
HETATM   20  C13 UNL     1      18.163  -1.172  53.072  1.00  0.00     0.121 C 
HETATM   21  C14 UNL     1      18.153  -2.352  53.673  1.00  0.00     0.432 C 
HETATM   22  F1  UNL     1      17.131  -3.253  53.776  1.00  0.00    -0.454 F 
ENDBRANCH  19  20
ENDBRANCH   4  18
TORSDOF 6
ENDMDL
MODEL 6
REMARK VINA RESULT:      -6.0      3.675      6.287
REMARK  6 active torsions:
REMARK  status: ('A' for Active; 'I' for Inactive)
REMARK    1  A    between atoms: C2_2  and  N1_3 
REMARK    2  A    between atoms: N1_3  and  C3_4 
REMARK       I    between atoms: N1_3  and  C10_13 
REMARK    3  A    between atoms: C3_4  and  C4_5 
REMARK    4  A    between atoms: C9_11  and  O1_12 
REMARK       I    between atoms: C10_13  and  N2_15 
REMARK    5  A    between atoms: N2_15  and  C11_16 
REMARK    6  A    between atoms: C12_17  and  C13_18 
ROOT
HETATM    1  N1  UNL     1      24.329   3.010  51.258  1.00  0.00    -0.330 N 
HETATM    2  C10 UNL     1      25.440   2.357  51.874  1.00  0.00     0.330 C 
HETATM    3  O2  UNL     1      25.167   1.121  51.869  1.00  0.00    -0.246 OA
HETATM    4  N2  UNL     1      26.644   2.806  52.422  1.00  0.00    -0.267 N 
HETATM    5  H12 UNL     1      26.738   3.831  52.354  1.00  0.00     0.181 HD
ENDROOT
BRANCH   1   6
HETATM    6  C2  UNL     1      23.317   2.057  50.832  1.00  0.00     0.123 C 
HETATM    7  C1  UNL     1      22.689   2.468  49.517  1.00  0.00     0.026 C 
ENDBRANCH   1   6
BRANCH   1   8
HETATM    8  C3  UNL     1      23.949   4.379  50.966  1.00  0.00     0.169 C 
BRANCH   8   9
HETATM    9  C4  UNL     1      24.998   5.165  50.288  1.00  0.00    -0.006 A 
HETATM   10  C5  UNL     1      25.730   4.430  49.349  1.00  0.00     0.012 A 
HETATM   11  C6  UNL     1      26.754   5.046  48.626  1.00  0.00     0.002 A 
HETATM   12  C7  UNL     1      27.060   6.376  48.822  1.00  0.00     0.022 A 
HETATM   13  C8  UNL     1      26.345   7.138  49.755  1.00  0.00     0.044 A 
HETATM   14 BR1  UNL     1      26.678   8.983  50.111  1.00  0.00    -0.048 Br
HETATM   15  C9  UNL     1      25.348   6.480  50.438  1.00  0.00     0.090 A 
BRANCH  15  16
HETATM   16  O1  UNL     1      24.627   7.186  51.357  1.00  0.00    -0.359 OA
HETATM   17  H11 UNL     1      24.675   8.194  51.446  1.00  0.00     0.217 HD
ENDBRANCH  15  16
ENDBRANCH   8   9
ENDBRANCH   1   8
BRANCH   4  18
HETATM   18  C11 UNL     1      27.544   1.886  52.966  1.00  0.00     0.015 C 
HETATM   19  C12 UNL     1      28.309   1.090  53.449  1.00  0.00    -0.074 C 
BRANCH  19  20
HETATM   20  C13 UNL     1      29.223   0.140  54.048  1.00  0.00     0.121 C 
HETATM   21  C14 UNL     1      29.316  -1.025  53.425  1.00  0.00     0.432 C 
HETATM   22  F1  UNL     1      30.083  -2.110  53.745  1.00  0.00    -0.454 F 
ENDBRANCH  19  20
ENDBRANCH   4  18
TORSDOF 6
ENDMDL
MODEL 7
REMARK VINA RESULT:      -5.9      2.508      3.131
REMARK  6 active torsions:
REMARK  status: ('A' for Active; 'I' for Inactive)
REMARK    1  A    between atoms: C2_2  and  N1_3 
REMARK    2  A    between atoms: N1_3  and  C3_4 
REMARK       I    between atoms: N1_3  and  C10_13 
REMARK    3  A    between atoms: C3_4  and  C4_5 
REMARK    4  A    between atoms: C9_11  and  O1_12 
REMARK       I    between atoms: C10_13  and  N2_15 
REMARK    5  A    between atoms: N2_15  and  C11_16 
REMARK    6  A    between atoms: C12_17  and  C13_18 
ROOT
HETATM    1  N1  UNL     1      24.097   3.341  50.962  1.00  0.00    -0.330 N 
HETATM    2  C10 UNL     1      25.192   3.977  50.301  1.00  0.00     0.330 C 
HETATM    3  O2  UNL     1      25.214   5.169  50.726  1.00  0.00    -0.246 OA
HETATM    4  N2  UNL     1      26.140   3.549  49.367  1.00  0.00    -0.267 N 
HETATM    5  H12 UNL     1      26.009   2.557  49.115  1.00  0.00     0.181 HD
ENDROOT
BRANCH   1   6
HETATM    6  C2  UNL     1      23.425   4.247  51.878  1.00  0.00     0.123 C 
HETATM    7  C1  UNL     1      21.919   4.139  51.759  1.00  0.00     0.026 C 
ENDBRANCH   1   6
BRANCH   1   8
HETATM    8  C3  UNL     1      23.476   2.030  50.936  1.00  0.00     0.169 C 
BRANCH   8   9
HETATM    9  C4  UNL     1      23.952   1.117  51.993  1.00  0.00    -0.006 A 
HETATM   10  C5  UNL     1      25.342   0.959  52.014  1.00  0.00     0.012 A 
HETATM   11  C6  UNL     1      25.935   0.127  52.966  1.00  0.00     0.002 A 
HETATM   12  C7  UNL     1      25.171  -0.548  53.893  1.00  0.00     0.022 A 
HETATM   13  C8  UNL     1      23.776  -0.410  53.898  1.00  0.00     0.044 A 
HETATM   14 BR1  UNL     1      22.617  -1.293  55.130  1.00  0.00    -0.048 Br
HETATM   15  C9  UNL     1      23.246   0.422  52.939  1.00  0.00     0.090 A 
BRANCH  15  16
HETATM   16  O1  UNL     1      21.891   0.584  52.908  1.00  0.00    -0.359 OA
HETATM   17  H11 UNL     1      21.273  -0.004  52.361  1.00  0.00     0.217 HD
ENDBRANCH  15  16
ENDBRANCH   8   9
ENDBRANCH   1   8
BRANCH   4  18
HETATM   18  C11 UNL     1      27.108   4.443  48.903  1.00  0.00     0.015 C 
HETATM   19  C12 UNL     1      27.941   5.223  48.518  1.00  0.00    -0.074 C 
BRANCH  19  20
HETATM   20  C13 UNL     1      28.932   6.178  48.065  1.00  0.00     0.121 C 
HETATM   21  C14 UNL     1      30.180   5.903  48.413  1.00  0.00     0.432 C 
HETATM   22  F1  UNL     1      31.320   6.605  48.139  1.00  0.00    -0.454 F 
ENDBRANCH  19  20
ENDBRANCH   4  18
TORSDOF 6
ENDMDL
MODEL 8
REMARK VINA RESULT:      -5.9      3.494      6.086
REMARK  6 active torsions:
REMARK  status: ('A' for Active; 'I' for Inactive)
REMARK    1  A    between atoms: C2_2  and  N1_3 
REMARK    2  A    between atoms: N1_3  and  C3_4 
REMARK       I    between atoms: N1_3  and  C10_13 
REMARK    3  A    between atoms: C3_4  and  C4_5 
REMARK    4  A    between atoms: C9_11  and  O1_12 
REMARK       I    between atoms: C10_13  and  N2_15 
REMARK    5  A    between atoms: N2_15  and  C11_16 
REMARK    6  A    between atoms: C12_17  and  C13_18 
ROOT
HETATM    1  N1  UNL     1      23.448   1.470  51.795  1.00  0.00    -0.330 N 
HETATM    2  C10 UNL     1      24.752   1.160  52.289  1.00  0.00     0.330 C 
HETATM    3  O2  UNL     1      24.577   0.526  53.371  1.00  0.00    -0.246 OA
HETATM    4  N2  UNL     1      26.047   1.413  51.828  1.00  0.00    -0.267 N 
HETATM    5  H12 UNL     1      26.042   1.931  50.936  1.00  0.00     0.181 HD
ENDROOT
BRANCH   1   6
HETATM    6  C2  UNL     1      22.408   0.947  52.666  1.00  0.00     0.123 C 
HETATM    7  C1  UNL     1      21.357   0.191  51.879  1.00  0.00     0.026 C 
ENDBRANCH   1   6
BRANCH   1   8
HETATM    8  C3  UNL     1      22.901   2.188  50.660  1.00  0.00     0.169 C 
BRANCH   8   9
HETATM    9  C4  UNL     1      23.363   3.585  50.550  1.00  0.00    -0.006 A 
HETATM   10  C5  UNL     1      22.513   4.507  51.170  1.00  0.00     0.012 A 
HETATM   11  C6  UNL     1      22.827   5.868  51.151  1.00  0.00     0.002 A 
HETATM   12  C7  UNL     1      23.968   6.323  50.527  1.00  0.00     0.022 A 
HETATM   13  C8  UNL     1      24.839   5.424  49.897  1.00  0.00     0.044 A 
HETATM   14 BR1  UNL     1      26.445   5.938  49.003  1.00  0.00    -0.048 Br
HETATM   15  C9  UNL     1      24.481   4.097  49.947  1.00  0.00     0.090 A 
BRANCH  15  16
HETATM   16  O1  UNL     1      25.302   3.188  49.345  1.00  0.00    -0.359 OA
HETATM   17  H11 UNL     1      25.477   3.172  48.348  1.00  0.00     0.217 HD
ENDBRANCH  15  16
ENDBRANCH   8   9
ENDBRANCH   1   8
BRANCH   4  18
HETATM   18  C11 UNL     1      27.145   0.965  52.566  1.00  0.00     0.015 C 
HETATM   19  C12 UNL     1      28.091   0.593  53.213  1.00  0.00    -0.074 C 
BRANCH  19  20
HETATM   20  C13 UNL     1      29.233   0.166  53.995  1.00  0.00     0.121 C 
HETATM   21  C14 UNL     1      29.771  -0.986  53.624  1.00  0.00     0.432 C 
HETATM   22  F1  UNL     1      30.844  -1.643  54.159  1.00  0.00    -0.454 F 
ENDBRANCH  19  20
ENDBRANCH   4  18
TORSDOF 6
ENDMDL
MODEL 9
REMARK VINA RESULT:      -5.8      2.730      4.438
REMARK  6 active torsions:
REMARK  status: ('A' for Active; 'I' for Inactive)
REMARK    1  A    between atoms: C2_2  and  N1_3 
REMARK    2  A    between atoms: N1_3  and  C3_4 
REMARK       I    between atoms: N1_3  and  C10_13 
REMARK    3  A    between atoms: C3_4  and  C4_5 
REMARK    4  A    between atoms: C9_11  and  O1_12 
REMARK       I    between atoms: C10_13  and  N2_15 
REMARK    5  A    between atoms: N2_15  and  C11_16 
REMARK    6  A    between atoms: C12_17  and  C13_18 
ROOT
HETATM    1  N1  UNL     1      25.222   1.654  52.176  1.00  0.00    -0.330 N 
HETATM    2  C10 UNL     1      25.751   2.627  51.274  1.00  0.00     0.330 C 
HETATM    3  O2  UNL     1      26.861   2.169  50.874  1.00  0.00    -0.246 OA
HETATM    4  N2  UNL     1      25.296   3.865  50.811  1.00  0.00    -0.267 N 
HETATM    5  H12 UNL     1      24.379   4.112  51.212  1.00  0.00     0.181 HD
ENDROOT
BRANCH   1   6
HETATM    6  C2  UNL     1      26.103   0.504  52.299  1.00  0.00     0.123 C 
HETATM    7  C1  UNL     1      26.350   0.148  53.750  1.00  0.00     0.026 C 
ENDBRANCH   1   6
BRANCH   1   8
HETATM    8  C3  UNL     1      24.043   1.531  53.011  1.00  0.00     0.169 C 
BRANCH   8   9
HETATM    9  C4  UNL     1      22.769   1.602  52.269  1.00  0.00    -0.006 A 
HETATM   10  C5  UNL     1      22.249   0.349  51.927  1.00  0.00     0.012 A 
HETATM   11  C6  UNL     1      21.044   0.262  51.225  1.00  0.00     0.002 A 
HETATM   12  C7  UNL     1      20.352   1.396  50.862  1.00  0.00     0.022 A 
HETATM   13  C8  UNL     1      20.847   2.665  51.191  1.00  0.00     0.044 A 
HETATM   14 BR1  UNL     1      19.977   4.303  50.740  1.00  0.00    -0.048 Br
HETATM   15  C9  UNL     1      22.036   2.692  51.881  1.00  0.00     0.090 A 
BRANCH  15  16
HETATM   16  O1  UNL     1      22.554   3.909  52.220  1.00  0.00    -0.359 OA
HETATM   17  H11 UNL     1      22.644   4.226  53.178  1.00  0.00     0.217 HD
ENDBRANCH  15  16
ENDBRANCH   8   9
ENDBRANCH   1   8
BRANCH   4  18
HETATM   18  C11 UNL     1      26.073   4.595  49.907  1.00  0.00     0.015 C 
HETATM   19  C12 UNL     1      26.747   5.236  49.141  1.00  0.00    -0.074 C 
BRANCH  19  20
HETATM   20  C13 UNL     1      27.550   6.024  48.230  1.00  0.00     0.121 C 
HETATM   21  C14 UNL     1      28.835   5.706  48.191  1.00  0.00     0.432 C 
HETATM   22  F1  UNL     1      29.834   6.261  47.440  1.00  0.00    -0.454 F 
ENDBRANCH  19  20
ENDBRANCH   4  18
TORSDOF 6
ENDMDL
