MODEL 1
REMARK VINA RESULT:      -8.3      0.000      0.000
REMARK  6 active torsions:
REMARK  status: ('A' for Active; 'I' for Inactive)
REMARK    1  A    between atoms: O1_2  and  C2_3 
REMARK    2  A    between atoms: C7_8  and  C8_9 
REMARK    3  A    between atoms: C8_9  and  N1_10 
REMARK    4  A    between atoms: N1_10  and  C9_11 
REMARK    5  A    between atoms: C9_11  and  C10_12 
REMARK    6  A    between atoms: N2_18  and  C15_19 
ROOT
HETATM    1  C10 UNL     1      22.703   3.313  52.039  1.00  0.00    -0.048 A 
HETATM    2  C11 UNL     1      23.839   3.358  52.715  1.00  0.00     0.019 A 
HETATM    3  C12 UNL     1      24.409   2.139  53.269  1.00  0.00    -0.006 A 
HETATM    4  C13 UNL     1      25.530   2.455  53.892  1.00  0.00     0.157 C 
HETATM    5  O2  UNL     1      26.369   1.568  54.553  1.00  0.00    -0.290 OA
HETATM    6  C14 UNL     1      26.559   0.190  54.331  1.00  0.00     0.242 C 
HETATM    7  N2  UNL     1      27.596  -0.551  54.291  1.00  0.00    -0.236 NA
HETATM    8  N3  UNL     1      25.385  -0.603  54.095  1.00  0.00    -0.350 N 
HETATM    9  C16 UNL     1      24.068  -0.471  53.516  1.00  0.00     0.162 C 
HETATM   10  C17 UNL     1      23.717   0.872  53.073  1.00  0.00    -0.032 A 
HETATM   11  C18 UNL     1      22.584   0.856  52.393  1.00  0.00    -0.013 A 
HETATM   12  C19 UNL     1      21.956   2.052  51.807  1.00  0.00     0.063 A 
HETATM   13  H17 UNL     1      25.398  -1.617  54.409  1.00  0.00     0.163 HD
ENDROOT
BRANCH   1  14
HETATM   14  C9  UNL     1      21.896   4.372  51.368  1.00  0.00     0.304 C 
BRANCH  14  15
HETATM   15  N1  UNL     1      22.743   5.297  50.626  1.00  0.00     0.091 N 
HETATM   16  H10 UNL     1      22.080   6.085  50.355  1.00  0.00     0.316 HD
BRANCH  15  17
HETATM   17  C8  UNL     1      23.155   4.719  49.365  1.00  0.00     0.311 C 
BRANCH  17  18
HETATM   18  C7  UNL     1      24.624   4.607  49.241  1.00  0.00     0.003 A 
HETATM   19  C2  UNL     1      25.214   5.804  48.812  1.00  0.00     0.076 A 
HETATM   20  C3  UNL     1      26.601   5.861  48.643  1.00  0.00     0.037 A 
HETATM   21  C4  UNL     1      27.413   4.761  48.887  1.00  0.00     0.003 A 
HETATM   22  C5  UNL     1      26.807   3.589  49.310  1.00  0.00     0.001 A 
HETATM   23  C6  UNL     1      25.440   3.522  49.480  1.00  0.00     0.012 A 
BRANCH  19  24
HETATM   24  O1  UNL     1      24.501   6.961  48.539  1.00  0.00    -0.355 OA
HETATM   25  C1  UNL     1      24.680   7.701  47.361  1.00  0.00     0.210 C 
ENDBRANCH  19  24
ENDBRANCH  17  18
ENDBRANCH  15  17
ENDBRANCH  14  15
ENDBRANCH   1  14
BRANCH   7  26
HETATM   26  C15 UNL     1      28.914   0.013  54.501  1.00  0.00     0.267 C 
HETATM   27 CL1  UNL     1      30.121  -0.864  53.516  1.00  0.00    -0.107 Cl
ENDBRANCH   7  26
TORSDOF 6
ENDMDL
MODEL 2
REMARK VINA RESULT:      -8.0      1.202      1.407
REMARK  6 active torsions:
REMARK  status: ('A' for Active; 'I' for Inactive)
REMARK    1  A    between atoms: O1_2  and  C2_3 
REMARK    2  A    between atoms: C7_8  and  C8_9 
REMARK    3  A    between atoms: C8_9  and  N1_10 
REMARK    4  A    between atoms: N1_10  and  C9_11 
REMARK    5  A    between atoms: C9_11  and  C10_12 
REMARK    6  A    between atoms: N2_18  and  C15_19 
ROOT
HETATM    1  C10 UNL     1      22.436   1.529  51.673  1.00  0.00    -0.048 A 
HETATM    2  C11 UNL     1      23.576   2.006  52.143  1.00  0.00     0.019 A 
HETATM    3  C12 UNL     1      24.333   1.252  53.131  1.00  0.00    -0.006 A 
HETATM    4  C13 UNL     1      25.418   1.941  53.432  1.00  0.00     0.157 C 
HETATM    5  O2  UNL     1      26.398   1.559  54.338  1.00  0.00    -0.290 OA
HETATM    6  C14 UNL     1      26.774   0.264  54.747  1.00  0.00     0.242 C 
HETATM    7  N2  UNL     1      27.905  -0.292  54.946  1.00  0.00    -0.236 NA
HETATM    8  N3  UNL     1      25.718  -0.673  55.009  1.00  0.00    -0.350 N 
HETATM    9  C16 UNL     1      24.376  -0.969  54.564  1.00  0.00     0.162 C 
HETATM   10  C17 UNL     1      23.823  -0.030  53.597  1.00  0.00    -0.032 A 
HETATM   11  C18 UNL     1      22.680  -0.484  53.110  1.00  0.00    -0.013 A 
HETATM   12  C19 UNL     1      21.868   0.230  52.111  1.00  0.00     0.063 A 
HETATM   13  H17 UNL     1      25.887  -1.419  55.746  1.00  0.00     0.163 HD
ENDROOT
BRANCH   1  14
HETATM   14  C9  UNL     1      21.463   2.063  50.677  1.00  0.00     0.304 C 
BRANCH  14  15
HETATM   15  N1  UNL     1      21.933   3.310  50.089  1.00  0.00     0.091 N 
HETATM   16  H10 UNL     1      21.058   3.727  49.648  1.00  0.00     0.316 HD
BRANCH  15  17
HETATM   17  C8  UNL     1      22.815   3.052  48.972  1.00  0.00     0.311 C 
BRANCH  17  18
HETATM   18  C7  UNL     1      24.079   3.816  49.053  1.00  0.00     0.003 A 
HETATM   19  C2  UNL     1      23.918   5.153  48.667  1.00  0.00     0.076 A 
HETATM   20  C3  UNL     1      25.024   6.009  48.688  1.00  0.00     0.037 A 
HETATM   21  C4  UNL     1      26.282   5.569  49.080  1.00  0.00     0.003 A 
HETATM   22  C5  UNL     1      26.416   4.242  49.457  1.00  0.00     0.001 A 
HETATM   23  C6  UNL     1      25.332   3.390  49.441  1.00  0.00     0.012 A 
BRANCH  19  24
HETATM   24  O1  UNL     1      22.711   5.699  48.258  1.00  0.00    -0.355 OA
HETATM   25  C1  UNL     1      22.627   6.903  47.544  1.00  0.00     0.210 C 
ENDBRANCH  19  24
ENDBRANCH  17  18
ENDBRANCH  15  17
ENDBRANCH  14  15
ENDBRANCH   1  14
BRANCH   7  26
HETATM   26  C15 UNL     1      29.135   0.447  54.750  1.00  0.00     0.267 C 
HETATM   27 CL1  UNL     1      30.138  -0.350  53.504  1.00  0.00    -0.107 Cl
ENDBRANCH   7  26
TORSDOF 6
ENDMDL
MODEL 3
REMARK VINA RESULT:      -7.8      0.838      1.867
REMARK  6 active torsions:
REMARK  status: ('A' for Active; 'I' for Inactive)
REMARK    1  A    between atoms: O1_2  and  C2_3 
REMARK    2  A    between atoms: C7_8  and  C8_9 
REMARK    3  A    between atoms: C8_9  and  N1_10 
REMARK    4  A    between atoms: N1_10  and  C9_11 
REMARK    5  A    between atoms: C9_11  and  C10_12 
REMARK    6  A    between atoms: N2_18  and  C15_19 
ROOT
HETATM    1  C10 UNL     1      22.806   3.218  51.871  1.00  0.00    -0.048 A 
HETATM    2  C11 UNL     1      23.941   3.285  52.547  1.00  0.00     0.019 A 
HETATM    3  C12 UNL     1      24.482   2.096  53.188  1.00  0.00    -0.006 A 
HETATM    4  C13 UNL     1      25.608   2.430  53.791  1.00  0.00     0.157 C 
HETATM    5  O2  UNL     1      26.426   1.574  54.516  1.00  0.00    -0.290 OA
HETATM    6  C14 UNL     1      26.584   0.178  54.393  1.00  0.00     0.242 C 
HETATM    7  N2  UNL     1      27.605  -0.586  54.409  1.00  0.00    -0.236 NA
HETATM    8  N3  UNL     1      25.393  -0.602  54.209  1.00  0.00    -0.350 N 
HETATM    9  C16 UNL     1      24.081  -0.481  53.618  1.00  0.00     0.162 C 
HETATM   10  C17 UNL     1      23.762   0.835  53.080  1.00  0.00    -0.032 A 
HETATM   11  C18 UNL     1      22.630   0.796  52.397  1.00  0.00    -0.013 A 
HETATM   12  C19 UNL     1      22.031   1.961  51.726  1.00  0.00     0.063 A 
HETATM   13  H17 UNL     1      25.383  -1.591  54.595  1.00  0.00     0.163 HD
ENDROOT
BRANCH   1  14
HETATM   14  C9  UNL     1      22.025   4.246  51.124  1.00  0.00     0.304 C 
BRANCH  14  15
HETATM   15  N1  UNL     1      22.893   5.279  50.574  1.00  0.00     0.091 N 
HETATM   16  H10 UNL     1      22.269   6.141  50.540  1.00  0.00     0.316 HD
BRANCH  15  17
HETATM   17  C8  UNL     1      23.207   5.002  49.189  1.00  0.00     0.311 C 
BRANCH  17  18
HETATM   18  C7  UNL     1      24.310   5.843  48.675  1.00  0.00     0.003 A 
HETATM   19  C2  UNL     1      25.563   5.415  49.132  1.00  0.00     0.076 A 
HETATM   20  C3  UNL     1      26.710   6.109  48.734  1.00  0.00     0.037 A 
HETATM   21  C4  UNL     1      26.642   7.215  47.897  1.00  0.00     0.003 A 
HETATM   22  C5  UNL     1      25.391   7.620  47.458  1.00  0.00     0.001 A 
HETATM   23  C6  UNL     1      24.254   6.942  47.844  1.00  0.00     0.012 A 
BRANCH  19  24
HETATM   24  O1  UNL     1      25.749   4.325  49.969  1.00  0.00    -0.355 OA
HETATM   25  C1  UNL     1      26.558   3.234  49.624  1.00  0.00     0.210 C 
ENDBRANCH  19  24
ENDBRANCH  17  18
ENDBRANCH  15  17
ENDBRANCH  14  15
ENDBRANCH   1  14
BRANCH   7  26
HETATM   26  C15 UNL     1      28.934  -0.039  54.584  1.00  0.00     0.267 C 
HETATM   27 CL1  UNL     1      30.124  -1.014  53.673  1.00  0.00    -0.107 Cl
ENDBRANCH   7  26
TORSDOF 6
ENDMDL
MODEL 4
REMARK VINA RESULT:      -7.8      2.791      3.751
REMARK  6 active torsions:
REMARK  status: ('A' for Active; 'I' for Inactive)
REMARK    1  A    between atoms: O1_2  and  C2_3 
REMARK    2  A    between atoms: C7_8  and  C8_9 
REMARK    3  A    between atoms: C8_9  and  N1_10 
REMARK    4  A    between atoms: N1_10  and  C9_11 
REMARK    5  A    between atoms: C9_11  and  C10_12 
REMARK    6  A    between atoms: N2_18  and  C15_19 
ROOT
HETATM    1  C10 UNL     1      21.361   0.027  52.658  1.00  0.00    -0.048 A 
HETATM    2  C11 UNL     1      22.536   0.622  52.546  1.00  0.00     0.019 A 
HETATM    3  C12 UNL     1      23.621   0.274  53.452  1.00  0.00    -0.006 A 
HETATM    4  C13 UNL     1      24.674   1.004  53.134  1.00  0.00     0.157 C 
HETATM    5  O2  UNL     1      25.910   0.966  53.765  1.00  0.00    -0.290 OA
HETATM    6  C14 UNL     1      26.515  -0.092  54.472  1.00  0.00     0.242 C 
HETATM    7  N2  UNL     1      27.702  -0.555  54.497  1.00  0.00    -0.236 NA
HETATM    8  N3  UNL     1      25.680  -0.843  55.367  1.00  0.00    -0.350 N 
HETATM    9  C16 UNL     1      24.301  -1.257  55.497  1.00  0.00     0.162 C 
HETATM   10  C17 UNL     1      23.399  -0.733  54.481  1.00  0.00    -0.032 A 
HETATM   11  C18 UNL     1      22.213  -1.312  54.569  1.00  0.00    -0.013 A 
HETATM   12  C19 UNL     1      21.077  -1.005  53.685  1.00  0.00     0.063 A 
HETATM   13  H17 UNL     1      26.130  -1.265  56.231  1.00  0.00     0.163 HD
ENDROOT
BRANCH   1  14
HETATM   14  C9  UNL     1      20.090   0.173  51.891  1.00  0.00     0.304 C 
BRANCH  14  15
HETATM   15  N1  UNL     1      19.626   1.554  51.884  1.00  0.00     0.091 N 
HETATM   16  H10 UNL     1      18.660   1.498  52.328  1.00  0.00     0.316 HD
BRANCH  15  17
HETATM   17  C8  UNL     1      19.379   2.007  50.533  1.00  0.00     0.311 C 
BRANCH  17  18
HETATM   18  C7  UNL     1      20.624   2.200  49.758  1.00  0.00     0.003 A 
HETATM   19  C2  UNL     1      21.427   3.219  50.287  1.00  0.00     0.076 A 
HETATM   20  C3  UNL     1      22.642   3.525  49.665  1.00  0.00     0.037 A 
HETATM   21  C4  UNL     1      23.075   2.847  48.533  1.00  0.00     0.003 A 
HETATM   22  C5  UNL     1      22.263   1.844  48.027  1.00  0.00     0.001 A 
HETATM   23  C6  UNL     1      21.064   1.533  48.634  1.00  0.00     0.012 A 
BRANCH  19  24
HETATM   24  O1  UNL     1      21.094   3.960  51.410  1.00  0.00    -0.355 OA
HETATM   25  C1  UNL     1      22.057   4.545  52.245  1.00  0.00     0.210 C 
ENDBRANCH  19  24
ENDBRANCH  17  18
ENDBRANCH  15  17
ENDBRANCH  14  15
ENDBRANCH   1  14
BRANCH   7  26
HETATM   26  C15 UNL     1      28.741   0.034  53.678  1.00  0.00     0.267 C 
HETATM   27 CL1  UNL     1      29.272   1.588  54.383  1.00  0.00    -0.107 Cl
ENDBRANCH   7  26
TORSDOF 6
ENDMDL
MODEL 5
REMARK VINA RESULT:      -7.6      5.173      7.598
REMARK  6 active torsions:
REMARK  status: ('A' for Active; 'I' for Inactive)
REMARK    1  A    between atoms: O1_2  and  C2_3 
REMARK    2  A    between atoms: C7_8  and  C8_9 
REMARK    3  A    between atoms: C8_9  and  N1_10 
REMARK    4  A    between atoms: N1_10  and  C9_11 
REMARK    5  A    between atoms: C9_11  and  C10_12 
REMARK    6  A    between atoms: N2_18  and  C15_19 
ROOT
HETATM    1  C10 UNL     1      23.089  -0.539  53.835  1.00  0.00    -0.048 A 
HETATM    2  C11 UNL     1      22.557   0.082  52.796  1.00  0.00     0.019 A 
HETATM    3  C12 UNL     1      21.132  -0.037  52.523  1.00  0.00    -0.006 A 
HETATM    4  C13 UNL     1      20.860   0.670  51.442  1.00  0.00     0.157 C 
HETATM    5  O2  UNL     1      19.609   0.809  50.856  1.00  0.00    -0.290 OA
HETATM    6  C14 UNL     1      18.334   0.714  51.450  1.00  0.00     0.242 C 
HETATM    7  N2  UNL     1      17.266   1.400  51.332  1.00  0.00    -0.236 NA
HETATM    8  N3  UNL     1      18.127  -0.352  52.389  1.00  0.00    -0.350 N 
HETATM    9  C16 UNL     1      18.872  -1.127  53.354  1.00  0.00     0.162 C 
HETATM   10  C17 UNL     1      20.301  -0.847  53.403  1.00  0.00    -0.032 A 
HETATM   11  C18 UNL     1      20.859  -1.458  54.435  1.00  0.00    -0.013 A 
HETATM   12  C19 UNL     1      22.291  -1.377  54.765  1.00  0.00     0.063 A 
HETATM   13  H17 UNL     1      17.150  -0.762  52.468  1.00  0.00     0.163 HD
ENDROOT
BRANCH   1  14
HETATM   14  C9  UNL     1      24.485  -0.601  54.356  1.00  0.00     0.304 C 
BRANCH  14  15
HETATM   15  N1  UNL     1      25.291   0.502  53.851  1.00  0.00     0.091 N 
HETATM   16  H10 UNL     1      24.569   1.207  53.510  1.00  0.00     0.316 HD
BRANCH  15  17
HETATM   17  C8  UNL     1      26.008   0.111  52.656  1.00  0.00     0.311 C 
BRANCH  17  18
HETATM   18  C7  UNL     1      27.257  -0.623  52.954  1.00  0.00     0.003 A 
HETATM   19  C2  UNL     1      28.176   0.159  53.666  1.00  0.00     0.076 A 
HETATM   20  C3  UNL     1      29.411  -0.392  54.024  1.00  0.00     0.037 A 
HETATM   21  C4  UNL     1      29.754  -1.696  53.691  1.00  0.00     0.003 A 
HETATM   22  C5  UNL     1      28.828  -2.450  52.987  1.00  0.00     0.001 A 
HETATM   23  C6  UNL     1      27.607  -1.916  52.630  1.00  0.00     0.012 A 
BRANCH  19  24
HETATM   24  O1  UNL     1      27.941   1.471  54.049  1.00  0.00    -0.355 OA
HETATM   25  C1  UNL     1      28.720   2.544  53.595  1.00  0.00     0.210 C 
ENDBRANCH  19  24
ENDBRANCH  17  18
ENDBRANCH  15  17
ENDBRANCH  14  15
ENDBRANCH   1  14
BRANCH   7  26
HETATM   26  C15 UNL     1      17.215   2.539  50.438  1.00  0.00     0.267 C 
HETATM   27 CL1  UNL     1      17.495   4.050  51.351  1.00  0.00    -0.107 Cl
ENDBRANCH   7  26
TORSDOF 6
ENDMDL
MODEL 6
REMARK VINA RESULT:      -7.5      1.632      2.604
REMARK  6 active torsions:
REMARK  status: ('A' for Active; 'I' for Inactive)
REMARK    1  A    between atoms: O1_2  and  C2_3 
REMARK    2  A    between atoms: C7_8  and  C8_9 
REMARK    3  A    between atoms: C8_9  and  N1_10 
REMARK    4  A    between atoms: N1_10  and  C9_11 
REMARK    5  A    between atoms: C9_11  and  C10_12 
REMARK    6  A    between atoms: N2_18  and  C15_19 
ROOT
HETATM    1  C10 UNL     1      22.579   1.411  51.155  1.00  0.00    -0.048 A 
HETATM    2  C11 UNL     1      23.749   1.831  51.604  1.00  0.00     0.019 A 
HETATM    3  C12 UNL     1      24.386   1.159  52.727  1.00  0.00    -0.006 A 
HETATM    4  C13 UNL     1      25.531   1.768  52.976  1.00  0.00     0.157 C 
HETATM    5  O2  UNL     1      26.433   1.425  53.974  1.00  0.00    -0.290 OA
HETATM    6  C14 UNL     1      26.651   0.174  54.584  1.00  0.00     0.242 C 
HETATM    7  N2  UNL     1      27.706  -0.460  54.917  1.00  0.00    -0.236 NA
HETATM    8  N3  UNL     1      25.490  -0.597  54.930  1.00  0.00    -0.350 N 
HETATM    9  C16 UNL     1      24.138  -0.815  54.468  1.00  0.00     0.162 C 
HETATM   10  C17 UNL     1      23.723   0.022  53.350  1.00  0.00    -0.032 A 
HETATM   11  C18 UNL     1      22.553  -0.378  52.880  1.00  0.00    -0.013 A 
HETATM   12  C19 UNL     1      21.858   0.258  51.749  1.00  0.00     0.063 A 
HETATM   13  H17 UNL     1      25.551  -1.238  55.774  1.00  0.00     0.163 HD
ENDROOT
BRANCH   1  14
HETATM   14  C9  UNL     1      21.703   1.888  50.046  1.00  0.00     0.304 C 
BRANCH  14  15
HETATM   15  N1  UNL     1      22.488   2.321  48.897  1.00  0.00     0.091 N 
HETATM   16  H10 UNL     1      23.457   2.493  49.303  1.00  0.00     0.316 HD
BRANCH  15  17
HETATM   17  C8  UNL     1      22.051   3.621  48.437  1.00  0.00     0.311 C 
BRANCH  17  18
HETATM   18  C7  UNL     1      22.367   4.702  49.394  1.00  0.00     0.003 A 
HETATM   19  C2  UNL     1      23.746   4.841  49.604  1.00  0.00     0.076 A 
HETATM   20  C3  UNL     1      24.209   5.822  50.486  1.00  0.00     0.037 A 
HETATM   21  C4  UNL     1      23.339   6.665  51.165  1.00  0.00     0.003 A 
HETATM   22  C5  UNL     1      21.980   6.509  50.942  1.00  0.00     0.001 A 
HETATM   23  C6  UNL     1      21.512   5.545  50.073  1.00  0.00     0.012 A 
BRANCH  19  24
HETATM   24  O1  UNL     1      24.704   4.055  48.982  1.00  0.00    -0.355 OA
HETATM   25  C1  UNL     1      25.997   3.887  49.497  1.00  0.00     0.210 C 
ENDBRANCH  19  24
ENDBRANCH  17  18
ENDBRANCH  15  17
ENDBRANCH  14  15
ENDBRANCH   1  14
BRANCH   7  26
HETATM   26  C15 UNL     1      29.016   0.108  54.674  1.00  0.00     0.267 C 
HETATM   27 CL1  UNL     1      30.008  -1.024  53.710  1.00  0.00    -0.107 Cl
ENDBRANCH   7  26
TORSDOF 6
ENDMDL
MODEL 7
REMARK VINA RESULT:      -7.4      3.796      7.991
REMARK  6 active torsions:
REMARK  status: ('A' for Active; 'I' for Inactive)
REMARK    1  A    between atoms: O1_2  and  C2_3 
REMARK    2  A    between atoms: C7_8  and  C8_9 
REMARK    3  A    between atoms: C8_9  and  N1_10 
REMARK    4  A    between atoms: N1_10  and  C9_11 
REMARK    5  A    between atoms: C9_11  and  C10_12 
REMARK    6  A    between atoms: N2_18  and  C15_19 
ROOT
HETATM    1  C10 UNL     1      25.994   4.384  49.282  1.00  0.00    -0.048 A 
HETATM    2  C11 UNL     1      27.269   4.548  48.975  1.00  0.00     0.019 A 
HETATM    3  C12 UNL     1      27.721   5.791  48.369  1.00  0.00    -0.006 A 
HETATM    4  C13 UNL     1      29.023   5.700  48.163  1.00  0.00     0.157 C 
HETATM    5  O2  UNL     1      29.827   6.681  47.600  1.00  0.00    -0.290 OA
HETATM    6  C14 UNL     1      29.645   8.078  47.582  1.00  0.00     0.242 C 
HETATM    7  N2  UNL     1      30.437   9.061  47.761  1.00  0.00    -0.236 NA
HETATM    8  N3  UNL     1      28.320   8.563  47.314  1.00  0.00    -0.350 N 
HETATM    9  C16 UNL     1      26.944   8.169  47.513  1.00  0.00     0.162 C 
HETATM   10  C17 UNL     1      26.757   6.849  48.102  1.00  0.00    -0.032 A 
HETATM   11  C18 UNL     1      25.487   6.658  48.419  1.00  0.00    -0.013 A 
HETATM   12  C19 UNL     1      24.967   5.426  49.034  1.00  0.00     0.063 A 
HETATM   13  H17 UNL     1      28.223   9.496  46.817  1.00  0.00     0.163 HD
ENDROOT
BRANCH   1  14
HETATM   14  C9  UNL     1      25.252   3.246  49.899  1.00  0.00     0.304 C 
BRANCH  14  15
HETATM   15  N1  UNL     1      25.934   2.748  51.086  1.00  0.00     0.091 N 
HETATM   16  H10 UNL     1      26.035   1.704  50.900  1.00  0.00     0.316 HD
BRANCH  15  17
HETATM   17  C8  UNL     1      25.071   2.828  52.246  1.00  0.00     0.311 C 
BRANCH  17  18
HETATM   18  C7  UNL     1      25.061   1.579  53.037  1.00  0.00     0.003 A 
HETATM   19  C2  UNL     1      26.171   1.477  53.886  1.00  0.00     0.076 A 
HETATM   20  C3  UNL     1      26.308   0.350  54.702  1.00  0.00     0.037 A 
HETATM   21  C4  UNL     1      25.372  -0.677  54.694  1.00  0.00     0.003 A 
HETATM   22  C5  UNL     1      24.283  -0.554  53.845  1.00  0.00     0.001 A 
HETATM   23  C6  UNL     1      24.138   0.554  53.037  1.00  0.00     0.012 A 
BRANCH  19  24
HETATM   24  O1  UNL     1      27.165   2.440  53.975  1.00  0.00    -0.355 OA
HETATM   25  C1  UNL     1      28.496   2.191  53.610  1.00  0.00     0.210 C 
ENDBRANCH  19  24
ENDBRANCH  17  18
ENDBRANCH  15  17
ENDBRANCH  14  15
ENDBRANCH   1  14
BRANCH   7  26
HETATM   26  C15 UNL     1      31.839   8.837  48.048  1.00  0.00     0.267 C 
HETATM   27 CL1  UNL     1      32.022   8.080  49.658  1.00  0.00    -0.107 Cl
ENDBRANCH   7  26
TORSDOF 6
ENDMDL
MODEL 8
REMARK VINA RESULT:      -7.3      3.488      7.636
REMARK  6 active torsions:
REMARK  status: ('A' for Active; 'I' for Inactive)
REMARK    1  A    between atoms: O1_2  and  C2_3 
REMARK    2  A    between atoms: C7_8  and  C8_9 
REMARK    3  A    between atoms: C8_9  and  N1_10 
REMARK    4  A    between atoms: N1_10  and  C9_11 
REMARK    5  A    between atoms: C9_11  and  C10_12 
REMARK    6  A    between atoms: N2_18  and  C15_19 
ROOT
HETATM    1  C10 UNL     1      25.196   2.924  50.774  1.00  0.00    -0.048 A 
HETATM    2  C11 UNL     1      26.311   3.314  50.181  1.00  0.00     0.019 A 
HETATM    3  C12 UNL     1      26.326   4.527  49.377  1.00  0.00    -0.006 A 
HETATM    4  C13 UNL     1      27.547   4.690  48.900  1.00  0.00     0.157 C 
HETATM    5  O2  UNL     1      27.968   5.732  48.086  1.00  0.00    -0.290 OA
HETATM    6  C14 UNL     1      27.455   7.041  47.979  1.00  0.00     0.242 C 
HETATM    7  N2  UNL     1      28.007   8.186  47.887  1.00  0.00    -0.236 NA
HETATM    8  N3  UNL     1      26.027   7.185  47.964  1.00  0.00    -0.350 N 
HETATM    9  C16 UNL     1      24.851   6.536  48.496  1.00  0.00     0.162 C 
HETATM   10  C17 UNL     1      25.103   5.304  49.232  1.00  0.00    -0.032 A 
HETATM   11  C18 UNL     1      24.002   4.890  49.836  1.00  0.00    -0.013 A 
HETATM   12  C19 UNL     1      23.922   3.674  50.662  1.00  0.00     0.063 A 
HETATM   13  H17 UNL     1      25.615   7.996  47.416  1.00  0.00     0.163 HD
ENDROOT
BRANCH   1  14
HETATM   14  C9  UNL     1      24.883   1.752  51.642  1.00  0.00     0.304 C 
BRANCH  14  15
HETATM   15  N1  UNL     1      25.961   0.772  51.624  1.00  0.00     0.091 N 
HETATM   16  H10 UNL     1      25.680   0.101  50.846  1.00  0.00     0.316 HD
BRANCH  15  17
HETATM   17  C8  UNL     1      25.942  -0.036  52.824  1.00  0.00     0.311 C 
BRANCH  17  18
HETATM   18  C7  UNL     1      27.227  -0.724  53.071  1.00  0.00     0.003 A 
HETATM   19  C2  UNL     1      28.158   0.101  53.715  1.00  0.00     0.076 A 
HETATM   20  C3  UNL     1      29.426  -0.403  54.018  1.00  0.00     0.037 A 
HETATM   21  C4  UNL     1      29.792  -1.704  53.696  1.00  0.00     0.003 A 
HETATM   22  C5  UNL     1      28.854  -2.502  53.058  1.00  0.00     0.001 A 
HETATM   23  C6  UNL     1      27.600  -2.014  52.756  1.00  0.00     0.012 A 
BRANCH  19  24
HETATM   24  O1  UNL     1      27.902   1.414  54.083  1.00  0.00    -0.355 OA
HETATM   25  C1  UNL     1      28.607   2.502  53.549  1.00  0.00     0.210 C 
ENDBRANCH  19  24
ENDBRANCH  17  18
ENDBRANCH  15  17
ENDBRANCH  14  15
ENDBRANCH   1  14
BRANCH   7  26
HETATM   26  C15 UNL     1      29.451   8.312  47.879  1.00  0.00     0.267 C 
HETATM   27 CL1  UNL     1      29.918  10.030  48.037  1.00  0.00    -0.107 Cl
ENDBRANCH   7  26
TORSDOF 6
ENDMDL
MODEL 9
REMARK VINA RESULT:      -7.2      3.261      7.286
REMARK  6 active torsions:
REMARK  status: ('A' for Active; 'I' for Inactive)
REMARK    1  A    between atoms: O1_2  and  C2_3 
REMARK    2  A    between atoms: C7_8  and  C8_9 
REMARK    3  A    between atoms: C8_9  and  N1_10 
REMARK    4  A    between atoms: N1_10  and  C9_11 
REMARK    5  A    between atoms: C9_11  and  C10_12 
REMARK    6  A    between atoms: N2_18  and  C15_19 
ROOT
HETATM    1  C10 UNL     1      24.976   3.632  50.296  1.00  0.00    -0.048 A 
HETATM    2  C11 UNL     1      26.093   3.712  49.593  1.00  0.00     0.019 A 
HETATM    3  C12 UNL     1      26.664   5.012  49.273  1.00  0.00    -0.006 A 
HETATM    4  C13 UNL     1      27.765   4.817  48.570  1.00  0.00     0.157 C 
HETATM    5  O2  UNL     1      28.598   5.809  48.073  1.00  0.00    -0.290 OA
HETATM    6  C14 UNL     1      28.811   7.116  48.557  1.00  0.00     0.242 C 
HETATM    7  N2  UNL     1      29.859   7.826  48.712  1.00  0.00    -0.236 NA
HETATM    8  N3  UNL     1      27.654   7.855  48.976  1.00  0.00    -0.350 N 
HETATM    9  C16 UNL     1      26.350   7.622  49.553  1.00  0.00     0.162 C 
HETATM   10  C17 UNL     1      25.995   6.220  49.733  1.00  0.00    -0.032 A 
HETATM   11  C18 UNL     1      24.879   6.111  50.435  1.00  0.00    -0.013 A 
HETATM   12  C19 UNL     1      24.251   4.828  50.791  1.00  0.00     0.063 A 
HETATM   13  H17 UNL     1      27.672   8.911  48.866  1.00  0.00     0.163 HD
ENDROOT
BRANCH   1  14
HETATM   14  C9  UNL     1      24.173   2.467  50.767  1.00  0.00     0.304 C 
BRANCH  14  15
HETATM   15  N1  UNL     1      24.428   2.178  52.172  1.00  0.00     0.091 N 
HETATM   16  H10 UNL     1      25.119   2.934  52.464  1.00  0.00     0.316 HD
BRANCH  15  17
HETATM   17  C8  UNL     1      25.161   0.939  52.318  1.00  0.00     0.311 C 
BRANCH  17  18
HETATM   18  C7  UNL     1      26.477   1.127  52.967  1.00  0.00     0.003 A 
HETATM   19  C2  UNL     1      26.761   0.116  53.894  1.00  0.00     0.076 A 
HETATM   20  C3  UNL     1      27.971   0.151  54.596  1.00  0.00     0.037 A 
HETATM   21  C4  UNL     1      28.901   1.164  54.399  1.00  0.00     0.003 A 
HETATM   22  C5  UNL     1      28.597   2.153  53.477  1.00  0.00     0.001 A 
HETATM   23  C6  UNL     1      27.407   2.127  52.780  1.00  0.00     0.012 A 
BRANCH  19  24
HETATM   24  O1  UNL     1      25.908  -0.941  54.170  1.00  0.00    -0.355 OA
HETATM   25  C1  UNL     1      25.089  -0.977  55.308  1.00  0.00     0.210 C 
ENDBRANCH  19  24
ENDBRANCH  17  18
ENDBRANCH  15  17
ENDBRANCH  14  15
ENDBRANCH   1  14
BRANCH   7  26
HETATM   26  C15 UNL     1      31.163   7.305  48.360  1.00  0.00     0.267 C 
HETATM   27 CL1  UNL     1      31.682   6.085  49.559  1.00  0.00    -0.107 Cl
ENDBRANCH   7  26
TORSDOF 6
ENDMDL
