MODEL 1
REMARK VINA RESULT:     -10.1      0.000      0.000
REMARK  4 active torsions:
REMARK  status: ('A' for Active; 'I' for Inactive)
REMARK    1  A    between atoms: C2_2  and  O1_3 
REMARK    2  A    between atoms: C4_5  and  C5_6 
REMARK    3  A    between atoms: C6_8  and  C7_9 
REMARK    4  A    between atoms: C12_14  and  C13_15 
ROOT
HETATM    1  C5  UNL     1      25.443   0.277  53.240  1.00  0.00     0.115 A 
HETATM    2  N1  UNL     1      25.264   1.262  52.349  1.00  0.00    -0.236 NA
HETATM    3  C6  UNL     1      23.936   1.561  52.260  1.00  0.00     0.076 A 
HETATM    4  C21 UNL     1      23.274   0.742  53.116  1.00  0.00     0.083 A 
HETATM    5  C22 UNL     1      21.987   0.531  53.492  1.00  0.00     0.148 A 
HETATM    6  N3  UNL     1      21.628  -0.402  54.407  1.00  0.00    -0.269 NA
HETATM    7  C23 UNL     1      22.598  -1.169  54.985  1.00  0.00     0.134 A 
HETATM    8  C24 UNL     1      23.899  -0.939  54.589  1.00  0.00     0.118 A 
HETATM    9  N4  UNL     1      24.220  -0.020  53.692  1.00  0.00    -0.305 N 
ENDROOT
BRANCH   3  10
HETATM   10  C7  UNL     1      23.357   2.596  51.386  1.00  0.00     0.088 A 
HETATM   11  C8  UNL     1      23.157   3.913  51.961  1.00  0.00     0.002 A 
HETATM   12  C9  UNL     1      23.907   4.783  51.258  1.00  0.00    -0.010 A 
HETATM   13  C10 UNL     1      24.153   6.162  51.301  1.00  0.00     0.016 A 
HETATM   14  C19 UNL     1      24.588   4.118  50.251  1.00  0.00     0.064 A 
HETATM   15  C11 UNL     1      25.002   6.776  50.407  1.00  0.00     0.033 A 
HETATM   16  C12 UNL     1      25.651   6.064  49.430  1.00  0.00     0.067 A 
HETATM   17  N2  UNL     1      25.412   4.746  49.394  1.00  0.00    -0.248 NA
HETATM   18  C20 UNL     1      24.305   2.849  50.280  1.00  0.00     0.020 A 
BRANCH  16  19
HETATM   19  C13 UNL     1      26.552   6.694  48.476  1.00  0.00    -0.007 A 
HETATM   20  C14 UNL     1      27.865   6.386  48.300  1.00  0.00     0.014 A 
HETATM   21  C15 UNL     1      28.695   7.002  47.385  1.00  0.00     0.001 A 
HETATM   22  C16 UNL     1      28.122   8.003  46.604  1.00  0.00     0.000 A 
HETATM   23  C17 UNL     1      26.799   8.385  46.710  1.00  0.00     0.001 A 
HETATM   24  C18 UNL     1      26.055   7.701  47.659  1.00  0.00     0.014 A 
ENDBRANCH  16  19
ENDBRANCH   3  10
BRANCH   1  25
HETATM   25  C4  UNL     1      26.817  -0.184  53.472  1.00  0.00     0.061 C 
HETATM   26  C3  UNL     1      27.916   0.469  52.666  1.00  0.00     0.049 C 
HETATM   27  C2  UNL     1      28.808   0.233  53.884  1.00  0.00     0.056 C 
HETATM   28  C1  UNL     1      29.417  -1.133  53.799  1.00  0.00     0.045 C 
HETATM   29  C25 UNL     1      27.522   0.229  54.716  1.00  0.00     0.049 C 
BRANCH  27  30
HETATM   30  O1  UNL     1      29.686   1.267  54.160  1.00  0.00    -0.390 OA
HETATM   31  H4  UNL     1      30.602   0.872  54.045  1.00  0.00     0.210 HD
ENDBRANCH  27  30
ENDBRANCH   1  25
TORSDOF 4
ENDMDL
MODEL 2
REMARK VINA RESULT:      -9.5      2.438      3.965
REMARK  4 active torsions:
REMARK  status: ('A' for Active; 'I' for Inactive)
REMARK    1  A    between atoms: C2_2  and  O1_3 
REMARK    2  A    between atoms: C4_5  and  C5_6 
REMARK    3  A    between atoms: C6_8  and  C7_9 
REMARK    4  A    between atoms: C12_14  and  C13_15 
ROOT
HETATM    1  C5  UNL     1      26.166   2.336  52.200  1.00  0.00     0.115 A 
HETATM    2  N1  UNL     1      26.753   2.915  51.144  1.00  0.00    -0.236 NA
HETATM    3  C6  UNL     1      25.801   3.475  50.342  1.00  0.00     0.076 A 
HETATM    4  C21 UNL     1      24.593   3.236  50.914  1.00  0.00     0.083 A 
HETATM    5  C22 UNL     1      23.293   3.508  50.636  1.00  0.00     0.148 A 
HETATM    6  N3  UNL     1      22.270   3.116  51.433  1.00  0.00    -0.269 NA
HETATM    7  C23 UNL     1      22.548   2.415  52.571  1.00  0.00     0.134 A 
HETATM    8  C24 UNL     1      23.875   2.148  52.834  1.00  0.00     0.118 A 
HETATM    9  N4  UNL     1      24.855   2.544  52.037  1.00  0.00    -0.305 N 
ENDROOT
BRANCH   3  10
HETATM   10  C7  UNL     1      26.069   4.204  49.091  1.00  0.00     0.088 A 
HETATM   11  C8  UNL     1      25.899   5.644  49.115  1.00  0.00     0.002 A 
HETATM   12  C9  UNL     1      27.093   6.200  48.830  1.00  0.00    -0.010 A 
HETATM   13  C10 UNL     1      27.588   7.505  48.700  1.00  0.00     0.016 A 
HETATM   14  C19 UNL     1      28.039   5.211  48.618  1.00  0.00     0.064 A 
HETATM   15  C11 UNL     1      28.907   7.752  48.386  1.00  0.00     0.033 A 
HETATM   16  C12 UNL     1      29.800   6.729  48.188  1.00  0.00     0.067 A 
HETATM   17  N2  UNL     1      29.320   5.484  48.314  1.00  0.00    -0.248 NA
HETATM   18  C20 UNL     1      27.498   4.036  48.756  1.00  0.00     0.020 A 
BRANCH  16  19
HETATM   19  C13 UNL     1      31.197   6.969  47.857  1.00  0.00    -0.007 A 
HETATM   20  C14 UNL     1      31.961   7.991  48.326  1.00  0.00     0.014 A 
HETATM   21  C15 UNL     1      33.287   8.191  47.993  1.00  0.00     0.001 A 
HETATM   22  C16 UNL     1      33.852   7.269  47.115  1.00  0.00     0.000 A 
HETATM   23  C17 UNL     1      33.155   6.199  46.587  1.00  0.00     0.001 A 
HETATM   24  C18 UNL     1      31.833   6.092  46.988  1.00  0.00     0.014 A 
ENDBRANCH  16  19
ENDBRANCH   3  10
BRANCH   1  25
HETATM   25  C4  UNL     1      27.036   1.675  53.180  1.00  0.00     0.061 C 
HETATM   26  C3  UNL     1      27.755   0.421  52.739  1.00  0.00     0.049 C 
HETATM   27  C2  UNL     1      28.873   0.853  53.686  1.00  0.00     0.056 C 
HETATM   28  C1  UNL     1      28.590   0.330  55.062  1.00  0.00     0.045 C 
HETATM   29  C25 UNL     1      28.354   2.283  53.506  1.00  0.00     0.049 C 
BRANCH  27  30
HETATM   30  O1  UNL     1      30.151   0.623  53.207  1.00  0.00    -0.390 OA
HETATM   31  H4  UNL     1      30.365   1.421  52.637  1.00  0.00     0.210 HD
ENDBRANCH  27  30
ENDBRANCH   1  25
TORSDOF 4
ENDMDL
MODEL 3
REMARK VINA RESULT:      -9.2      2.874      5.120
REMARK  4 active torsions:
REMARK  status: ('A' for Active; 'I' for Inactive)
REMARK    1  A    between atoms: C2_2  and  O1_3 
REMARK    2  A    between atoms: C4_5  and  C5_6 
REMARK    3  A    between atoms: C6_8  and  C7_9 
REMARK    4  A    between atoms: C12_14  and  C13_15 
ROOT
HETATM    1  C5  UNL     1      25.299   3.198  51.441  1.00  0.00     0.115 A 
HETATM    2  N1  UNL     1      26.156   3.507  50.458  1.00  0.00    -0.236 NA
HETATM    3  C6  UNL     1      25.691   4.590  49.771  1.00  0.00     0.076 A 
HETATM    4  C21 UNL     1      24.516   4.962  50.339  1.00  0.00     0.083 A 
HETATM    5  C22 UNL     1      23.578   5.922  50.142  1.00  0.00     0.148 A 
HETATM    6  N3  UNL     1      22.466   6.037  50.907  1.00  0.00    -0.269 NA
HETATM    7  C23 UNL     1      22.270   5.151  51.927  1.00  0.00     0.134 A 
HETATM    8  C24 UNL     1      23.235   4.184  52.111  1.00  0.00     0.118 A 
HETATM    9  N4  UNL     1      24.313   4.095  51.347  1.00  0.00    -0.305 N 
ENDROOT
BRANCH   3  10
HETATM   10  C7  UNL     1      26.369   5.222  48.625  1.00  0.00     0.088 A 
HETATM   11  C8  UNL     1      26.560   6.658  48.678  1.00  0.00     0.002 A 
HETATM   12  C9  UNL     1      27.886   6.894  48.648  1.00  0.00    -0.010 A 
HETATM   13  C10 UNL     1      28.705   8.031  48.670  1.00  0.00     0.016 A 
HETATM   14  C19 UNL     1      28.580   5.698  48.576  1.00  0.00     0.064 A 
HETATM   15  C11 UNL     1      30.079   7.937  48.623  1.00  0.00     0.033 A 
HETATM   16  C12 UNL     1      30.711   6.722  48.553  1.00  0.00     0.067 A 
HETATM   17  N2  UNL     1      29.922   5.638  48.533  1.00  0.00    -0.248 NA
HETATM   18  C20 UNL     1      27.749   4.697  48.559  1.00  0.00     0.020 A 
BRANCH  16  19
HETATM   19  C13 UNL     1      32.161   6.601  48.502  1.00  0.00    -0.007 A 
HETATM   20  C14 UNL     1      32.859   5.437  48.423  1.00  0.00     0.014 A 
HETATM   21  C15 UNL     1      34.237   5.355  48.376  1.00  0.00     0.001 A 
HETATM   22  C16 UNL     1      34.932   6.561  48.415  1.00  0.00     0.000 A 
HETATM   23  C17 UNL     1      34.310   7.792  48.495  1.00  0.00     0.001 A 
HETATM   24  C18 UNL     1      32.925   7.760  48.535  1.00  0.00     0.014 A 
ENDBRANCH  16  19
ENDBRANCH   3  10
BRANCH   1  25
HETATM   25  C4  UNL     1      25.633   2.050  52.293  1.00  0.00     0.061 C 
HETATM   26  C3  UNL     1      27.046   1.519  52.224  1.00  0.00     0.049 C 
HETATM   27  C2  UNL     1      26.871   1.154  53.697  1.00  0.00     0.056 C 
HETATM   28  C1  UNL     1      26.255  -0.207  53.804  1.00  0.00     0.045 C 
HETATM   29  C25 UNL     1      25.813   2.261  53.755  1.00  0.00     0.049 C 
BRANCH  27  30
HETATM   30  O1  UNL     1      27.993   1.369  54.478  1.00  0.00    -0.390 OA
HETATM   31  H4  UNL     1      28.742   1.521  53.827  1.00  0.00     0.210 HD
ENDBRANCH  27  30
ENDBRANCH   1  25
TORSDOF 4
ENDMDL
MODEL 4
REMARK VINA RESULT:      -9.1      2.543      8.509
REMARK  4 active torsions:
REMARK  status: ('A' for Active; 'I' for Inactive)
REMARK    1  A    between atoms: C2_2  and  O1_3 
REMARK    2  A    between atoms: C4_5  and  C5_6 
REMARK    3  A    between atoms: C6_8  and  C7_9 
REMARK    4  A    between atoms: C12_14  and  C13_15 
ROOT
HETATM    1  C5  UNL     1      25.851   7.395  49.355  1.00  0.00     0.115 A 
HETATM    2  N1  UNL     1      26.332   6.157  49.181  1.00  0.00    -0.236 NA
HETATM    3  C6  UNL     1      25.351   5.245  49.444  1.00  0.00     0.076 A 
HETATM    4  C21 UNL     1      24.234   5.934  49.790  1.00  0.00     0.083 A 
HETATM    5  C22 UNL     1      22.961   5.641  50.157  1.00  0.00     0.148 A 
HETATM    6  N3  UNL     1      22.041   6.590  50.456  1.00  0.00    -0.269 NA
HETATM    7  C23 UNL     1      22.400   7.905  50.386  1.00  0.00     0.134 A 
HETATM    8  C24 UNL     1      23.698   8.182  50.010  1.00  0.00     0.118 A 
HETATM    9  N4  UNL     1      24.576   7.233  49.724  1.00  0.00    -0.305 N 
ENDROOT
BRANCH   3  10
HETATM   10  C7  UNL     1      25.507   3.783  49.352  1.00  0.00     0.088 A 
HETATM   11  C8  UNL     1      26.593   3.185  50.104  1.00  0.00     0.002 A 
HETATM   12  C9  UNL     1      26.052   2.331  50.994  1.00  0.00    -0.010 A 
HETATM   13  C10 UNL     1      26.540   1.468  51.984  1.00  0.00     0.016 A 
HETATM   14  C19 UNL     1      24.672   2.330  50.873  1.00  0.00     0.064 A 
HETATM   15  C11 UNL     1      25.697   0.697  52.755  1.00  0.00     0.033 A 
HETATM   16  C12 UNL     1      24.336   0.739  52.589  1.00  0.00     0.067 A 
HETATM   17  N2  UNL     1      23.875   1.567  51.641  1.00  0.00    -0.248 NA
HETATM   18  C20 UNL     1      24.303   3.154  49.935  1.00  0.00     0.020 A 
BRANCH  16  19
HETATM   19  C13 UNL     1      23.429  -0.067  53.393  1.00  0.00    -0.007 A 
HETATM   20  C14 UNL     1      23.765  -0.771  54.506  1.00  0.00     0.014 A 
HETATM   21  C15 UNL     1      22.879  -1.527  55.249  1.00  0.00     0.001 A 
HETATM   22  C16 UNL     1      21.560  -1.552  54.802  1.00  0.00     0.000 A 
HETATM   23  C17 UNL     1      21.124  -0.870  53.683  1.00  0.00     0.001 A 
HETATM   24  C18 UNL     1      22.095  -0.142  53.013  1.00  0.00     0.014 A 
ENDBRANCH  16  19
ENDBRANCH   3  10
BRANCH   1  25
HETATM   25  C4  UNL     1      26.768   8.517  49.119  1.00  0.00     0.061 C 
HETATM   26  C3  UNL     1      27.327   9.226  50.331  1.00  0.00     0.049 C 
HETATM   27  C2  UNL     1      28.576   9.468  49.485  1.00  0.00     0.056 C 
HETATM   28  C1  UNL     1      28.407  10.731  48.697  1.00  0.00     0.045 C 
HETATM   29  C25 UNL     1      28.160   8.235  48.676  1.00  0.00     0.049 C 
BRANCH  27  30
HETATM   30  O1  UNL     1      29.769   9.346  50.177  1.00  0.00    -0.390 OA
HETATM   31  H4  UNL     1      29.970   8.363  50.184  1.00  0.00     0.210 HD
ENDBRANCH  27  30
ENDBRANCH   1  25
TORSDOF 4
ENDMDL
MODEL 5
REMARK VINA RESULT:      -9.1      2.314      3.117
REMARK  4 active torsions:
REMARK  status: ('A' for Active; 'I' for Inactive)
REMARK    1  A    between atoms: C2_2  and  O1_3 
REMARK    2  A    between atoms: C4_5  and  C5_6 
REMARK    3  A    between atoms: C6_8  and  C7_9 
REMARK    4  A    between atoms: C12_14  and  C13_15 
ROOT
HETATM    1  C5  UNL     1      26.009   2.085  51.649  1.00  0.00     0.115 A 
HETATM    2  N1  UNL     1      26.240   3.107  50.814  1.00  0.00    -0.236 NA
HETATM    3  C6  UNL     1      25.065   3.513  50.252  1.00  0.00     0.076 A 
HETATM    4  C21 UNL     1      24.080   2.723  50.750  1.00  0.00     0.083 A 
HETATM    5  C22 UNL     1      22.736   2.604  50.604  1.00  0.00     0.148 A 
HETATM    6  N3  UNL     1      22.001   1.675  51.262  1.00  0.00    -0.269 NA
HETATM    7  C23 UNL     1      22.632   0.815  52.115  1.00  0.00     0.134 A 
HETATM    8  C24 UNL     1      23.997   0.954  52.249  1.00  0.00     0.118 A 
HETATM    9  N4  UNL     1      24.690   1.871  51.592  1.00  0.00    -0.305 N 
ENDROOT
BRANCH   3  10
HETATM   10  C7  UNL     1      24.924   4.617  49.287  1.00  0.00     0.088 A 
HETATM   11  C8  UNL     1      24.178   5.783  49.719  1.00  0.00     0.002 A 
HETATM   12  C9  UNL     1      25.014   6.839  49.683  1.00  0.00    -0.010 A 
HETATM   13  C10 UNL     1      24.918   8.207  49.970  1.00  0.00     0.016 A 
HETATM   14  C19 UNL     1      26.268   6.438  49.252  1.00  0.00     0.064 A 
HETATM   15  C11 UNL     1      25.993   9.056  49.825  1.00  0.00     0.033 A 
HETATM   16  C12 UNL     1      27.213   8.601  49.393  1.00  0.00     0.067 A 
HETATM   17  N2  UNL     1      27.298   7.291  49.121  1.00  0.00    -0.248 NA
HETATM   18  C20 UNL     1      26.270   5.160  49.007  1.00  0.00     0.020 A 
BRANCH  16  19
HETATM   19  C13 UNL     1      28.362   9.481  49.234  1.00  0.00    -0.007 A 
HETATM   20  C14 UNL     1      29.666   9.103  49.292  1.00  0.00     0.014 A 
HETATM   21  C15 UNL     1      30.735   9.964  49.136  1.00  0.00     0.001 A 
HETATM   22  C16 UNL     1      30.425  11.302  48.907  1.00  0.00     0.000 A 
HETATM   23  C17 UNL     1      29.132  11.779  48.832  1.00  0.00     0.001 A 
HETATM   24  C18 UNL     1      28.135  10.831  49.001  1.00  0.00     0.014 A 
ENDBRANCH  16  19
ENDBRANCH   3  10
BRANCH   1  25
HETATM   25  C4  UNL     1      27.162   1.509  52.350  1.00  0.00     0.061 C 
HETATM   26  C3  UNL     1      27.256   1.738  53.842  1.00  0.00     0.049 C 
HETATM   27  C2  UNL     1      27.936   0.372  53.905  1.00  0.00     0.056 C 
HETATM   28  C1  UNL     1      29.408   0.538  53.683  1.00  0.00     0.045 C 
HETATM   29  C25 UNL     1      27.201   0.043  52.602  1.00  0.00     0.049 C 
BRANCH  27  30
HETATM   30  O1  UNL     1      27.575  -0.397  54.998  1.00  0.00    -0.390 OA
HETATM   31  H4  UNL     1      28.387  -0.947  55.213  1.00  0.00     0.210 HD
ENDBRANCH  27  30
ENDBRANCH   1  25
TORSDOF 4
ENDMDL
MODEL 6
REMARK VINA RESULT:      -9.1      1.489      2.127
REMARK  4 active torsions:
REMARK  status: ('A' for Active; 'I' for Inactive)
REMARK    1  A    between atoms: C2_2  and  O1_3 
REMARK    2  A    between atoms: C4_5  and  C5_6 
REMARK    3  A    between atoms: C6_8  and  C7_9 
REMARK    4  A    between atoms: C12_14  and  C13_15 
ROOT
HETATM    1  C5  UNL     1      24.053   1.356  52.122  1.00  0.00     0.115 A 
HETATM    2  N1  UNL     1      24.358   2.362  51.290  1.00  0.00    -0.236 NA
HETATM    3  C6  UNL     1      23.263   3.158  51.116  1.00  0.00     0.076 A 
HETATM    4  C21 UNL     1      22.255   2.635  51.859  1.00  0.00     0.083 A 
HETATM    5  C22 UNL     1      20.956   2.931  52.116  1.00  0.00     0.148 A 
HETATM    6  N3  UNL     1      20.176   2.182  52.933  1.00  0.00    -0.269 NA
HETATM    7  C23 UNL     1      20.712   1.078  53.531  1.00  0.00     0.134 A 
HETATM    8  C24 UNL     1      22.033   0.796  53.257  1.00  0.00     0.118 A 
HETATM    9  N4  UNL     1      22.772   1.545  52.453  1.00  0.00    -0.305 N 
ENDROOT
BRANCH   3  10
HETATM   10  C7  UNL     1      23.219   4.365  50.273  1.00  0.00     0.088 A 
HETATM   11  C8  UNL     1      23.462   5.638  50.924  1.00  0.00     0.002 A 
HETATM   12  C9  UNL     1      24.559   6.181  50.361  1.00  0.00    -0.010 A 
HETATM   13  C10 UNL     1      25.296   7.360  50.531  1.00  0.00     0.016 A 
HETATM   14  C19 UNL     1      25.051   5.342  49.375  1.00  0.00     0.064 A 
HETATM   15  C11 UNL     1      26.411   7.635  49.768  1.00  0.00     0.033 A 
HETATM   16  C12 UNL     1      26.853   6.765  48.805  1.00  0.00     0.067 A 
HETATM   17  N2  UNL     1      26.143   5.638  48.648  1.00  0.00    -0.248 NA
HETATM   18  C20 UNL     1      24.312   4.276  49.282  1.00  0.00     0.020 A 
BRANCH  16  19
HETATM   19  C13 UNL     1      28.027   7.036  47.989  1.00  0.00    -0.007 A 
HETATM   20  C14 UNL     1      29.242   6.441  48.122  1.00  0.00     0.014 A 
HETATM   21  C15 UNL     1      30.339   6.721  47.331  1.00  0.00     0.001 A 
HETATM   22  C16 UNL     1      30.159   7.681  46.338  1.00  0.00     0.000 A 
HETATM   23  C17 UNL     1      28.963   8.339  46.127  1.00  0.00     0.001 A 
HETATM   24  C18 UNL     1      27.927   7.982  46.977  1.00  0.00     0.014 A 
ENDBRANCH  16  19
ENDBRANCH   3  10
BRANCH   1  25
HETATM   25  C4  UNL     1      25.112   0.388  52.429  1.00  0.00     0.061 C 
HETATM   26  C3  UNL     1      26.485   0.651  51.853  1.00  0.00     0.049 C 
HETATM   27  C2  UNL     1      27.029  -0.023  53.111  1.00  0.00     0.056 C 
HETATM   28  C1  UNL     1      27.107  -1.503  52.890  1.00  0.00     0.045 C 
HETATM   29  C25 UNL     1      25.716   0.380  53.789  1.00  0.00     0.049 C 
BRANCH  27  30
HETATM   30  O1  UNL     1      28.167   0.568  53.631  1.00  0.00    -0.390 OA
HETATM   31  H4  UNL     1      28.004   0.630  54.620  1.00  0.00     0.210 HD
ENDBRANCH  27  30
ENDBRANCH   1  25
TORSDOF 4
ENDMDL
MODEL 7
REMARK VINA RESULT:      -9.0      3.763      8.858
REMARK  4 active torsions:
REMARK  status: ('A' for Active; 'I' for Inactive)
REMARK    1  A    between atoms: C2_2  and  O1_3 
REMARK    2  A    between atoms: C4_5  and  C5_6 
REMARK    3  A    between atoms: C6_8  and  C7_9 
REMARK    4  A    between atoms: C12_14  and  C13_15 
ROOT
HETATM    1  C5  UNL     1      24.429   1.210  52.130  1.00  0.00     0.115 A 
HETATM    2  N1  UNL     1      23.191   1.048  52.618  1.00  0.00    -0.236 NA
HETATM    3  C6  UNL     1      22.420   2.120  52.273  1.00  0.00     0.076 A 
HETATM    4  C21 UNL     1      23.198   2.968  51.554  1.00  0.00     0.083 A 
HETATM    5  C22 UNL     1      23.050   4.170  50.941  1.00  0.00     0.148 A 
HETATM    6  N3  UNL     1      24.057   4.789  50.278  1.00  0.00    -0.269 NA
HETATM    7  C23 UNL     1      25.280   4.185  50.218  1.00  0.00     0.134 A 
HETATM    8  C24 UNL     1      25.408   2.965  50.848  1.00  0.00     0.118 A 
HETATM    9  N4  UNL     1      24.406   2.383  51.489  1.00  0.00    -0.305 N 
ENDROOT
BRANCH   3  10
HETATM   10  C7  UNL     1      21.001   2.291  52.628  1.00  0.00     0.088 A 
HETATM   11  C8  UNL     1      20.057   2.432  51.537  1.00  0.00     0.002 A 
HETATM   12  C9  UNL     1      19.189   1.404  51.613  1.00  0.00    -0.010 A 
HETATM   13  C10 UNL     1      18.075   0.974  50.881  1.00  0.00     0.016 A 
HETATM   14  C19 UNL     1      19.504   0.596  52.693  1.00  0.00     0.064 A 
HETATM   15  C11 UNL     1      17.372  -0.160  51.229  1.00  0.00     0.033 A 
HETATM   16  C12 UNL     1      17.732  -0.923  52.310  1.00  0.00     0.067 A 
HETATM   17  N2  UNL     1      18.800  -0.505  53.006  1.00  0.00    -0.248 NA
HETATM   18  C20 UNL     1      20.545   1.065  53.316  1.00  0.00     0.020 A 
BRANCH  16  19
HETATM   19  C13 UNL     1      17.004  -2.123  52.694  1.00  0.00    -0.007 A 
HETATM   20  C14 UNL     1      15.737  -2.438  52.317  1.00  0.00     0.014 A 
HETATM   21  C15 UNL     1      15.072  -3.588  52.697  1.00  0.00     0.001 A 
HETATM   22  C16 UNL     1      15.772  -4.463  53.524  1.00  0.00     0.000 A 
HETATM   23  C17 UNL     1      17.061  -4.229  53.959  1.00  0.00     0.001 A 
HETATM   24  C18 UNL     1      17.635  -3.047  53.517  1.00  0.00     0.014 A 
ENDBRANCH  16  19
ENDBRANCH   3  10
BRANCH   1  25
HETATM   25  C4  UNL     1      25.408   0.151  52.402  1.00  0.00     0.061 C 
HETATM   26  C3  UNL     1      26.825   0.577  52.714  1.00  0.00     0.049 C 
HETATM   27  C2  UNL     1      26.889  -0.660  53.608  1.00  0.00     0.056 C 
HETATM   28  C1  UNL     1      27.314  -1.843  52.793  1.00  0.00     0.045 C 
HETATM   29  C25 UNL     1      25.363  -0.560  53.708  1.00  0.00     0.049 C 
BRANCH  27  30
HETATM   30  O1  UNL     1      27.572  -0.472  54.797  1.00  0.00    -0.390 OA
HETATM   31  H4  UNL     1      27.981   0.442  54.725  1.00  0.00     0.210 HD
ENDBRANCH  27  30
ENDBRANCH   1  25
TORSDOF 4
ENDMDL
MODEL 8
REMARK VINA RESULT:      -9.0      3.422      5.513
REMARK  4 active torsions:
REMARK  status: ('A' for Active; 'I' for Inactive)
REMARK    1  A    between atoms: C2_2  and  O1_3 
REMARK    2  A    between atoms: C4_5  and  C5_6 
REMARK    3  A    between atoms: C6_8  and  C7_9 
REMARK    4  A    between atoms: C12_14  and  C13_15 
ROOT
HETATM    1  C5  UNL     1      20.484   1.113  52.293  1.00  0.00     0.115 A 
HETATM    2  N1  UNL     1      21.526   1.943  52.152  1.00  0.00    -0.236 NA
HETATM    3  C6  UNL     1      22.574   1.491  52.900  1.00  0.00     0.076 A 
HETATM    4  C21 UNL     1      22.172   0.353  53.522  1.00  0.00     0.083 A 
HETATM    5  C22 UNL     1      22.710  -0.553  54.376  1.00  0.00     0.148 A 
HETATM    6  N3  UNL     1      22.026  -1.627  54.840  1.00  0.00    -0.269 NA
HETATM    7  C23 UNL     1      20.737  -1.816  54.435  1.00  0.00     0.134 A 
HETATM    8  C24 UNL     1      20.210  -0.884  53.566  1.00  0.00     0.118 A 
HETATM    9  N4  UNL     1      20.901   0.157  53.129  1.00  0.00    -0.305 N 
ENDROOT
BRANCH   3  10
HETATM   10  C7  UNL     1      23.893   2.141  52.990  1.00  0.00     0.088 A 
HETATM   11  C8  UNL     1      24.992   1.512  52.283  1.00  0.00     0.002 A 
HETATM   12  C9  UNL     1      25.442   2.390  51.366  1.00  0.00    -0.010 A 
HETATM   13  C10 UNL     1      26.451   2.398  50.394  1.00  0.00     0.016 A 
HETATM   14  C19 UNL     1      24.707   3.562  51.429  1.00  0.00     0.064 A 
HETATM   15  C11 UNL     1      26.670   3.492  49.584  1.00  0.00     0.033 A 
HETATM   16  C12 UNL     1      25.907   4.627  49.692  1.00  0.00     0.067 A 
HETATM   17  N2  UNL     1      24.944   4.612  50.624  1.00  0.00    -0.248 NA
HETATM   18  C20 UNL     1      23.797   3.471  52.354  1.00  0.00     0.020 A 
BRANCH  16  19
HETATM   19  C13 UNL     1      26.122   5.792  48.847  1.00  0.00    -0.007 A 
HETATM   20  C14 UNL     1      25.155   6.630  48.388  1.00  0.00     0.014 A 
HETATM   21  C15 UNL     1      25.390   7.730  47.586  1.00  0.00     0.001 A 
HETATM   22  C16 UNL     1      26.718   7.971  47.240  1.00  0.00     0.000 A 
HETATM   23  C17 UNL     1      27.767   7.176  47.657  1.00  0.00     0.001 A 
HETATM   24  C18 UNL     1      27.419   6.100  48.459  1.00  0.00     0.014 A 
ENDBRANCH  16  19
ENDBRANCH   3  10
BRANCH   1  25
HETATM   25  C4  UNL     1      19.255   1.439  51.559  1.00  0.00     0.061 C 
HETATM   26  C3  UNL     1      19.255   1.208  50.065  1.00  0.00     0.049 C 
HETATM   27  C2  UNL     1      17.767   0.899  50.218  1.00  0.00     0.056 C 
HETATM   28  C1  UNL     1      16.981   2.171  50.125  1.00  0.00     0.045 C 
HETATM   29  C25 UNL     1      18.081   0.532  51.671  1.00  0.00     0.049 C 
BRANCH  27  30
HETATM   30  O1  UNL     1      17.315  -0.145  49.429  1.00  0.00    -0.390 OA
HETATM   31  H4  UNL     1      18.088  -0.782  49.367  1.00  0.00     0.210 HD
ENDBRANCH  27  30
ENDBRANCH   1  25
TORSDOF 4
ENDMDL
MODEL 9
REMARK VINA RESULT:      -9.0      2.635      8.591
REMARK  4 active torsions:
REMARK  status: ('A' for Active; 'I' for Inactive)
REMARK    1  A    between atoms: C2_2  and  O1_3 
REMARK    2  A    between atoms: C4_5  and  C5_6 
REMARK    3  A    between atoms: C6_8  and  C7_9 
REMARK    4  A    between atoms: C12_14  and  C13_15 
ROOT
HETATM    1  C5  UNL     1      28.308   7.547  48.227  1.00  0.00     0.115 A 
HETATM    2  N1  UNL     1      27.260   6.782  48.562  1.00  0.00    -0.236 NA
HETATM    3  C6  UNL     1      26.205   7.576  48.905  1.00  0.00     0.076 A 
HETATM    4  C21 UNL     1      26.608   8.867  48.781  1.00  0.00     0.083 A 
HETATM    5  C22 UNL     1      26.065  10.097  48.963  1.00  0.00     0.148 A 
HETATM    6  N3  UNL     1      26.752  11.246  48.749  1.00  0.00    -0.269 NA
HETATM    7  C23 UNL     1      28.049  11.173  48.329  1.00  0.00     0.134 A 
HETATM    8  C24 UNL     1      28.581   9.914  48.150  1.00  0.00     0.118 A 
HETATM    9  N4  UNL     1      27.886   8.808  48.368  1.00  0.00    -0.305 N 
ENDROOT
BRANCH   3  10
HETATM   10  C7  UNL     1      24.880   7.090  49.326  1.00  0.00     0.088 A 
HETATM   11  C8  UNL     1      24.160   6.242  48.396  1.00  0.00     0.002 A 
HETATM   12  C9  UNL     1      23.971   5.050  48.994  1.00  0.00    -0.010 A 
HETATM   13  C10 UNL     1      23.364   3.836  48.646  1.00  0.00     0.016 A 
HETATM   14  C19 UNL     1      24.521   5.064  50.265  1.00  0.00     0.064 A 
HETATM   15  C11 UNL     1      23.333   2.765  49.513  1.00  0.00     0.033 A 
HETATM   16  C12 UNL     1      23.897   2.837  50.761  1.00  0.00     0.067 A 
HETATM   17  N2  UNL     1      24.476   4.002  51.088  1.00  0.00    -0.248 NA
HETATM   18  C20 UNL     1      25.060   6.222  50.508  1.00  0.00     0.020 A 
BRANCH  16  19
HETATM   19  C13 UNL     1      23.875   1.718  51.692  1.00  0.00    -0.007 A 
HETATM   20  C14 UNL     1      24.946   1.228  52.371  1.00  0.00     0.014 A 
HETATM   21  C15 UNL     1      24.893   0.163  53.249  1.00  0.00     0.001 A 
HETATM   22  C16 UNL     1      23.646  -0.429  53.430  1.00  0.00     0.000 A 
HETATM   23  C17 UNL     1      22.502  -0.001  52.785  1.00  0.00     0.001 A 
HETATM   24  C18 UNL     1      22.667   1.075  51.927  1.00  0.00     0.014 A 
ENDBRANCH  16  19
ENDBRANCH   3  10
BRANCH   1  25
HETATM   25  C4  UNL     1      29.544   6.864  47.827  1.00  0.00     0.061 C 
HETATM   26  C3  UNL     1      30.768   7.079  48.689  1.00  0.00     0.049 C 
HETATM   27  C2  UNL     1      31.164   5.656  48.301  1.00  0.00     0.056 C 
HETATM   28  C1  UNL     1      31.936   5.685  47.018  1.00  0.00     0.045 C 
HETATM   29  C25 UNL     1      29.673   5.400  48.060  1.00  0.00     0.049 C 
BRANCH  27  30
HETATM   30  O1  UNL     1      31.730   4.920  49.327  1.00  0.00    -0.390 OA
HETATM   31  H4  UNL     1      30.978   4.732  49.964  1.00  0.00     0.210 HD
ENDBRANCH  27  30
ENDBRANCH   1  25
TORSDOF 4
ENDMDL
