MODEL 1
REMARK VINA RESULT:      -8.1      0.000      0.000
REMARK  4 active torsions:
REMARK  status: ('A' for Active; 'I' for Inactive)
REMARK    1  A    between atoms: N1_1  and  C1_2 
REMARK    2  A    between atoms: C1_2  and  C2_3 
REMARK    3  A    between atoms: C11_15  and  N5_16 
REMARK    4  A    between atoms: N5_16  and  C12_17 
ROOT
HETATM    1  C2  UNL     1      27.317   0.600  54.049  1.00  0.00     0.018 C 
HETATM    2  C3  UNL     1      27.693  -0.224  52.840  1.00  0.00     0.026 C 
HETATM    3  C4  UNL     1      26.413  -0.671  52.172  1.00  0.00     0.120 C 
HETATM    4  N2  UNL     1      25.466   0.425  52.261  1.00  0.00    -0.371 N 
HETATM    5  C5  UNL     1      23.904   0.548  52.202  1.00  0.00     0.117 A 
HETATM    6  C6  UNL     1      23.748   1.714  51.778  1.00  0.00     0.258 A 
HETATM    7  C7  UNL     1      23.663   1.025  53.149  1.00  0.00     0.190 A 
HETATM    8  C8  UNL     1      23.645   0.177  54.214  1.00  0.00    -0.006 A 
HETATM    9  C9  UNL     1      23.199  -0.607  52.851  1.00  0.00     0.101 A 
HETATM   10  N3  UNL     1      24.549   2.317  53.089  1.00  0.00     0.008 N 
HETATM   11  C10 UNL     1      24.151   3.767  53.362  1.00  0.00     0.393 C 
HETATM   12  N4  UNL     1      23.282   4.015  52.100  1.00  0.00    -0.246 NA
HETATM   13  C11 UNL     1      23.583   3.041  51.197  1.00  0.00     0.144 C 
HETATM   14  C18 UNL     1      25.941   1.884  52.511  1.00  0.00     0.293 C 
HETATM   15  C19 UNL     1      26.891   1.956  53.599  1.00  0.00     0.061 C 
ENDROOT
BRANCH  13  16
HETATM   16  N5  UNL     1      23.714   2.834  49.768  1.00  0.00    -0.342 N 
HETATM   17  H15 UNL     1      23.104   2.102  49.289  1.00  0.00     0.167 HD
BRANCH  16  18
HETATM   18  C12 UNL     1      24.725   3.781  49.433  1.00  0.00     0.033 A 
HETATM   19  C13 UNL     1      26.061   3.374  49.487  1.00  0.00     0.029 A 
HETATM   20  C14 UNL     1      27.056   4.271  49.172  1.00  0.00     0.002 A 
HETATM   21  C15 UNL     1      26.695   5.565  48.809  1.00  0.00     0.000 A 
HETATM   22  C16 UNL     1      25.358   5.936  48.767  1.00  0.00     0.002 A 
HETATM   23  C17 UNL     1      24.343   5.052  49.077  1.00  0.00     0.029 A 
ENDBRANCH  16  18
ENDBRANCH  13  16
BRANCH   1  24
HETATM   24  C1  UNL     1      28.522   0.591  54.961  1.00  0.00     0.271 C 
BRANCH  24  25
HETATM   25  N1  UNL     1      29.349   1.766  54.849  1.00  0.00     0.078 N 
HETATM   26  H1  UNL     1      29.655   2.063  55.823  1.00  0.00     0.312 HD
HETATM   27  H2  UNL     1      28.724   2.537  54.486  1.00  0.00     0.312 HD
ENDBRANCH  24  25
ENDBRANCH   1  24
TORSDOF 4
ENDMDL
MODEL 2
REMARK VINA RESULT:      -7.5      2.128      6.232
REMARK  4 active torsions:
REMARK  status: ('A' for Active; 'I' for Inactive)
REMARK    1  A    between atoms: N1_1  and  C1_2 
REMARK    2  A    between atoms: C1_2  and  C2_3 
REMARK    3  A    between atoms: C11_15  and  N5_16 
REMARK    4  A    between atoms: N5_16  and  C12_17 
ROOT
HETATM    1  C2  UNL     1      22.307   6.132  49.878  1.00  0.00     0.018 C 
HETATM    2  C3  UNL     1      21.592   5.998  51.202  1.00  0.00     0.026 C 
HETATM    3  C4  UNL     1      21.599   4.535  51.582  1.00  0.00     0.120 C 
HETATM    4  N2  UNL     1      22.883   3.986  51.188  1.00  0.00    -0.371 N 
HETATM    5  C5  UNL     1      23.425   2.550  50.866  1.00  0.00     0.117 A 
HETATM    6  C6  UNL     1      24.638   2.656  51.150  1.00  0.00     0.258 A 
HETATM    7  C7  UNL     1      23.810   2.656  49.855  1.00  0.00     0.190 A 
HETATM    8  C8  UNL     1      22.854   2.610  48.885  1.00  0.00    -0.006 A 
HETATM    9  C9  UNL     1      22.418   1.687  50.162  1.00  0.00     0.101 A 
HETATM   10  N3  UNL     1      24.815   3.848  50.021  1.00  0.00     0.008 N 
HETATM   11  C10 UNL     1      26.264   3.952  49.550  1.00  0.00     0.393 C 
HETATM   12  N4  UNL     1      26.910   2.954  50.548  1.00  0.00    -0.246 NA
HETATM   13  C11 UNL     1      26.029   2.769  51.569  1.00  0.00     0.144 C 
HETATM   14  C18 UNL     1      24.114   4.905  50.943  1.00  0.00     0.293 C 
HETATM   15  C19 UNL     1      23.776   6.036  50.108  1.00  0.00     0.061 C 
ENDROOT
BRANCH  13  16
HETATM   16  N5  UNL     1      25.999   2.539  53.001  1.00  0.00    -0.342 N 
HETATM   17  H15 UNL     1      25.315   3.093  53.604  1.00  0.00     0.167 HD
BRANCH  16  18
HETATM   18  C12 UNL     1      27.003   1.539  53.151  1.00  0.00     0.033 A 
HETATM   19  C13 UNL     1      26.680   0.219  52.825  1.00  0.00     0.029 A 
HETATM   20  C14 UNL     1      27.630  -0.767  52.966  1.00  0.00     0.002 A 
HETATM   21  C15 UNL     1      28.892  -0.411  53.433  1.00  0.00     0.000 A 
HETATM   22  C16 UNL     1      29.179   0.910  53.749  1.00  0.00     0.002 A 
HETATM   23  C17 UNL     1      28.241   1.914  53.614  1.00  0.00     0.029 A 
ENDBRANCH  16  18
ENDBRANCH  13  16
BRANCH   1  24
HETATM   24  C1  UNL     1      21.848   7.442  49.279  1.00  0.00     0.271 C 
BRANCH  24  25
HETATM   25  N1  UNL     1      20.897   8.155  50.094  1.00  0.00     0.078 N 
HETATM   26  H1  UNL     1      20.899   9.179  49.804  1.00  0.00     0.312 HD
HETATM   27  H2  UNL     1      21.270   8.126  51.083  1.00  0.00     0.312 HD
ENDBRANCH  24  25
ENDBRANCH   1  24
TORSDOF 4
ENDMDL
MODEL 3
REMARK VINA RESULT:      -7.4      2.207      6.108
REMARK  4 active torsions:
REMARK  status: ('A' for Active; 'I' for Inactive)
REMARK    1  A    between atoms: N1_1  and  C1_2 
REMARK    2  A    between atoms: C1_2  and  C2_3 
REMARK    3  A    between atoms: C11_15  and  N5_16 
REMARK    4  A    between atoms: N5_16  and  C12_17 
ROOT
HETATM    1  C2  UNL     1      20.669   2.316  49.670  1.00  0.00     0.018 C 
HETATM    2  C3  UNL     1      21.526   2.570  48.452  1.00  0.00     0.026 C 
HETATM    3  C4  UNL     1      22.760   3.317  48.907  1.00  0.00     0.120 C 
HETATM    4  N2  UNL     1      23.153   2.772  50.193  1.00  0.00    -0.371 N 
HETATM    5  C5  UNL     1      23.999   3.292  51.406  1.00  0.00     0.117 A 
HETATM    6  C6  UNL     1      24.430   2.229  51.903  1.00  0.00     0.258 A 
HETATM    7  C7  UNL     1      23.303   3.219  52.237  1.00  0.00     0.190 A 
HETATM    8  C8  UNL     1      22.406   4.242  52.308  1.00  0.00    -0.006 A 
HETATM    9  C9  UNL     1      23.817   4.760  51.663  1.00  0.00     0.101 A 
HETATM   10  N3  UNL     1      22.885   1.709  52.170  1.00  0.00     0.008 N 
HETATM   11  C10 UNL     1      22.836   0.676  53.295  1.00  0.00     0.393 C 
HETATM   12  N4  UNL     1      24.362   0.493  53.515  1.00  0.00    -0.246 NA
HETATM   13  C11 UNL     1      24.996   0.988  52.416  1.00  0.00     0.144 C 
HETATM   14  C18 UNL     1      22.677   1.365  50.654  1.00  0.00     0.293 C 
HETATM   15  C19 UNL     1      21.256   1.191  50.451  1.00  0.00     0.061 C 
ENDROOT
BRANCH  13  16
HETATM   16  N5  UNL     1      26.161   0.747  51.586  1.00  0.00    -0.342 N 
HETATM   17  H15 UNL     1      26.029   0.547  50.547  1.00  0.00     0.167 HD
BRANCH  16  18
HETATM   18  C12 UNL     1      27.218   0.870  52.535  1.00  0.00     0.033 A 
HETATM   19  C13 UNL     1      27.688   2.149  52.844  1.00  0.00     0.029 A 
HETATM   20  C14 UNL     1      28.711   2.294  53.753  1.00  0.00     0.002 A 
HETATM   21  C15 UNL     1      29.247   1.151  54.339  1.00  0.00     0.000 A 
HETATM   22  C16 UNL     1      28.757  -0.105  54.008  1.00  0.00     0.002 A 
HETATM   23  C17 UNL     1      27.731  -0.273  53.100  1.00  0.00     0.029 A 
ENDBRANCH  16  18
ENDBRANCH  13  16
BRANCH   1  24
HETATM   24  C1  UNL     1      19.270   2.062  49.158  1.00  0.00     0.271 C 
BRANCH  24  25
HETATM   25  N1  UNL     1      19.046   2.532  47.813  1.00  0.00     0.078 N 
HETATM   26  H1  UNL     1      19.942   2.407  47.254  1.00  0.00     0.312 HD
HETATM   27  H2  UNL     1      18.883   3.574  47.885  1.00  0.00     0.312 HD
ENDBRANCH  24  25
ENDBRANCH   1  24
TORSDOF 4
ENDMDL
MODEL 4
REMARK VINA RESULT:      -7.3      2.551      5.683
REMARK  4 active torsions:
REMARK  status: ('A' for Active; 'I' for Inactive)
REMARK    1  A    between atoms: N1_1  and  C1_2 
REMARK    2  A    between atoms: C1_2  and  C2_3 
REMARK    3  A    between atoms: C11_15  and  N5_16 
REMARK    4  A    between atoms: N5_16  and  C12_17 
ROOT
HETATM    1  C2  UNL     1      25.747   5.033  49.685  1.00  0.00     0.018 C 
HETATM    2  C3  UNL     1      26.570   3.776  49.525  1.00  0.00     0.026 C 
HETATM    3  C4  UNL     1      26.228   2.854  50.673  1.00  0.00     0.120 C 
HETATM    4  N2  UNL     1      24.805   2.977  50.926  1.00  0.00    -0.371 N 
HETATM    5  C5  UNL     1      23.869   2.700  52.153  1.00  0.00     0.117 A 
HETATM    6  C6  UNL     1      22.774   2.457  51.599  1.00  0.00     0.258 A 
HETATM    7  C7  UNL     1      23.395   3.664  52.319  1.00  0.00     0.190 A 
HETATM    8  C8  UNL     1      24.168   4.557  52.998  1.00  0.00    -0.006 A 
HETATM    9  C9  UNL     1      24.511   3.029  53.469  1.00  0.00     0.101 A 
HETATM   10  N3  UNL     1      22.769   3.958  50.912  1.00  0.00     0.008 N 
HETATM   11  C10 UNL     1      21.348   4.404  50.569  1.00  0.00     0.393 C 
HETATM   12  N4  UNL     1      20.601   3.083  50.892  1.00  0.00    -0.246 NA
HETATM   13  C11 UNL     1      21.529   2.088  50.937  1.00  0.00     0.144 C 
HETATM   14  C18 UNL     1      23.838   3.538  49.845  1.00  0.00     0.293 C 
HETATM   15  C19 UNL     1      24.348   4.755  49.254  1.00  0.00     0.061 C 
ENDROOT
BRANCH  13  16
HETATM   16  N5  UNL     1      21.687   0.681  50.620  1.00  0.00    -0.342 N 
HETATM   17  H15 UNL     1      22.015   0.400  49.645  1.00  0.00     0.167 HD
BRANCH  16  18
HETATM   18  C12 UNL     1      21.310   0.067  51.850  1.00  0.00     0.033 A 
HETATM   19  C13 UNL     1      22.304  -0.540  52.622  1.00  0.00     0.029 A 
HETATM   20  C14 UNL     1      21.964  -1.144  53.811  1.00  0.00     0.002 A 
HETATM   21  C15 UNL     1      20.630  -1.129  54.207  1.00  0.00     0.000 A 
HETATM   22  C16 UNL     1      19.668  -0.517  53.415  1.00  0.00     0.002 A 
HETATM   23  C17 UNL     1      19.986   0.095  52.220  1.00  0.00     0.029 A 
ENDBRANCH  16  18
ENDBRANCH  13  16
BRANCH   1  24
HETATM   24  C1  UNL     1      26.449   6.105  48.885  1.00  0.00     0.271 C 
BRANCH  24  25
HETATM   25  N1  UNL     1      27.888   6.029  48.944  1.00  0.00     0.078 N 
HETATM   26  H1  UNL     1      28.251   5.697  48.001  1.00  0.00     0.312 HD
HETATM   27  H2  UNL     1      28.118   5.266  49.637  1.00  0.00     0.312 HD
ENDBRANCH  24  25
ENDBRANCH   1  24
TORSDOF 4
ENDMDL
MODEL 5
REMARK VINA RESULT:      -6.9      2.030      6.402
REMARK  4 active torsions:
REMARK  status: ('A' for Active; 'I' for Inactive)
REMARK    1  A    between atoms: N1_1  and  C1_2 
REMARK    2  A    between atoms: C1_2  and  C2_3 
REMARK    3  A    between atoms: C11_15  and  N5_16 
REMARK    4  A    between atoms: N5_16  and  C12_17 
ROOT
HETATM    1  C2  UNL     1      24.253   6.871  48.862  1.00  0.00     0.018 C 
HETATM    2  C3  UNL     1      23.559   7.416  50.088  1.00  0.00     0.026 C 
HETATM    3  C4  UNL     1      22.863   6.262  50.773  1.00  0.00     0.120 C 
HETATM    4  N2  UNL     1      23.727   5.101  50.663  1.00  0.00    -0.371 N 
HETATM    5  C5  UNL     1      23.513   3.550  50.727  1.00  0.00     0.117 A 
HETATM    6  C6  UNL     1      24.628   3.146  51.124  1.00  0.00     0.258 A 
HETATM    7  C7  UNL     1      23.904   3.211  49.771  1.00  0.00     0.190 A 
HETATM    8  C8  UNL     1      23.045   3.376  48.726  1.00  0.00    -0.006 A 
HETATM    9  C9  UNL     1      22.217   3.109  50.110  1.00  0.00     0.101 A 
HETATM   10  N3  UNL     1      25.358   3.799  49.795  1.00  0.00     0.008 N 
HETATM   11  C10 UNL     1      26.680   3.098  49.489  1.00  0.00     0.393 C 
HETATM   12  N4  UNL     1      26.766   2.195  50.750  1.00  0.00    -0.246 NA
HETATM   13  C11 UNL     1      25.902   2.699  51.674  1.00  0.00     0.144 C 
HETATM   14  C18 UNL     1      25.248   5.251  50.375  1.00  0.00     0.293 C 
HETATM   15  C19 UNL     1      25.496   6.164  49.282  1.00  0.00     0.061 C 
ENDROOT
BRANCH  13  16
HETATM   16  N5  UNL     1      25.763   2.872  53.107  1.00  0.00    -0.342 N 
HETATM   17  H15 UNL     1      25.030   3.549  53.482  1.00  0.00     0.167 HD
BRANCH  16  18
HETATM   18  C12 UNL     1      26.761   1.982  53.601  1.00  0.00     0.033 A 
HETATM   19  C13 UNL     1      28.091   2.411  53.607  1.00  0.00     0.029 A 
HETATM   20  C14 UNL     1      29.073   1.568  54.074  1.00  0.00     0.002 A 
HETATM   21  C15 UNL     1      28.705   0.305  54.528  1.00  0.00     0.000 A 
HETATM   22  C16 UNL     1      27.375  -0.090  54.507  1.00  0.00     0.002 A 
HETATM   23  C17 UNL     1      26.373   0.740  54.044  1.00  0.00     0.029 A 
ENDBRANCH  16  18
ENDBRANCH  13  16
BRANCH   1  24
HETATM   24  C1  UNL     1      24.481   8.050  47.944  1.00  0.00     0.271 C 
BRANCH  24  25
HETATM   25  N1  UNL     1      24.142   9.322  48.532  1.00  0.00     0.078 N 
HETATM   26  H1  UNL     1      23.397   9.788  47.933  1.00  0.00     0.312 HD
HETATM   27  H2  UNL     1      25.006   9.925  48.454  1.00  0.00     0.312 HD
ENDBRANCH  24  25
ENDBRANCH   1  24
TORSDOF 4
ENDMDL
MODEL 6
REMARK VINA RESULT:      -6.9      2.393      6.237
REMARK  4 active torsions:
REMARK  status: ('A' for Active; 'I' for Inactive)
REMARK    1  A    between atoms: N1_1  and  C1_2 
REMARK    2  A    between atoms: C1_2  and  C2_3 
REMARK    3  A    between atoms: C11_15  and  N5_16 
REMARK    4  A    between atoms: N5_16  and  C12_17 
ROOT
HETATM    1  C2  UNL     1      25.598   6.719  49.078  1.00  0.00     0.018 C 
HETATM    2  C3  UNL     1      25.667   7.358  50.445  1.00  0.00     0.026 C 
HETATM    3  C4  UNL     1      24.271   7.353  51.026  1.00  0.00     0.120 C 
HETATM    4  N2  UNL     1      23.641   6.104  50.642  1.00  0.00    -0.371 N 
HETATM    5  C5  UNL     1      22.161   5.607  50.495  1.00  0.00     0.117 A 
HETATM    6  C6  UNL     1      22.274   4.378  50.693  1.00  0.00     0.258 A 
HETATM    7  C7  UNL     1      22.115   5.280  49.460  1.00  0.00     0.190 A 
HETATM    8  C8  UNL     1      21.959   6.292  48.560  1.00  0.00    -0.006 A 
HETATM    9  C9  UNL     1      21.234   6.668  49.976  1.00  0.00     0.101 A 
HETATM   10  N3  UNL     1      23.293   4.247  49.400  1.00  0.00     0.008 N 
HETATM   11  C10 UNL     1      23.294   2.826  48.839  1.00  0.00     0.393 C 
HETATM   12  N4  UNL     1      22.429   2.140  49.931  1.00  0.00    -0.246 NA
HETATM   13  C11 UNL     1      22.409   2.963  51.015  1.00  0.00     0.144 C 
HETATM   14  C18 UNL     1      24.485   4.874  50.202  1.00  0.00     0.293 C 
HETATM   15  C19 UNL     1      25.498   5.241  49.237  1.00  0.00     0.061 C 
ENDROOT
BRANCH  13  16
HETATM   16  N5  UNL     1      22.382   2.913  52.465  1.00  0.00    -0.342 N 
HETATM   17  H15 UNL     1      21.763   3.598  52.998  1.00  0.00     0.167 HD
BRANCH  16  18
HETATM   18  C12 UNL     1      23.291   1.848  52.731  1.00  0.00     0.033 A 
HETATM   19  C13 UNL     1      22.768   0.601  53.085  1.00  0.00     0.029 A 
HETATM   20  C14 UNL     1      23.626  -0.442  53.352  1.00  0.00     0.002 A 
HETATM   21  C15 UNL     1      24.996  -0.217  53.259  1.00  0.00     0.000 A 
HETATM   22  C16 UNL     1      25.481   1.034  52.905  1.00  0.00     0.002 A 
HETATM   23  C17 UNL     1      24.640   2.094  52.633  1.00  0.00     0.029 A 
ENDBRANCH  16  18
ENDBRANCH  13  16
BRANCH   1  24
HETATM   24  C1  UNL     1      26.823   7.189  48.328  1.00  0.00     0.271 C 
BRANCH  24  25
HETATM   25  N1  UNL     1      28.068   6.826  48.957  1.00  0.00     0.078 N 
HETATM   26  H1  UNL     1      28.845   7.427  48.550  1.00  0.00     0.312 HD
HETATM   27  H2  UNL     1      28.274   5.833  48.660  1.00  0.00     0.312 HD
ENDBRANCH  24  25
ENDBRANCH   1  24
TORSDOF 4
ENDMDL
MODEL 7
REMARK VINA RESULT:      -6.9      2.798      4.825
REMARK  4 active torsions:
REMARK  status: ('A' for Active; 'I' for Inactive)
REMARK    1  A    between atoms: N1_1  and  C1_2 
REMARK    2  A    between atoms: C1_2  and  C2_3 
REMARK    3  A    between atoms: C11_15  and  N5_16 
REMARK    4  A    between atoms: N5_16  and  C12_17 
ROOT
HETATM    1  C2  UNL     1      24.524   5.676  50.785  1.00  0.00     0.018 C 
HETATM    2  C3  UNL     1      25.233   5.118  49.574  1.00  0.00     0.026 C 
HETATM    3  C4  UNL     1      25.449   3.640  49.807  1.00  0.00     0.120 C 
HETATM    4  N2  UNL     1      24.271   3.126  50.482  1.00  0.00    -0.371 N 
HETATM    5  C5  UNL     1      23.965   1.883  51.386  1.00  0.00     0.117 A 
HETATM    6  C6  UNL     1      22.746   1.698  51.176  1.00  0.00     0.258 A 
HETATM    7  C7  UNL     1      23.582   2.334  52.298  1.00  0.00     0.190 A 
HETATM    8  C8  UNL     1      24.546   2.815  53.132  1.00  0.00    -0.006 A 
HETATM    9  C9  UNL     1      25.103   1.524  52.297  1.00  0.00     0.101 A 
HETATM   10  N3  UNL     1      22.401   3.207  51.749  1.00  0.00     0.008 N 
HETATM   11  C10 UNL     1      20.959   3.293  52.248  1.00  0.00     0.393 C 
HETATM   12  N4  UNL     1      20.463   1.898  51.779  1.00  0.00    -0.246 NA
HETATM   13  C11 UNL     1      21.349   1.440  50.852  1.00  0.00     0.144 C 
HETATM   14  C18 UNL     1      22.916   3.888  50.434  1.00  0.00     0.293 C 
HETATM   15  C19 UNL     1      23.085   5.294  50.723  1.00  0.00     0.061 C 
ENDROOT
BRANCH  13  16
HETATM   16  N5  UNL     1      21.395   0.658  49.630  1.00  0.00    -0.342 N 
HETATM   17  H15 UNL     1      21.530  -0.398  49.692  1.00  0.00     0.167 HD
BRANCH  16  18
HETATM   18  C12 UNL     1      21.226   1.668  48.639  1.00  0.00     0.033 A 
HETATM   19  C13 UNL     1      22.285   1.926  47.765  1.00  0.00     0.029 A 
HETATM   20  C14 UNL     1      22.148   2.900  46.802  1.00  0.00     0.002 A 
HETATM   21  C15 UNL     1      20.947   3.600  46.730  1.00  0.00     0.000 A 
HETATM   22  C16 UNL     1      19.915   3.318  47.614  1.00  0.00     0.002 A 
HETATM   23  C17 UNL     1      20.031   2.345  48.587  1.00  0.00     0.029 A 
ENDBRANCH  16  18
ENDBRANCH  13  16
BRANCH   1  24
HETATM   24  C1  UNL     1      24.780   7.165  50.779  1.00  0.00     0.271 C 
BRANCH  24  25
HETATM   25  N1  UNL     1      26.178   7.517  50.745  1.00  0.00     0.078 N 
HETATM   26  H1  UNL     1      26.721   6.716  50.304  1.00  0.00     0.312 HD
HETATM   27  H2  UNL     1      26.496   7.573  51.751  1.00  0.00     0.312 HD
ENDBRANCH  24  25
ENDBRANCH   1  24
TORSDOF 4
ENDMDL
MODEL 8
REMARK VINA RESULT:      -6.8      1.975      6.576
REMARK  4 active torsions:
REMARK  status: ('A' for Active; 'I' for Inactive)
REMARK    1  A    between atoms: N1_1  and  C1_2 
REMARK    2  A    between atoms: C1_2  and  C2_3 
REMARK    3  A    between atoms: C11_15  and  N5_16 
REMARK    4  A    between atoms: N5_16  and  C12_17 
ROOT
HETATM    1  C2  UNL     1      21.534   4.351  49.411  1.00  0.00     0.018 C 
HETATM    2  C3  UNL     1      21.601   3.176  48.464  1.00  0.00     0.026 C 
HETATM    3  C4  UNL     1      23.054   2.776  48.331  1.00  0.00     0.120 C 
HETATM    4  N2  UNL     1      23.671   2.923  49.636  1.00  0.00    -0.371 N 
HETATM    5  C5  UNL     1      25.138   3.118  50.153  1.00  0.00     0.117 A 
HETATM    6  C6  UNL     1      25.081   2.623  51.300  1.00  0.00     0.258 A 
HETATM    7  C7  UNL     1      25.075   4.045  50.718  1.00  0.00     0.190 A 
HETATM    8  C8  UNL     1      25.101   5.170  49.951  1.00  0.00    -0.006 A 
HETATM    9  C9  UNL     1      25.971   3.978  49.248  1.00  0.00     0.101 A 
HETATM   10  N3  UNL     1      23.927   3.720  51.736  1.00  0.00     0.008 N 
HETATM   11  C10 UNL     1      23.901   3.924  53.250  1.00  0.00     0.393 C 
HETATM   12  N4  UNL     1      24.902   2.809  53.655  1.00  0.00    -0.246 NA
HETATM   13  C11 UNL     1      25.021   1.961  52.597  1.00  0.00     0.144 C 
HETATM   14  C18 UNL     1      22.816   2.958  50.934  1.00  0.00     0.293 C 
HETATM   15  C19 UNL     1      21.691   3.858  50.808  1.00  0.00     0.061 C 
ENDROOT
BRANCH  13  16
HETATM   16  N5  UNL     1      25.213   0.554  52.299  1.00  0.00    -0.342 N 
HETATM   17  H15 UNL     1      25.865   0.274  51.504  1.00  0.00     0.167 HD
BRANCH  16  18
HETATM   18  C12 UNL     1      24.376  -0.062  53.275  1.00  0.00     0.033 A 
HETATM   19  C13 UNL     1      24.975  -0.627  54.403  1.00  0.00     0.029 A 
HETATM   20  C14 UNL     1      24.189  -1.232  55.358  1.00  0.00     0.002 A 
HETATM   21  C15 UNL     1      22.811  -1.259  55.164  1.00  0.00     0.000 A 
HETATM   22  C16 UNL     1      22.248  -0.687  54.031  1.00  0.00     0.002 A 
HETATM   23  C17 UNL     1      23.018  -0.075  53.062  1.00  0.00     0.029 A 
ENDBRANCH  16  18
ENDBRANCH  13  16
BRANCH   1  24
HETATM   24  C1  UNL     1      20.220   5.044  49.133  1.00  0.00     0.271 C 
BRANCH  24  25
HETATM   25  N1  UNL     1      19.217   4.184  48.555  1.00  0.00     0.078 N 
HETATM   26  H1  UNL     1      19.665   3.251  48.313  1.00  0.00     0.312 HD
HETATM   27  H2  UNL     1      18.939   4.627  47.637  1.00  0.00     0.312 HD
ENDBRANCH  24  25
ENDBRANCH   1  24
TORSDOF 4
ENDMDL
MODEL 9
REMARK VINA RESULT:      -6.7      2.121      6.239
REMARK  4 active torsions:
REMARK  status: ('A' for Active; 'I' for Inactive)
REMARK    1  A    between atoms: N1_1  and  C1_2 
REMARK    2  A    between atoms: C1_2  and  C2_3 
REMARK    3  A    between atoms: C11_15  and  N5_16 
REMARK    4  A    between atoms: N5_16  and  C12_17 
ROOT
HETATM    1  C2  UNL     1      22.183   3.589  48.042  1.00  0.00     0.018 C 
HETATM    2  C3  UNL     1      23.303   4.597  47.937  1.00  0.00     0.026 C 
HETATM    3  C4  UNL     1      23.381   5.336  49.253  1.00  0.00     0.120 C 
HETATM    4  N2  UNL     1      23.124   4.377  50.311  1.00  0.00    -0.371 N 
HETATM    5  C5  UNL     1      22.629   4.468  51.795  1.00  0.00     0.117 A 
HETATM    6  C6  UNL     1      23.142   3.449  52.308  1.00  0.00     0.258 A 
HETATM    7  C7  UNL     1      21.745   3.835  51.796  1.00  0.00     0.190 A 
HETATM    8  C8  UNL     1      20.629   4.431  51.293  1.00  0.00    -0.006 A 
HETATM    9  C9  UNL     1      21.598   5.539  52.006  1.00  0.00     0.101 A 
HETATM   10  N3  UNL     1      22.323   2.483  51.250  1.00  0.00     0.008 N 
HETATM   11  C10 UNL     1      22.151   1.071  51.809  1.00  0.00     0.393 C 
HETATM   12  N4  UNL     1      23.033   1.211  53.079  1.00  0.00    -0.246 NA
HETATM   13  C11 UNL     1      23.821   2.309  52.912  1.00  0.00     0.144 C 
HETATM   14  C18 UNL     1      23.293   2.849  50.074  1.00  0.00     0.293 C 
HETATM   15  C19 UNL     1      22.651   2.426  48.849  1.00  0.00     0.061 C 
ENDROOT
BRANCH  13  16
HETATM   16  N5  UNL     1      25.149   2.799  53.226  1.00  0.00    -0.342 N 
HETATM   17  H15 UNL     1      25.295   3.842  53.393  1.00  0.00     0.167 HD
BRANCH  16  18
HETATM   18  C12 UNL     1      25.910   1.593  53.208  1.00  0.00     0.033 A 
HETATM   19  C13 UNL     1      26.114   0.955  51.982  1.00  0.00     0.029 A 
HETATM   20  C14 UNL     1      26.841  -0.213  51.939  1.00  0.00     0.002 A 
HETATM   21  C15 UNL     1      27.352  -0.723  53.129  1.00  0.00     0.000 A 
HETATM   22  C16 UNL     1      27.130  -0.063  54.329  1.00  0.00     0.002 A 
HETATM   23  C17 UNL     1      26.405   1.110  54.396  1.00  0.00     0.029 A 
ENDBRANCH  16  18
ENDBRANCH  13  16
BRANCH   1  24
HETATM   24  C1  UNL     1      21.782   3.250  46.625  1.00  0.00     0.271 C 
BRANCH  24  25
HETATM   25  N1  UNL     1      22.005   4.319  45.684  1.00  0.00     0.078 N 
HETATM   26  H1  UNL     1      21.746   5.241  46.146  1.00  0.00     0.312 HD
HETATM   27  H2  UNL     1      21.312   4.174  44.900  1.00  0.00     0.312 HD
ENDBRANCH  24  25
ENDBRANCH   1  24
TORSDOF 4
ENDMDL
