MODEL 1
REMARK VINA RESULT:      -8.1      0.000      0.000
REMARK  9 active torsions:
REMARK  status: ('A' for Active; 'I' for Inactive)
REMARK    1  A    between atoms: N1_2  and  C3_4 
REMARK    2  A    between atoms: C3_4  and  C4_5 
REMARK    3  A    between atoms: C4_5  and  C5_6 
REMARK    4  A    between atoms: C4_5  and  C7_12 
REMARK    5  A    between atoms: C5_6  and  N2_7 
REMARK    6  A    between atoms: N2_7  and  N3_8 
REMARK       I    between atoms: N3_8  and  C6_9 
REMARK       I    between atoms: C6_9  and  N4_10 
REMARK    7  A    between atoms: C11_16  and  O2_17 
REMARK    8  A    between atoms: O2_17  and  C12_18 
REMARK    9  A    between atoms: C12_18  and  C13_19 
ROOT
HETATM    1  C7  UNL     1      25.161   0.356  52.380  1.00  0.00     0.037 C 
HETATM    2  C8  UNL     1      25.000  -0.456  53.640  1.00  0.00    -0.018 C 
HETATM    3  C9  UNL     1      24.033  -0.865  54.431  1.00  0.00    -0.001 C 
HETATM    4  C10 UNL     1      22.617  -0.521  54.166  1.00  0.00     0.036 C 
HETATM    5  C11 UNL     1      22.126   0.519  53.466  1.00  0.00     0.068 C 
HETATM    6  C19 UNL     1      22.978   1.542  52.815  1.00  0.00     0.033 C 
HETATM    7  C20 UNL     1      24.219   1.479  52.370  1.00  0.00    -0.015 C 
ENDROOT
BRANCH   1   8
HETATM    8  C4  UNL     1      26.590   0.699  52.193  1.00  0.00     0.040 C 
BRANCH   8   9
HETATM    9  C3  UNL     1      27.457  -0.305  52.893  1.00  0.00     0.278 C 
BRANCH   9  10
HETATM   10  N1  UNL     1      28.514   0.290  53.667  1.00  0.00     0.080 N 
HETATM   11  C1  UNL     1      29.830  -0.109  53.238  1.00  0.00     0.309 C 
HETATM   12  C2  UNL     1      28.316   0.152  55.087  1.00  0.00     0.309 C 
ENDBRANCH   9  10
ENDBRANCH   8   9
BRANCH   8  13
HETATM   13  C5  UNL     1      26.906   2.121  52.553  1.00  0.00     0.117 C 
BRANCH  13  14
HETATM   14  N2  UNL     1      27.408   2.904  51.475  1.00  0.00    -0.236 NA
HETATM   15  H12 UNL     1      27.920   2.345  50.754  1.00  0.00     0.146 HD
BRANCH  14  16
HETATM   16  N3  UNL     1      26.452   3.670  50.805  1.00  0.00    -0.274 N 
HETATM   17  C6  UNL     1      26.596   4.306  49.534  1.00  0.00     0.328 C 
HETATM   18  N4  UNL     1      25.511   5.045  49.015  1.00  0.00    -0.351 N 
HETATM   19  O1  UNL     1      27.621   4.269  48.823  1.00  0.00    -0.246 OA
HETATM   20  H14 UNL     1      24.533   5.189  49.306  1.00  0.00     0.160 HD
HETATM   21  H15 UNL     1      25.543   5.621  48.159  1.00  0.00     0.160 HD
HETATM   22  H13 UNL     1      25.530   3.787  51.295  1.00  0.00     0.185 HD
ENDBRANCH  14  16
ENDBRANCH  13  14
ENDBRANCH   8  13
ENDBRANCH   1   8
BRANCH   5  23
HETATM   23  O2  UNL     1      20.738   0.547  53.410  1.00  0.00    -0.347 OA
BRANCH  23  24
HETATM   24  C12 UNL     1      20.050  -0.663  53.667  1.00  0.00     0.214 C 
BRANCH  24  25
HETATM   25  C13 UNL     1      18.788  -0.712  52.885  1.00  0.00    -0.034 A 
HETATM   26  C14 UNL     1      18.874  -0.025  51.680  1.00  0.00     0.009 A 
HETATM   27  C15 UNL     1      17.843   0.079  50.779  1.00  0.00     0.001 A 
HETATM   28  C16 UNL     1      16.643  -0.551  51.110  1.00  0.00     0.000 A 
HETATM   29  C17 UNL     1      16.540  -1.235  52.297  1.00  0.00     0.001 A 
HETATM   30  C18 UNL     1      17.596  -1.323  53.189  1.00  0.00     0.009 A 
ENDBRANCH  24  25
ENDBRANCH  23  24
ENDBRANCH   5  23
TORSDOF 9
ENDMDL
MODEL 2
REMARK VINA RESULT:      -8.1      3.380      7.631
REMARK  9 active torsions:
REMARK  status: ('A' for Active; 'I' for Inactive)
REMARK    1  A    between atoms: N1_2  and  C3_4 
REMARK    2  A    between atoms: C3_4  and  C4_5 
REMARK    3  A    between atoms: C4_5  and  C5_6 
REMARK    4  A    between atoms: C4_5  and  C7_12 
REMARK    5  A    between atoms: C5_6  and  N2_7 
REMARK    6  A    between atoms: N2_7  and  N3_8 
REMARK       I    between atoms: N3_8  and  C6_9 
REMARK       I    between atoms: C6_9  and  N4_10 
REMARK    7  A    between atoms: C11_16  and  O2_17 
REMARK    8  A    between atoms: O2_17  and  C12_18 
REMARK    9  A    between atoms: C12_18  and  C13_19 
ROOT
HETATM    1  C7  UNL     1      24.269   1.089  52.260  1.00  0.00     0.037 C 
HETATM    2  C8  UNL     1      23.205   1.186  51.198  1.00  0.00    -0.018 C 
HETATM    3  C9  UNL     1      22.709   2.088  50.380  1.00  0.00    -0.001 C 
HETATM    4  C10 UNL     1      23.222   3.477  50.355  1.00  0.00     0.036 C 
HETATM    5  C11 UNL     1      23.855   4.153  51.333  1.00  0.00     0.068 C 
HETATM    6  C19 UNL     1      24.151   3.576  52.665  1.00  0.00     0.033 C 
HETATM    7  C20 UNL     1      24.322   2.325  53.048  1.00  0.00    -0.015 C 
ENDROOT
BRANCH   1   8
HETATM    8  C4  UNL     1      24.091  -0.167  53.025  1.00  0.00     0.040 C 
BRANCH   8   9
HETATM    9  C3  UNL     1      23.109   0.043  54.139  1.00  0.00     0.278 C 
BRANCH   9  10
HETATM   10  N1  UNL     1      21.807  -0.507  53.868  1.00  0.00     0.080 N 
HETATM   11  C1  UNL     1      20.737   0.437  54.062  1.00  0.00     0.309 C 
HETATM   12  C2  UNL     1      21.579  -1.764  54.532  1.00  0.00     0.309 C 
ENDBRANCH   9  10
ENDBRANCH   8   9
BRANCH   8  13
HETATM   13  C5  UNL     1      25.388  -0.772  53.474  1.00  0.00     0.117 C 
BRANCH  13  14
HETATM   14  N2  UNL     1      25.736  -0.485  54.825  1.00  0.00    -0.236 NA
HETATM   15  H12 UNL     1      26.023  -1.329  55.372  1.00  0.00     0.146 HD
BRANCH  14  16
HETATM   16  N3  UNL     1      26.738   0.475  54.986  1.00  0.00    -0.274 N 
HETATM   17  C6  UNL     1      28.140   0.296  54.784  1.00  0.00     0.328 C 
HETATM   18  N4  UNL     1      29.004   1.392  54.999  1.00  0.00    -0.351 N 
HETATM   19  O1  UNL     1      28.687  -0.767  54.425  1.00  0.00    -0.246 OA
HETATM   20  H14 UNL     1      28.863   2.391  55.206  1.00  0.00     0.160 HD
HETATM   21  H15 UNL     1      30.035   1.345  54.977  1.00  0.00     0.160 HD
HETATM   22  H13 UNL     1      26.417   1.428  55.290  1.00  0.00     0.185 HD
ENDBRANCH  14  16
ENDBRANCH  13  14
ENDBRANCH   8  13
ENDBRANCH   1   8
BRANCH   5  23
HETATM   23  O2  UNL     1      24.206   5.449  50.978  1.00  0.00    -0.347 OA
BRANCH  23  24
HETATM   24  C12 UNL     1      24.285   5.748  49.596  1.00  0.00     0.214 C 
BRANCH  24  25
HETATM   25  C13 UNL     1      25.698   5.703  49.141  1.00  0.00    -0.034 A 
HETATM   26  C14 UNL     1      26.163   6.936  48.701  1.00  0.00     0.009 A 
HETATM   27  C15 UNL     1      27.434   7.156  48.230  1.00  0.00     0.001 A 
HETATM   28  C16 UNL     1      28.299   6.062  48.199  1.00  0.00     0.000 A 
HETATM   29  C17 UNL     1      27.856   4.835  48.630  1.00  0.00     0.001 A 
HETATM   30  C18 UNL     1      26.568   4.641  49.099  1.00  0.00     0.009 A 
ENDBRANCH  24  25
ENDBRANCH  23  24
ENDBRANCH   5  23
TORSDOF 9
ENDMDL
MODEL 3
REMARK VINA RESULT:      -8.0      3.432      8.047
REMARK  9 active torsions:
REMARK  status: ('A' for Active; 'I' for Inactive)
REMARK    1  A    between atoms: N1_2  and  C3_4 
REMARK    2  A    between atoms: C3_4  and  C4_5 
REMARK    3  A    between atoms: C4_5  and  C5_6 
REMARK    4  A    between atoms: C4_5  and  C7_12 
REMARK    5  A    between atoms: C5_6  and  N2_7 
REMARK    6  A    between atoms: N2_7  and  N3_8 
REMARK       I    between atoms: N3_8  and  C6_9 
REMARK       I    between atoms: C6_9  and  N4_10 
REMARK    7  A    between atoms: C11_16  and  O2_17 
REMARK    8  A    between atoms: O2_17  and  C12_18 
REMARK    9  A    between atoms: C12_18  and  C13_19 
ROOT
HETATM    1  C7  UNL     1      25.647   1.071  52.495  1.00  0.00     0.037 C 
HETATM    2  C8  UNL     1      24.860   2.216  53.082  1.00  0.00    -0.018 C 
HETATM    3  C9  UNL     1      24.364   3.370  52.693  1.00  0.00    -0.001 C 
HETATM    4  C10 UNL     1      24.527   3.857  51.305  1.00  0.00     0.036 C 
HETATM    5  C11 UNL     1      25.478   3.529  50.410  1.00  0.00     0.068 C 
HETATM    6  C19 UNL     1      26.575   2.575  50.695  1.00  0.00     0.033 C 
HETATM    7  C20 UNL     1      26.647   1.569  51.547  1.00  0.00    -0.015 C 
ENDROOT
BRANCH   1   8
HETATM    8  C4  UNL     1      26.153   0.209  53.588  1.00  0.00     0.040 C 
BRANCH   8   9
HETATM    9  C3  UNL     1      27.321  -0.600  53.106  1.00  0.00     0.278 C 
BRANCH   9  10
HETATM   10  N1  UNL     1      28.425  -0.619  54.028  1.00  0.00     0.080 N 
HETATM   11  C1  UNL     1      28.559   0.600  54.784  1.00  0.00     0.309 C 
HETATM   12  C2  UNL     1      29.659  -1.045  53.419  1.00  0.00     0.309 C 
ENDBRANCH   9  10
ENDBRANCH   8   9
BRANCH   8  13
HETATM   13  C5  UNL     1      25.079  -0.614  54.235  1.00  0.00     0.117 C 
BRANCH  13  14
HETATM   14  N2  UNL     1      24.003  -0.964  53.371  1.00  0.00    -0.236 NA
HETATM   15  H12 UNL     1      23.861  -1.996  53.275  1.00  0.00     0.146 HD
BRANCH  14  16
HETATM   16  N3  UNL     1      22.768  -0.404  53.707  1.00  0.00    -0.274 N 
HETATM   17  C6  UNL     1      21.819  -0.915  54.644  1.00  0.00     0.328 C 
HETATM   18  N4  UNL     1      20.617  -0.205  54.851  1.00  0.00    -0.351 N 
HETATM   19  O1  UNL     1      21.958  -1.959  55.313  1.00  0.00    -0.246 OA
HETATM   20  H14 UNL     1      20.253   0.704  54.531  1.00  0.00     0.160 HD
HETATM   21  H15 UNL     1      19.826  -0.536  55.427  1.00  0.00     0.160 HD
HETATM   22  H13 UNL     1      22.517   0.488  53.213  1.00  0.00     0.185 HD
ENDBRANCH  14  16
ENDBRANCH  13  14
ENDBRANCH   8  13
ENDBRANCH   1   8
BRANCH   5  23
HETATM   23  O2  UNL     1      25.338   4.173  49.187  1.00  0.00    -0.347 OA
BRANCH  23  24
HETATM   24  C12 UNL     1      25.579   5.567  49.151  1.00  0.00     0.214 C 
BRANCH  24  25
HETATM   25  C13 UNL     1      26.936   5.841  48.613  1.00  0.00    -0.034 A 
HETATM   26  C14 UNL     1      27.054   7.115  48.070  1.00  0.00     0.009 A 
HETATM   27  C15 UNL     1      28.205   7.608  47.508  1.00  0.00     0.001 A 
HETATM   28  C16 UNL     1      29.316   6.764  47.489  1.00  0.00     0.000 A 
HETATM   29  C17 UNL     1      29.218   5.501  48.021  1.00  0.00     0.001 A 
HETATM   30  C18 UNL     1      28.043   5.028  48.581  1.00  0.00     0.009 A 
ENDBRANCH  24  25
ENDBRANCH  23  24
ENDBRANCH   5  23
TORSDOF 9
ENDMDL
MODEL 4
REMARK VINA RESULT:      -8.0      2.321      4.022
REMARK  9 active torsions:
REMARK  status: ('A' for Active; 'I' for Inactive)
REMARK    1  A    between atoms: N1_2  and  C3_4 
REMARK    2  A    between atoms: C3_4  and  C4_5 
REMARK    3  A    between atoms: C4_5  and  C5_6 
REMARK    4  A    between atoms: C4_5  and  C7_12 
REMARK    5  A    between atoms: C5_6  and  N2_7 
REMARK    6  A    between atoms: N2_7  and  N3_8 
REMARK       I    between atoms: N3_8  and  C6_9 
REMARK       I    between atoms: C6_9  and  N4_10 
REMARK    7  A    between atoms: C11_16  and  O2_17 
REMARK    8  A    between atoms: O2_17  and  C12_18 
REMARK    9  A    between atoms: C12_18  and  C13_19 
ROOT
HETATM    1  C7  UNL     1      23.304  -0.354  53.054  1.00  0.00     0.037 C 
HETATM    2  C8  UNL     1      22.765  -0.769  54.399  1.00  0.00    -0.018 C 
HETATM    3  C9  UNL     1      21.619  -1.138  54.929  1.00  0.00    -0.001 C 
HETATM    4  C10 UNL     1      20.384  -1.230  54.119  1.00  0.00     0.036 C 
HETATM    5  C11 UNL     1      20.086  -0.591  52.971  1.00  0.00     0.068 C 
HETATM    6  C19 UNL     1      21.004   0.362  52.305  1.00  0.00     0.033 C 
HETATM    7  C20 UNL     1      22.320   0.462  52.336  1.00  0.00    -0.015 C 
ENDROOT
BRANCH   1   8
HETATM    8  C4  UNL     1      24.649   0.243  53.224  1.00  0.00     0.040 C 
BRANCH   8   9
HETATM    9  C3  UNL     1      25.089   0.895  51.946  1.00  0.00     0.278 C 
BRANCH   9  10
HETATM   10  N1  UNL     1      25.484   2.269  52.109  1.00  0.00     0.080 N 
HETATM   11  C1  UNL     1      26.890   2.488  51.888  1.00  0.00     0.309 C 
HETATM   12  C2  UNL     1      25.008   2.849  53.338  1.00  0.00     0.309 C 
ENDBRANCH   9  10
ENDBRANCH   8   9
BRANCH   8  13
HETATM   13  C5  UNL     1      25.654  -0.719  53.785  1.00  0.00     0.117 C 
BRANCH  13  14
HETATM   14  N2  UNL     1      26.214  -0.325  55.034  1.00  0.00    -0.236 NA
HETATM   15  H12 UNL     1      26.646  -1.114  55.567  1.00  0.00     0.146 HD
BRANCH  14  16
HETATM   16  N3  UNL     1      27.163   0.697  54.960  1.00  0.00    -0.274 N 
HETATM   17  C6  UNL     1      28.542   0.565  54.612  1.00  0.00     0.328 C 
HETATM   18  N4  UNL     1      29.353   1.721  54.592  1.00  0.00    -0.351 N 
HETATM   19  O1  UNL     1      29.112  -0.506  54.317  1.00  0.00    -0.246 OA
HETATM   20  H14 UNL     1      29.172   2.729  54.697  1.00  0.00     0.160 HD
HETATM   21  H15 UNL     1      30.376   1.723  54.452  1.00  0.00     0.160 HD
HETATM   22  H13 UNL     1      26.819   1.663  55.187  1.00  0.00     0.185 HD
ENDBRANCH  14  16
ENDBRANCH  13  14
ENDBRANCH   8  13
ENDBRANCH   1   8
BRANCH   5  23
HETATM   23  O2  UNL     1      18.831  -0.906  52.467  1.00  0.00    -0.347 OA
BRANCH  23  24
HETATM   24  C12 UNL     1      17.766  -1.023  53.392  1.00  0.00     0.214 C 
BRANCH  24  25
HETATM   25  C13 UNL     1      16.937  -2.213  53.073  1.00  0.00    -0.034 A 
HETATM   26  C14 UNL     1      17.435  -3.384  53.633  1.00  0.00     0.009 A 
HETATM   27  C15 UNL     1      16.851  -4.617  53.484  1.00  0.00     0.001 A 
HETATM   28  C16 UNL     1      15.686  -4.681  52.719  1.00  0.00     0.000 A 
HETATM   29  C17 UNL     1      15.179  -3.534  52.158  1.00  0.00     0.001 A 
HETATM   30  C18 UNL     1      15.789  -2.302  52.324  1.00  0.00     0.009 A 
ENDBRANCH  24  25
ENDBRANCH  23  24
ENDBRANCH   5  23
TORSDOF 9
ENDMDL
MODEL 5
REMARK VINA RESULT:      -7.9      2.214      4.291
REMARK  9 active torsions:
REMARK  status: ('A' for Active; 'I' for Inactive)
REMARK    1  A    between atoms: N1_2  and  C3_4 
REMARK    2  A    between atoms: C3_4  and  C4_5 
REMARK    3  A    between atoms: C4_5  and  C5_6 
REMARK    4  A    between atoms: C4_5  and  C7_12 
REMARK    5  A    between atoms: C5_6  and  N2_7 
REMARK    6  A    between atoms: N2_7  and  N3_8 
REMARK       I    between atoms: N3_8  and  C6_9 
REMARK       I    between atoms: C6_9  and  N4_10 
REMARK    7  A    between atoms: C11_16  and  O2_17 
REMARK    8  A    between atoms: O2_17  and  C12_18 
REMARK    9  A    between atoms: C12_18  and  C13_19 
ROOT
HETATM    1  C7  UNL     1      22.831   0.877  52.438  1.00  0.00     0.037 C 
HETATM    2  C8  UNL     1      23.352   0.020  53.563  1.00  0.00    -0.018 C 
HETATM    3  C9  UNL     1      22.916  -0.935  54.355  1.00  0.00    -0.001 C 
HETATM    4  C10 UNL     1      21.532  -1.450  54.261  1.00  0.00     0.036 C 
HETATM    5  C11 UNL     1      20.440  -0.830  53.774  1.00  0.00     0.068 C 
HETATM    6  C19 UNL     1      20.458   0.547  53.226  1.00  0.00     0.033 C 
HETATM    7  C20 UNL     1      21.433   1.248  52.679  1.00  0.00    -0.015 C 
ENDROOT
BRANCH   1   8
HETATM    8  C4  UNL     1      23.771   1.996  52.194  1.00  0.00     0.040 C 
BRANCH   8   9
HETATM    9  C3  UNL     1      23.704   2.421  50.756  1.00  0.00     0.278 C 
BRANCH   9  10
HETATM   10  N1  UNL     1      23.310   3.793  50.581  1.00  0.00     0.080 N 
HETATM   11  C1  UNL     1      22.243   3.963  49.629  1.00  0.00     0.309 C 
HETATM   12  C2  UNL     1      24.425   4.672  50.343  1.00  0.00     0.309 C 
ENDBRANCH   9  10
ENDBRANCH   8   9
BRANCH   8  13
HETATM   13  C5  UNL     1      25.164   1.710  52.671  1.00  0.00     0.117 C 
BRANCH  13  14
HETATM   14  N2  UNL     1      25.766   2.773  53.403  1.00  0.00    -0.236 NA
HETATM   15  H12 UNL     1      25.093   3.300  54.005  1.00  0.00     0.146 HD
BRANCH  14  16
HETATM   16  N3  UNL     1      26.842   2.400  54.211  1.00  0.00    -0.274 N 
HETATM   17  C6  UNL     1      28.214   2.302  53.824  1.00  0.00     0.328 C 
HETATM   18  N4  UNL     1      29.166   1.905  54.787  1.00  0.00    -0.351 N 
HETATM   19  O1  UNL     1      28.659   2.541  52.683  1.00  0.00    -0.246 OA
HETATM   20  H14 UNL     1      29.134   1.728  55.802  1.00  0.00     0.160 HD
HETATM   21  H15 UNL     1      30.160   1.708  54.590  1.00  0.00     0.160 HD
HETATM   22  H13 UNL     1      26.611   2.166  55.208  1.00  0.00     0.185 HD
ENDBRANCH  14  16
ENDBRANCH  13  14
ENDBRANCH   8  13
ENDBRANCH   1   8
BRANCH   5  23
HETATM   23  O2  UNL     1      19.287  -1.602  53.833  1.00  0.00    -0.347 OA
BRANCH  23  24
HETATM   24  C12 UNL     1      18.126  -1.091  53.204  1.00  0.00     0.214 C 
BRANCH  24  25
HETATM   25  C13 UNL     1      17.116  -2.168  53.038  1.00  0.00    -0.034 A 
HETATM   26  C14 UNL     1      17.504  -3.366  53.626  1.00  0.00     0.009 A 
HETATM   27  C15 UNL     1      16.747  -4.511  53.611  1.00  0.00     0.001 A 
HETATM   28  C16 UNL     1      15.514  -4.450  52.959  1.00  0.00     0.000 A 
HETATM   29  C17 UNL     1      15.115  -3.274  52.372  1.00  0.00     0.001 A 
HETATM   30  C18 UNL     1      15.900  -2.133  52.402  1.00  0.00     0.009 A 
ENDBRANCH  24  25
ENDBRANCH  23  24
ENDBRANCH   5  23
TORSDOF 9
ENDMDL
MODEL 6
REMARK VINA RESULT:      -7.9      3.441      8.550
REMARK  9 active torsions:
REMARK  status: ('A' for Active; 'I' for Inactive)
REMARK    1  A    between atoms: N1_2  and  C3_4 
REMARK    2  A    between atoms: C3_4  and  C4_5 
REMARK    3  A    between atoms: C4_5  and  C5_6 
REMARK    4  A    between atoms: C4_5  and  C7_12 
REMARK    5  A    between atoms: C5_6  and  N2_7 
REMARK    6  A    between atoms: N2_7  and  N3_8 
REMARK       I    between atoms: N3_8  and  C6_9 
REMARK       I    between atoms: C6_9  and  N4_10 
REMARK    7  A    between atoms: C11_16  and  O2_17 
REMARK    8  A    between atoms: O2_17  and  C12_18 
REMARK    9  A    between atoms: C12_18  and  C13_19 
ROOT
HETATM    1  C7  UNL     1      24.823   1.245  51.961  1.00  0.00     0.037 C 
HETATM    2  C8  UNL     1      24.001   2.493  52.156  1.00  0.00    -0.018 C 
HETATM    3  C9  UNL     1      23.885   3.688  51.619  1.00  0.00    -0.001 C 
HETATM    4  C10 UNL     1      24.728   4.113  50.479  1.00  0.00     0.036 C 
HETATM    5  C11 UNL     1      25.937   3.646  50.113  1.00  0.00     0.068 C 
HETATM    6  C19 UNL     1      26.653   2.572  50.841  1.00  0.00     0.033 C 
HETATM    7  C20 UNL     1      26.201   1.589  51.597  1.00  0.00    -0.015 C 
ENDROOT
BRANCH   1   8
HETATM    8  C4  UNL     1      24.659   0.357  53.135  1.00  0.00     0.040 C 
BRANCH   8   9
HETATM    9  C3  UNL     1      23.252   0.438  53.649  1.00  0.00     0.278 C 
BRANCH   9  10
HETATM   10  N1  UNL     1      22.631  -0.848  53.826  1.00  0.00     0.080 N 
HETATM   11  C1  UNL     1      21.273  -0.896  53.349  1.00  0.00     0.309 C 
HETATM   12  C2  UNL     1      22.780  -1.365  55.162  1.00  0.00     0.309 C 
ENDBRANCH   9  10
ENDBRANCH   8   9
BRANCH   8  13
HETATM   13  C5  UNL     1      25.699   0.581  54.194  1.00  0.00     0.117 C 
BRANCH  13  14
HETATM   14  N2  UNL     1      26.364  -0.601  54.625  1.00  0.00    -0.236 NA
HETATM   15  H12 UNL     1      25.809  -1.474  54.473  1.00  0.00     0.146 HD
BRANCH  14  16
HETATM   16  N3  UNL     1      27.626  -0.808  54.064  1.00  0.00    -0.274 N 
HETATM   17  C6  UNL     1      28.811  -0.050  54.312  1.00  0.00     0.328 C 
HETATM   18  N4  UNL     1      30.002  -0.412  53.646  1.00  0.00    -0.351 N 
HETATM   19  O1  UNL     1      28.893   0.928  55.083  1.00  0.00    -0.246 OA
HETATM   20  H14 UNL     1      30.277  -1.195  53.036  1.00  0.00     0.160 HD
HETATM   21  H15 UNL     1      30.884   0.125  53.677  1.00  0.00     0.160 HD
HETATM   22  H13 UNL     1      27.704  -1.607  53.388  1.00  0.00     0.185 HD
ENDBRANCH  14  16
ENDBRANCH  13  14
ENDBRANCH   8  13
ENDBRANCH   1   8
BRANCH   5  23
HETATM   23  O2  UNL     1      26.456   4.267  48.984  1.00  0.00    -0.347 OA
BRANCH  23  24
HETATM   24  C12 UNL     1      26.359   5.678  48.913  1.00  0.00     0.214 C 
BRANCH  24  25
HETATM   25  C13 UNL     1      27.571   6.244  48.268  1.00  0.00    -0.034 A 
HETATM   26  C14 UNL     1      28.690   5.434  48.420  1.00  0.00     0.009 A 
HETATM   27  C15 UNL     1      29.932   5.736  47.917  1.00  0.00     0.001 A 
HETATM   28  C16 UNL     1      30.059   6.934  47.213  1.00  0.00     0.000 A 
HETATM   29  C17 UNL     1      28.963   7.747  47.053  1.00  0.00     0.001 A 
HETATM   30  C18 UNL     1      27.722   7.418  47.572  1.00  0.00     0.009 A 
ENDBRANCH  24  25
ENDBRANCH  23  24
ENDBRANCH   5  23
TORSDOF 9
ENDMDL
MODEL 7
REMARK VINA RESULT:      -7.7      3.360      7.279
REMARK  9 active torsions:
REMARK  status: ('A' for Active; 'I' for Inactive)
REMARK    1  A    between atoms: N1_2  and  C3_4 
REMARK    2  A    between atoms: C3_4  and  C4_5 
REMARK    3  A    between atoms: C4_5  and  C5_6 
REMARK    4  A    between atoms: C4_5  and  C7_12 
REMARK    5  A    between atoms: C5_6  and  N2_7 
REMARK    6  A    between atoms: N2_7  and  N3_8 
REMARK       I    between atoms: N3_8  and  C6_9 
REMARK       I    between atoms: C6_9  and  N4_10 
REMARK    7  A    between atoms: C11_16  and  O2_17 
REMARK    8  A    between atoms: O2_17  and  C12_18 
REMARK    9  A    between atoms: C12_18  and  C13_19 
ROOT
HETATM    1  C7  UNL     1      22.605   2.929  52.035  1.00  0.00     0.037 C 
HETATM    2  C8  UNL     1      21.664   1.853  52.513  1.00  0.00    -0.018 C 
HETATM    3  C9  UNL     1      21.728   0.682  53.107  1.00  0.00    -0.001 C 
HETATM    4  C10 UNL     1      23.023   0.078  53.493  1.00  0.00     0.036 C 
HETATM    5  C11 UNL     1      24.244   0.310  52.973  1.00  0.00     0.068 C 
HETATM    6  C19 UNL     1      24.491   1.263  51.865  1.00  0.00     0.033 C 
HETATM    7  C20 UNL     1      23.824   2.334  51.478  1.00  0.00    -0.015 C 
ENDROOT
BRANCH   1   8
HETATM    8  C4  UNL     1      21.875   3.868  51.153  1.00  0.00     0.040 C 
BRANCH   8   9
HETATM    9  C3  UNL     1      22.107   3.511  49.714  1.00  0.00     0.278 C 
BRANCH   9  10
HETATM   10  N1  UNL     1      21.028   2.763  49.127  1.00  0.00     0.080 N 
HETATM   11  C1  UNL     1      21.407   1.432  48.728  1.00  0.00     0.309 C 
HETATM   12  C2  UNL     1      20.338   3.489  48.092  1.00  0.00     0.309 C 
ENDBRANCH   9  10
ENDBRANCH   8   9
BRANCH   8  13
HETATM   13  C5  UNL     1      22.153   5.309  51.467  1.00  0.00     0.117 C 
BRANCH  13  14
HETATM   14  N2  UNL     1      23.168   5.514  52.444  1.00  0.00    -0.236 NA
HETATM   15  H12 UNL     1      23.662   4.636  52.725  1.00  0.00     0.146 HD
BRANCH  14  16
HETATM   16  N3  UNL     1      24.145   6.448  52.095  1.00  0.00    -0.274 N 
HETATM   17  C6  UNL     1      25.000   6.411  50.951  1.00  0.00     0.328 C 
HETATM   18  N4  UNL     1      25.934   7.453  50.765  1.00  0.00    -0.351 N 
HETATM   19  O1  UNL     1      24.997   5.519  50.079  1.00  0.00    -0.246 OA
HETATM   20  H14 UNL     1      26.119   8.348  51.240  1.00  0.00     0.160 HD
HETATM   21  H15 UNL     1      26.660   7.472  50.032  1.00  0.00     0.160 HD
HETATM   22  H13 UNL     1      24.259   7.262  52.749  1.00  0.00     0.185 HD
ENDBRANCH  14  16
ENDBRANCH  13  14
ENDBRANCH   8  13
ENDBRANCH   1   8
BRANCH   5  23
HETATM   23  O2  UNL     1      25.255  -0.429  53.572  1.00  0.00    -0.347 OA
BRANCH  23  24
HETATM   24  C12 UNL     1      26.102  -1.183  52.724  1.00  0.00     0.214 C 
BRANCH  24  25
HETATM   25  C13 UNL     1      27.526  -0.916  53.050  1.00  0.00    -0.034 A 
HETATM   26  C14 UNL     1      27.798   0.438  53.204  1.00  0.00     0.009 A 
HETATM   27  C15 UNL     1      29.039   0.944  53.507  1.00  0.00     0.001 A 
HETATM   28  C16 UNL     1      30.078   0.026  53.666  1.00  0.00     0.000 A 
HETATM   29  C17 UNL     1      29.827  -1.316  53.517  1.00  0.00     0.001 A 
HETATM   30  C18 UNL     1      28.565  -1.799  53.211  1.00  0.00     0.009 A 
ENDBRANCH  24  25
ENDBRANCH  23  24
ENDBRANCH   5  23
TORSDOF 9
ENDMDL
MODEL 8
REMARK VINA RESULT:      -7.6      3.777      8.683
REMARK  9 active torsions:
REMARK  status: ('A' for Active; 'I' for Inactive)
REMARK    1  A    between atoms: N1_2  and  C3_4 
REMARK    2  A    between atoms: C3_4  and  C4_5 
REMARK    3  A    between atoms: C4_5  and  C5_6 
REMARK    4  A    between atoms: C4_5  and  C7_12 
REMARK    5  A    between atoms: C5_6  and  N2_7 
REMARK    6  A    between atoms: N2_7  and  N3_8 
REMARK       I    between atoms: N3_8  and  C6_9 
REMARK       I    between atoms: C6_9  and  N4_10 
REMARK    7  A    between atoms: C11_16  and  O2_17 
REMARK    8  A    between atoms: O2_17  and  C12_18 
REMARK    9  A    between atoms: C12_18  and  C13_19 
ROOT
HETATM    1  C7  UNL     1      23.141   1.708  51.028  1.00  0.00     0.037 C 
HETATM    2  C8  UNL     1      23.620   2.701  50.000  1.00  0.00    -0.018 C 
HETATM    3  C9  UNL     1      24.743   3.288  49.648  1.00  0.00    -0.001 C 
HETATM    4  C10 UNL     1      26.015   3.019  50.355  1.00  0.00     0.036 C 
HETATM    5  C11 UNL     1      26.194   2.576  51.615  1.00  0.00     0.068 C 
HETATM    6  C19 UNL     1      25.077   2.274  52.541  1.00  0.00     0.033 C 
HETATM    7  C20 UNL     1      23.829   1.919  52.305  1.00  0.00    -0.015 C 
ENDROOT
BRANCH   1   8
HETATM    8  C4  UNL     1      21.660   1.720  51.073  1.00  0.00     0.040 C 
BRANCH   8   9
HETATM    9  C3  UNL     1      21.173   2.998  51.688  1.00  0.00     0.278 C 
BRANCH   9  10
HETATM   10  N1  UNL     1      20.204   3.691  50.881  1.00  0.00     0.080 N 
HETATM   11  C1  UNL     1      20.611   5.025  50.521  1.00  0.00     0.309 C 
HETATM   12  C2  UNL     1      18.873   3.634  51.429  1.00  0.00     0.309 C 
ENDBRANCH   9  10
ENDBRANCH   8   9
BRANCH   8  13
HETATM   13  C5  UNL     1      21.080   0.489  51.705  1.00  0.00     0.117 C 
BRANCH  13  14
HETATM   14  N2  UNL     1      20.454   0.714  52.964  1.00  0.00    -0.236 NA
HETATM   15  H12 UNL     1      19.729   1.467  52.944  1.00  0.00     0.146 HD
BRANCH  14  16
HETATM   16  N3  UNL     1      19.867  -0.414  53.542  1.00  0.00    -0.274 N 
HETATM   17  C6  UNL     1      18.596  -0.981  53.220  1.00  0.00     0.328 C 
HETATM   18  N4  UNL     1      18.167  -2.132  53.917  1.00  0.00    -0.351 N 
HETATM   19  O1  UNL     1      17.809  -0.542  52.356  1.00  0.00    -0.246 OA
HETATM   20  H14 UNL     1      18.606  -2.765  54.600  1.00  0.00     0.160 HD
HETATM   21  H15 UNL     1      17.232  -2.560  53.832  1.00  0.00     0.160 HD
HETATM   22  H13 UNL     1      20.424  -0.891  54.294  1.00  0.00     0.185 HD
ENDBRANCH  14  16
ENDBRANCH  13  14
ENDBRANCH   8  13
ENDBRANCH   1   8
BRANCH   5  23
HETATM   23  O2  UNL     1      27.529   2.429  51.970  1.00  0.00    -0.347 OA
BRANCH  23  24
HETATM   24  C12 UNL     1      27.811   2.052  53.305  1.00  0.00     0.214 C 
BRANCH  24  25
HETATM   25  C13 UNL     1      28.404   0.690  53.339  1.00  0.00    -0.034 A 
HETATM   26  C14 UNL     1      27.506  -0.298  52.954  1.00  0.00     0.009 A 
HETATM   27  C15 UNL     1      27.810  -1.636  52.904  1.00  0.00     0.001 A 
HETATM   28  C16 UNL     1      29.105  -2.008  53.264  1.00  0.00     0.000 A 
HETATM   29  C17 UNL     1      30.006  -1.044  53.647  1.00  0.00     0.001 A 
HETATM   30  C18 UNL     1      29.672   0.299  53.691  1.00  0.00     0.009 A 
ENDBRANCH  24  25
ENDBRANCH  23  24
ENDBRANCH   5  23
TORSDOF 9
ENDMDL
MODEL 9
REMARK VINA RESULT:      -7.5      5.609      8.716
REMARK  9 active torsions:
REMARK  status: ('A' for Active; 'I' for Inactive)
REMARK    1  A    between atoms: N1_2  and  C3_4 
REMARK    2  A    between atoms: C3_4  and  C4_5 
REMARK    3  A    between atoms: C4_5  and  C5_6 
REMARK    4  A    between atoms: C4_5  and  C7_12 
REMARK    5  A    between atoms: C5_6  and  N2_7 
REMARK    6  A    between atoms: N2_7  and  N3_8 
REMARK       I    between atoms: N3_8  and  C6_9 
REMARK       I    between atoms: C6_9  and  N4_10 
REMARK    7  A    between atoms: C11_16  and  O2_17 
REMARK    8  A    between atoms: O2_17  and  C12_18 
REMARK    9  A    between atoms: C12_18  and  C13_19 
ROOT
HETATM    1  C7  UNL     1      25.914   6.663  49.201  1.00  0.00     0.037 C 
HETATM    2  C8  UNL     1      24.597   5.929  49.194  1.00  0.00    -0.018 C 
HETATM    3  C9  UNL     1      24.136   4.732  49.486  1.00  0.00    -0.001 C 
HETATM    4  C10 UNL     1      25.026   3.658  49.980  1.00  0.00     0.036 C 
HETATM    5  C11 UNL     1      26.354   3.522  49.802  1.00  0.00     0.068 C 
HETATM    6  C19 UNL     1      27.178   4.487  49.036  1.00  0.00     0.033 C 
HETATM    7  C20 UNL     1      27.001   5.771  48.788  1.00  0.00    -0.015 C 
ENDROOT
BRANCH   1   8
HETATM    8  C4  UNL     1      25.779   7.926  48.438  1.00  0.00     0.040 C 
BRANCH   8   9
HETATM    9  C3  UNL     1      26.437   7.791  47.097  1.00  0.00     0.278 C 
BRANCH   9  10
HETATM   10  N1  UNL     1      26.573   9.040  46.396  1.00  0.00     0.080 N 
HETATM   11  C1  UNL     1      25.446   9.348  45.554  1.00  0.00     0.309 C 
HETATM   12  C2  UNL     1      27.837   9.170  45.718  1.00  0.00     0.309 C 
ENDBRANCH   9  10
ENDBRANCH   8   9
BRANCH   8  13
HETATM   13  C5  UNL     1      26.228   9.131  49.210  1.00  0.00     0.117 C 
BRANCH  13  14
HETATM   14  N2  UNL     1      26.975   8.834  50.385  1.00  0.00    -0.236 NA
HETATM   15  H12 UNL     1      27.147   7.812  50.525  1.00  0.00     0.146 HD
BRANCH  14  16
HETATM   16  N3  UNL     1      28.210   9.479  50.480  1.00  0.00    -0.274 N 
HETATM   17  C6  UNL     1      29.363   9.251  49.668  1.00  0.00     0.328 C 
HETATM   18  N4  UNL     1      30.530  10.006  49.916  1.00  0.00    -0.351 N 
HETATM   19  O1  UNL     1      29.437   8.424  48.737  1.00  0.00    -0.246 OA
HETATM   20  H14 UNL     1      30.757  10.800  50.532  1.00  0.00     0.160 HD
HETATM   21  H15 UNL     1      31.442   9.853  49.458  1.00  0.00     0.160 HD
HETATM   22  H13 UNL     1      28.292  10.209  51.231  1.00  0.00     0.185 HD
ENDBRANCH  14  16
ENDBRANCH  13  14
ENDBRANCH   8  13
ENDBRANCH   1   8
BRANCH   5  23
HETATM   23  O2  UNL     1      26.885   2.389  50.404  1.00  0.00    -0.347 OA
BRANCH  23  24
HETATM   24  C12 UNL     1      26.170   1.833  51.492  1.00  0.00     0.214 C 
BRANCH  24  25
HETATM   25  C13 UNL     1      27.054   0.939  52.284  1.00  0.00    -0.034 A 
HETATM   26  C14 UNL     1      28.037   1.631  52.980  1.00  0.00     0.009 A 
HETATM   27  C15 UNL     1      28.978   1.033  53.782  1.00  0.00     0.001 A 
HETATM   28  C16 UNL     1      28.927  -0.357  53.893  1.00  0.00     0.000 A 
HETATM   29  C17 UNL     1      27.962  -1.058  53.212  1.00  0.00     0.001 A 
HETATM   30  C18 UNL     1      27.025  -0.429  52.409  1.00  0.00     0.009 A 
ENDBRANCH  24  25
ENDBRANCH  23  24
ENDBRANCH   5  23
TORSDOF 9
ENDMDL
