MODEL 1
REMARK VINA RESULT:      -8.0      0.000      0.000
REMARK  4 active torsions:
REMARK  status: ('A' for Active; 'I' for Inactive)
REMARK    1  A    between atoms: C2_2  and  C3_3 
REMARK    2  A    between atoms: C7_7  and  N1_8 
REMARK    3  A    between atoms: C13_15  and  N3_16 
REMARK    4  A    between atoms: N3_16  and  N4_17 
REMARK       I    between atoms: N4_17  and  C14_18 
ROOT
HETATM    1  C3  UNL     1      21.197   1.498  50.758  1.00  0.00     0.130 C 
HETATM    2  C4  UNL     1      21.921   1.300  52.038  1.00  0.00     0.083 C 
HETATM    3  C5  UNL     1      21.845   0.128  52.872  1.00  0.00    -0.008 C 
HETATM    4  C6  UNL     1      23.022  -0.406  53.254  1.00  0.00    -0.004 C 
HETATM    5  C7  UNL     1      24.017   0.501  53.233  1.00  0.00     0.035 C 
HETATM    6  C10 UNL     1      23.909   1.918  53.395  1.00  0.00     0.174 C 
HETATM    7  N2  UNL     1      24.205   3.013  52.598  1.00  0.00    -0.406 N 
HETATM    8  C11 UNL     1      24.223   4.234  53.326  1.00  0.00     0.144 C 
HETATM    9  C12 UNL     1      24.967   2.967  51.457  1.00  0.00     0.176 C 
HETATM   10  C13 UNL     1      25.323   4.171  50.731  1.00  0.00     0.054 C 
HETATM   11  C16 UNL     1      24.519   5.220  50.654  1.00  0.00    -0.001 C 
HETATM   12  C17 UNL     1      23.294   4.806  50.647  1.00  0.00     0.007 C 
HETATM   13  C18 UNL     1      23.013   3.518  50.052  1.00  0.00     0.157 C 
HETATM   14  N5  UNL     1      21.800   2.885  50.415  1.00  0.00    -0.317 N 
HETATM   15  C19 UNL     1      20.536   3.543  50.523  1.00  0.00     0.241 C 
HETATM   16  N6  UNL     1      20.145   3.002  51.711  1.00  0.00    -0.136 NA
HETATM   17  N7  UNL     1      19.781   1.963  50.884  1.00  0.00    -0.270 N 
HETATM   18  C20 UNL     1      18.344   2.375  50.965  1.00  0.00     0.177 C 
HETATM   19  C21 UNL     1      18.374   3.977  50.959  1.00  0.00     0.158 C 
HETATM   20  N8  UNL     1      19.398   4.224  49.975  1.00  0.00    -0.245 NA
ENDROOT
BRANCH  10  21
HETATM   21  N3  UNL     1      26.555   4.408  50.005  1.00  0.00    -0.300 N 
HETATM   22  H22 UNL     1      27.339   3.725  50.010  1.00  0.00     0.186 HD
BRANCH  21  23
HETATM   23  N4  UNL     1      26.716   5.586  49.267  1.00  0.00    -0.270 N 
HETATM   24  C14 UNL     1      27.817   5.855  48.461  1.00  0.00     0.232 C 
HETATM   25  C15 UNL     1      27.945   7.113  47.699  1.00  0.00     0.119 C 
HETATM   26  O1  UNL     1      28.744   5.008  48.375  1.00  0.00    -0.272 OA
HETATM   27  H23 UNL     1      25.971   6.300  49.291  1.00  0.00     0.190 HD
ENDBRANCH  21  23
ENDBRANCH  10  21
BRANCH   5  28
HETATM   28  N1  UNL     1      25.308  -0.081  53.065  1.00  0.00    -0.391 N 
HETATM   29  C8  UNL     1      25.626  -0.514  54.433  1.00  0.00     0.148 C 
HETATM   30  C9  UNL     1      26.331  -0.360  52.102  1.00  0.00     0.148 C 
ENDBRANCH   5  28
BRANCH   1  31
HETATM   31  C2  UNL     1      21.336   0.536  49.678  1.00  0.00     0.051 C 
HETATM   32  C1  UNL     1      21.574   1.284  48.362  1.00  0.00     0.009 C 
ENDBRANCH   1  31
TORSDOF 4
ENDMDL
MODEL 2
REMARK VINA RESULT:      -8.0      2.580      5.130
REMARK  4 active torsions:
REMARK  status: ('A' for Active; 'I' for Inactive)
REMARK    1  A    between atoms: C2_2  and  C3_3 
REMARK    2  A    between atoms: C7_7  and  N1_8 
REMARK    3  A    between atoms: C13_15  and  N3_16 
REMARK    4  A    between atoms: N3_16  and  N4_17 
REMARK       I    between atoms: N4_17  and  C14_18 
ROOT
HETATM    1  C3  UNL     1      22.995   3.775  48.956  1.00  0.00     0.130 C 
HETATM    2  C4  UNL     1      22.307   3.590  50.258  1.00  0.00     0.083 C 
HETATM    3  C5  UNL     1      20.881   3.577  50.458  1.00  0.00    -0.008 C 
HETATM    4  C6  UNL     1      20.388   2.539  51.161  1.00  0.00    -0.004 C 
HETATM    5  C7  UNL     1      21.317   1.993  51.969  1.00  0.00     0.035 C 
HETATM    6  C10 UNL     1      22.457   2.636  52.547  1.00  0.00     0.174 C 
HETATM    7  N2  UNL     1      23.827   2.447  52.460  1.00  0.00    -0.406 N 
HETATM    8  C11 UNL     1      24.543   3.136  53.476  1.00  0.00     0.144 C 
HETATM    9  C12 UNL     1      24.432   1.334  51.929  1.00  0.00     0.176 C 
HETATM   10  C13 UNL     1      25.871   1.160  51.968  1.00  0.00     0.054 C 
HETATM   11  C16 UNL     1      26.715   2.177  51.874  1.00  0.00    -0.001 C 
HETATM   12  C17 UNL     1      26.197   3.078  51.104  1.00  0.00     0.007 C 
HETATM   13  C18 UNL     1      25.325   2.642  50.036  1.00  0.00     0.157 C 
HETATM   14  N5  UNL     1      24.444   3.601  49.484  1.00  0.00    -0.317 N 
HETATM   15  C19 UNL     1      24.798   4.949  49.166  1.00  0.00     0.241 C 
HETATM   16  N6  UNL     1      23.710   5.562  49.711  1.00  0.00    -0.136 NA
HETATM   17  N7  UNL     1      23.154   5.192  48.507  1.00  0.00    -0.270 N 
HETATM   18  C20 UNL     1      23.285   6.592  47.993  1.00  0.00     0.177 C 
HETATM   19  C21 UNL     1      24.683   7.115  48.574  1.00  0.00     0.158 C 
HETATM   20  N8  UNL     1      25.502   5.940  48.404  1.00  0.00    -0.245 NA
ENDROOT
BRANCH  10  21
HETATM   21  N3  UNL     1      26.585  -0.094  52.102  1.00  0.00    -0.300 N 
HETATM   22  H22 UNL     1      26.190  -0.993  51.761  1.00  0.00     0.186 HD
BRANCH  21  23
HETATM   23  N4  UNL     1      27.847  -0.120  52.707  1.00  0.00    -0.270 N 
HETATM   24  C14 UNL     1      28.458  -1.274  53.183  1.00  0.00     0.232 C 
HETATM   25  C15 UNL     1      29.793  -1.254  53.815  1.00  0.00     0.119 C 
HETATM   26  O1  UNL     1      27.862  -2.378  53.083  1.00  0.00    -0.272 OA
HETATM   27  H23 UNL     1      28.382   0.760  52.790  1.00  0.00     0.190 HD
ENDBRANCH  21  23
ENDBRANCH  10  21
BRANCH   5  28
HETATM   28  N1  UNL     1      21.061   0.625  52.282  1.00  0.00    -0.391 N 
HETATM   29  C8  UNL     1      19.902   0.330  51.427  1.00  0.00     0.148 C 
HETATM   30  C9  UNL     1      21.501  -0.476  53.085  1.00  0.00     0.148 C 
ENDBRANCH   5  28
BRANCH   1  31
HETATM   31  C2  UNL     1      22.693   2.902  47.834  1.00  0.00     0.051 C 
HETATM   32  C1  UNL     1      21.742   3.625  46.874  1.00  0.00     0.009 C 
ENDBRANCH   1  31
TORSDOF 4
ENDMDL
MODEL 3
REMARK VINA RESULT:      -7.8      2.631      5.682
REMARK  4 active torsions:
REMARK  status: ('A' for Active; 'I' for Inactive)
REMARK    1  A    between atoms: C2_2  and  C3_3 
REMARK    2  A    between atoms: C7_7  and  N1_8 
REMARK    3  A    between atoms: C13_15  and  N3_16 
REMARK    4  A    between atoms: N3_16  and  N4_17 
REMARK       I    between atoms: N4_17  and  C14_18 
ROOT
HETATM    1  C3  UNL     1      22.572   1.504  52.359  1.00  0.00     0.130 C 
HETATM    2  C4  UNL     1      22.247   1.560  50.912  1.00  0.00     0.083 C 
HETATM    3  C5  UNL     1      21.520   0.557  50.176  1.00  0.00    -0.008 C 
HETATM    4  C6  UNL     1      20.494   0.999  49.424  1.00  0.00    -0.004 C 
HETATM    5  C7  UNL     1      20.638   2.295  49.087  1.00  0.00     0.035 C 
HETATM    6  C10 UNL     1      21.857   3.028  48.946  1.00  0.00     0.174 C 
HETATM    7  N2  UNL     1      22.402   4.139  49.573  1.00  0.00    -0.406 N 
HETATM    8  C11 UNL     1      23.503   4.688  48.861  1.00  0.00     0.144 C 
HETATM    9  C12 UNL     1      21.705   4.999  50.385  1.00  0.00     0.176 C 
HETATM   10  C13 UNL     1      22.316   6.200  50.922  1.00  0.00     0.054 C 
HETATM   11  C16 UNL     1      23.597   6.261  51.252  1.00  0.00    -0.001 C 
HETATM   12  C17 UNL     1      23.971   5.101  51.685  1.00  0.00     0.007 C 
HETATM   13  C18 UNL     1      22.994   4.279  52.363  1.00  0.00     0.157 C 
HETATM   14  N5  UNL     1      23.259   2.892  52.450  1.00  0.00    -0.317 N 
HETATM   15  C19 UNL     1      24.531   2.321  52.769  1.00  0.00     0.241 C 
HETATM   16  N6  UNL     1      24.556   1.367  51.797  1.00  0.00    -0.136 NA
HETATM   17  N7  UNL     1      23.780   0.700  52.718  1.00  0.00    -0.270 N 
HETATM   18  C20 UNL     1      24.949  -0.141  53.126  1.00  0.00     0.177 C 
HETATM   19  C21 UNL     1      26.204   0.855  53.092  1.00  0.00     0.158 C 
HETATM   20  N8  UNL     1      25.619   2.044  53.661  1.00  0.00    -0.245 NA
ENDROOT
BRANCH  10  21
HETATM   21  N3  UNL     1      21.654   7.463  51.178  1.00  0.00    -0.300 N 
HETATM   22  H22 UNL     1      21.754   7.965  52.082  1.00  0.00     0.186 HD
BRANCH  21  23
HETATM   23  N4  UNL     1      20.849   8.044  50.190  1.00  0.00    -0.270 N 
HETATM   24  C14 UNL     1      21.330   8.879  49.188  1.00  0.00     0.232 C 
HETATM   25  C15 UNL     1      20.443   9.469  48.165  1.00  0.00     0.119 C 
HETATM   26  O1  UNL     1      22.557   9.151  49.143  1.00  0.00    -0.272 OA
HETATM   27  H23 UNL     1      19.839   7.831  50.176  1.00  0.00     0.190 HD
ENDBRANCH  21  23
ENDBRANCH  10  21
BRANCH   5  28
HETATM   28  N1  UNL     1      19.400   2.948  48.812  1.00  0.00    -0.391 N 
HETATM   29  C8  UNL     1      19.501   3.195  47.367  1.00  0.00     0.148 C 
HETATM   30  C9  UNL     1      18.188   3.421  49.411  1.00  0.00     0.148 C 
ENDBRANCH   5  28
BRANCH   1  31
HETATM   31  C2  UNL     1      21.517   1.328  53.343  1.00  0.00     0.051 C 
HETATM   32  C1  UNL     1      21.474  -0.140  53.781  1.00  0.00     0.009 C 
ENDBRANCH   1  31
TORSDOF 4
ENDMDL
MODEL 4
REMARK VINA RESULT:      -7.8      3.022      7.365
REMARK  4 active torsions:
REMARK  status: ('A' for Active; 'I' for Inactive)
REMARK    1  A    between atoms: C2_2  and  C3_3 
REMARK    2  A    between atoms: C7_7  and  N1_8 
REMARK    3  A    between atoms: C13_15  and  N3_16 
REMARK    4  A    between atoms: N3_16  and  N4_17 
REMARK       I    between atoms: N4_17  and  C14_18 
ROOT
HETATM    1  C3  UNL     1      24.796   3.202  50.710  1.00  0.00     0.130 C 
HETATM    2  C4  UNL     1      23.906   4.271  51.228  1.00  0.00     0.083 C 
HETATM    3  C5  UNL     1      24.227   5.674  51.287  1.00  0.00    -0.008 C 
HETATM    4  C6  UNL     1      23.310   6.515  50.770  1.00  0.00    -0.004 C 
HETATM    5  C7  UNL     1      22.078   5.973  50.762  1.00  0.00     0.035 C 
HETATM    6  C10 UNL     1      21.560   4.972  51.644  1.00  0.00     0.174 C 
HETATM    7  N2  UNL     1      21.067   3.688  51.474  1.00  0.00    -0.406 N 
HETATM    8  C11 UNL     1      20.369   3.211  52.616  1.00  0.00     0.144 C 
HETATM    9  C12 UNL     1      20.715   3.138  50.265  1.00  0.00     0.176 C 
HETATM   10  C13 UNL     1      20.107   1.825  50.176  1.00  0.00     0.054 C 
HETATM   11  C16 UNL     1      20.410   0.841  51.009  1.00  0.00    -0.001 C 
HETATM   12  C17 UNL     1      21.654   0.951  51.348  1.00  0.00     0.007 C 
HETATM   13  C18 UNL     1      22.574   1.518  50.388  1.00  0.00     0.157 C 
HETATM   14  N5  UNL     1      23.798   2.027  50.882  1.00  0.00    -0.317 N 
HETATM   15  C19 UNL     1      24.614   1.382  51.863  1.00  0.00     0.241 C 
HETATM   16  N6  UNL     1      24.864   2.472  52.643  1.00  0.00    -0.136 NA
HETATM   17  N7  UNL     1      25.818   2.690  51.674  1.00  0.00    -0.270 N 
HETATM   18  C20 UNL     1      26.892   2.188  52.588  1.00  0.00     0.177 C 
HETATM   19  C21 UNL     1      26.222   0.965  53.377  1.00  0.00     0.158 C 
HETATM   20  N8  UNL     1      25.481   0.332  52.314  1.00  0.00    -0.245 NA
ENDROOT
BRANCH  10  21
HETATM   21  N3  UNL     1      19.120   1.396  49.205  1.00  0.00    -0.300 N 
HETATM   22  H22 UNL     1      19.099   1.772  48.237  1.00  0.00     0.186 HD
BRANCH  21  23
HETATM   23  N4  UNL     1      18.156   0.444  49.560  1.00  0.00    -0.270 N 
HETATM   24  C14 UNL     1      16.865   0.760  49.966  1.00  0.00     0.232 C 
HETATM   25  C15 UNL     1      15.880  -0.277  50.332  1.00  0.00     0.119 C 
HETATM   26  O1  UNL     1      16.513   1.967  50.032  1.00  0.00    -0.272 OA
HETATM   27  H23 UNL     1      18.394  -0.558  49.500  1.00  0.00     0.190 HD
ENDBRANCH  21  23
ENDBRANCH  10  21
BRANCH   5  28
HETATM   28  N1  UNL     1      21.222   6.527  49.764  1.00  0.00    -0.391 N 
HETATM   29  C8  UNL     1      21.953   6.211  48.528  1.00  0.00     0.148 C 
HETATM   30  C9  UNL     1      19.996   7.238  49.563  1.00  0.00     0.148 C 
ENDBRANCH   5  28
BRANCH   1  31
HETATM   31  C2  UNL     1      25.344   3.288  49.366  1.00  0.00     0.051 C 
HETATM   32  C1  UNL     1      26.738   3.921  49.429  1.00  0.00     0.009 C 
ENDBRANCH   1  31
TORSDOF 4
ENDMDL
MODEL 5
REMARK VINA RESULT:      -7.8      2.500      5.747
REMARK  4 active torsions:
REMARK  status: ('A' for Active; 'I' for Inactive)
REMARK    1  A    between atoms: C2_2  and  C3_3 
REMARK    2  A    between atoms: C7_7  and  N1_8 
REMARK    3  A    between atoms: C13_15  and  N3_16 
REMARK    4  A    between atoms: N3_16  and  N4_17 
REMARK       I    between atoms: N4_17  and  C14_18 
ROOT
HETATM    1  C3  UNL     1      23.676   1.430  52.251  1.00  0.00     0.130 C 
HETATM    2  C4  UNL     1      23.091   2.758  52.563  1.00  0.00     0.083 C 
HETATM    3  C5  UNL     1      23.784   3.853  53.190  1.00  0.00    -0.008 C 
HETATM    4  C6  UNL     1      23.691   5.047  52.572  1.00  0.00    -0.004 C 
HETATM    5  C7  UNL     1      22.590   5.130  51.801  1.00  0.00     0.035 C 
HETATM    6  C10 UNL     1      21.354   4.432  51.969  1.00  0.00     0.174 C 
HETATM    7  N2  UNL     1      20.636   3.526  51.202  1.00  0.00    -0.406 N 
HETATM    8  C11 UNL     1      19.299   3.360  51.654  1.00  0.00     0.144 C 
HETATM    9  C12 UNL     1      20.874   3.264  49.875  1.00  0.00     0.176 C 
HETATM   10  C13 UNL     1      20.015   2.381  49.110  1.00  0.00     0.054 C 
HETATM   11  C16 UNL     1      19.422   1.324  49.644  1.00  0.00    -0.001 C 
HETATM   12  C17 UNL     1      20.191   0.835  50.561  1.00  0.00     0.007 C 
HETATM   13  C18 UNL     1      21.621   0.970  50.395  1.00  0.00     0.157 C 
HETATM   14  N5  UNL     1      22.426   0.835  51.551  1.00  0.00    -0.317 N 
HETATM   15  C19 UNL     1      22.248  -0.164  52.558  1.00  0.00     0.241 C 
HETATM   16  N6  UNL     1      22.368   0.647  53.647  1.00  0.00    -0.136 NA
HETATM   17  N7  UNL     1      23.706   0.456  53.385  1.00  0.00    -0.270 N 
HETATM   18  C20 UNL     1      23.808  -0.530  54.507  1.00  0.00     0.177 C 
HETATM   19  C21 UNL     1      22.433  -1.352  54.458  1.00  0.00     0.158 C 
HETATM   20  N8  UNL     1      22.269  -1.517  53.035  1.00  0.00    -0.245 NA
ENDROOT
BRANCH  10  21
HETATM   21  N3  UNL     1      19.687   2.504  47.703  1.00  0.00    -0.300 N 
HETATM   22  H22 UNL     1      19.097   1.805  47.211  1.00  0.00     0.186 HD
BRANCH  21  23
HETATM   23  N4  UNL     1      20.170   3.591  46.965  1.00  0.00    -0.270 N 
HETATM   24  C14 UNL     1      21.458   3.670  46.449  1.00  0.00     0.232 C 
HETATM   25  C15 UNL     1      21.925   4.837  45.675  1.00  0.00     0.119 C 
HETATM   26  O1  UNL     1      22.264   2.724  46.647  1.00  0.00    -0.272 OA
HETATM   27  H23 UNL     1      19.536   4.380  46.760  1.00  0.00     0.190 HD
ENDBRANCH  21  23
ENDBRANCH  10  21
BRANCH   5  28
HETATM   28  N1  UNL     1      22.718   6.067  50.733  1.00  0.00    -0.391 N 
HETATM   29  C8  UNL     1      23.842   5.507  49.969  1.00  0.00     0.148 C 
HETATM   30  C9  UNL     1      22.177   7.278  50.191  1.00  0.00     0.148 C 
ENDBRANCH   5  28
BRANCH   1  31
HETATM   31  C2  UNL     1      24.880   1.328  51.443  1.00  0.00     0.051 C 
HETATM   32  C1  UNL     1      26.082   1.070  52.359  1.00  0.00     0.009 C 
ENDBRANCH   1  31
TORSDOF 4
ENDMDL
MODEL 6
REMARK VINA RESULT:      -7.6      2.806      4.951
REMARK  4 active torsions:
REMARK  status: ('A' for Active; 'I' for Inactive)
REMARK    1  A    between atoms: C2_2  and  C3_3 
REMARK    2  A    between atoms: C7_7  and  N1_8 
REMARK    3  A    between atoms: C13_15  and  N3_16 
REMARK    4  A    between atoms: N3_16  and  N4_17 
REMARK       I    between atoms: N4_17  and  C14_18 
ROOT
HETATM    1  C3  UNL     1      19.552   2.558  51.201  1.00  0.00     0.130 C 
HETATM    2  C4  UNL     1      20.300   2.563  49.920  1.00  0.00     0.083 C 
HETATM    3  C5  UNL     1      19.722   2.399  48.611  1.00  0.00    -0.008 C 
HETATM    4  C6  UNL     1      20.070   3.317  47.688  1.00  0.00    -0.004 C 
HETATM    5  C7  UNL     1      21.249   3.900  47.978  1.00  0.00     0.035 C 
HETATM    6  C10 UNL     1      22.334   3.346  48.727  1.00  0.00     0.174 C 
HETATM    7  N2  UNL     1      22.981   3.694  49.904  1.00  0.00    -0.406 N 
HETATM    8  C11 UNL     1      24.216   3.013  50.074  1.00  0.00     0.144 C 
HETATM    9  C12 UNL     1      22.854   4.905  50.537  1.00  0.00     0.176 C 
HETATM   10  C13 UNL     1      23.644   5.237  51.708  1.00  0.00     0.054 C 
HETATM   11  C16 UNL     1      24.000   4.332  52.607  1.00  0.00    -0.001 C 
HETATM   12  C17 UNL     1      23.066   3.441  52.693  1.00  0.00     0.007 C 
HETATM   13  C18 UNL     1      21.702   3.858  52.452  1.00  0.00     0.157 C 
HETATM   14  N5  UNL     1      20.763   2.851  52.126  1.00  0.00    -0.317 N 
HETATM   15  C19 UNL     1      20.668   1.581  52.774  1.00  0.00     0.241 C 
HETATM   16  N6  UNL     1      20.556   0.809  51.656  1.00  0.00    -0.136 NA
HETATM   17  N7  UNL     1      19.242   1.207  51.762  1.00  0.00    -0.270 N 
HETATM   18  C20 UNL     1      18.863  -0.125  52.331  1.00  0.00     0.177 C 
HETATM   19  C21 UNL     1      20.088  -0.531  53.280  1.00  0.00     0.158 C 
HETATM   20  N8  UNL     1      20.382   0.738  53.899  1.00  0.00    -0.245 NA
ENDROOT
BRANCH  10  21
HETATM   21  N3  UNL     1      24.141   6.549  52.069  1.00  0.00    -0.300 N 
HETATM   22  H22 UNL     1      23.863   7.022  52.951  1.00  0.00     0.186 HD
BRANCH  21  23
HETATM   23  N4  UNL     1      25.025   7.221  51.215  1.00  0.00    -0.270 N 
HETATM   24  C14 UNL     1      24.629   8.150  50.260  1.00  0.00     0.232 C 
HETATM   25  C15 UNL     1      25.598   8.835  49.381  1.00  0.00     0.119 C 
HETATM   26  O1  UNL     1      23.407   8.420  50.127  1.00  0.00    -0.272 OA
HETATM   27  H23 UNL     1      26.039   7.047  51.304  1.00  0.00     0.190 HD
ENDBRANCH  21  23
ENDBRANCH  10  21
BRANCH   5  28
HETATM   28  N1  UNL     1      21.390   5.201  47.413  1.00  0.00    -0.391 N 
HETATM   29  C8  UNL     1      21.905   4.896  46.070  1.00  0.00     0.148 C 
HETATM   30  C9  UNL     1      21.226   6.599  47.681  1.00  0.00     0.148 C 
ENDBRANCH   5  28
BRANCH   1  31
HETATM   31  C2  UNL     1      18.444   3.476  51.410  1.00  0.00     0.051 C 
HETATM   32  C1  UNL     1      17.123   2.733  51.182  1.00  0.00     0.009 C 
ENDBRANCH   1  31
TORSDOF 4
ENDMDL
MODEL 7
REMARK VINA RESULT:      -7.4      8.855     11.530
REMARK  4 active torsions:
REMARK  status: ('A' for Active; 'I' for Inactive)
REMARK    1  A    between atoms: C2_2  and  C3_3 
REMARK    2  A    between atoms: C7_7  and  N1_8 
REMARK    3  A    between atoms: C13_15  and  N3_16 
REMARK    4  A    between atoms: N3_16  and  N4_17 
REMARK       I    between atoms: N4_17  and  C14_18 
ROOT
HETATM    1  C3  UNL     1      30.264   8.296  47.594  1.00  0.00     0.130 C 
HETATM    2  C4  UNL     1      31.329   7.620  48.376  1.00  0.00     0.083 C 
HETATM    3  C5  UNL     1      31.119   6.598  49.370  1.00  0.00    -0.008 C 
HETATM    4  C6  UNL     1      31.863   5.483  49.242  1.00  0.00    -0.004 C 
HETATM    5  C7  UNL     1      32.997   5.711  48.552  1.00  0.00     0.035 C 
HETATM    6  C10 UNL     1      33.718   6.941  48.441  1.00  0.00     0.174 C 
HETATM    7  N2  UNL     1      34.061   7.775  47.389  1.00  0.00    -0.406 N 
HETATM    8  C11 UNL     1      35.064   8.720  47.739  1.00  0.00     0.144 C 
HETATM    9  C12 UNL     1      33.975   7.436  46.061  1.00  0.00     0.176 C 
HETATM   10  C13 UNL     1      34.451   8.323  45.017  1.00  0.00     0.054 C 
HETATM   11  C16 UNL     1      34.381   9.642  45.115  1.00  0.00    -0.001 C 
HETATM   12  C17 UNL     1      33.321   9.953  45.788  1.00  0.00     0.007 C 
HETATM   13  C18 UNL     1      32.171   9.081  45.691  1.00  0.00     0.157 C 
HETATM   14  N5  UNL     1      31.201   9.167  46.717  1.00  0.00    -0.317 N 
HETATM   15  C19 UNL     1      30.712  10.387  47.278  1.00  0.00     0.241 C 
HETATM   16  N6  UNL     1      30.785  10.030  48.592  1.00  0.00    -0.136 NA
HETATM   17  N7  UNL     1      29.582   9.434  48.284  1.00  0.00    -0.270 N 
HETATM   18  C20 UNL     1      28.836  10.543  48.958  1.00  0.00     0.177 C 
HETATM   19  C21 UNL     1      29.658  11.870  48.599  1.00  0.00     0.158 C 
HETATM   20  N8  UNL     1      29.982  11.620  47.216  1.00  0.00    -0.245 NA
ENDROOT
BRANCH  10  21
HETATM   21  N3  UNL     1      35.047   7.928  43.756  1.00  0.00    -0.300 N 
HETATM   22  H22 UNL     1      35.522   8.610  43.133  1.00  0.00     0.186 HD
BRANCH  21  23
HETATM   23  N4  UNL     1      34.993   6.591  43.345  1.00  0.00    -0.270 N 
HETATM   24  C14 UNL     1      33.933   6.037  42.637  1.00  0.00     0.232 C 
HETATM   25  C15 UNL     1      33.918   4.620  42.223  1.00  0.00     0.119 C 
HETATM   26  O1  UNL     1      32.944   6.756  42.338  1.00  0.00    -0.272 OA
HETATM   27  H23 UNL     1      35.792   5.970  43.550  1.00  0.00     0.190 HD
ENDBRANCH  21  23
ENDBRANCH  10  21
BRANCH   5  28
HETATM   28  N1  UNL     1      33.513   4.545  47.911  1.00  0.00    -0.391 N 
HETATM   29  C8  UNL     1      32.374   4.124  47.083  1.00  0.00     0.148 C 
HETATM   30  C9  UNL     1      34.666   3.701  47.808  1.00  0.00     0.148 C 
ENDBRANCH   5  28
BRANCH   1  31
HETATM   31  C2  UNL     1      29.318   7.517  46.813  1.00  0.00     0.051 C 
HETATM   32  C1  UNL     1      28.091   7.201  47.675  1.00  0.00     0.009 C 
ENDBRANCH   1  31
TORSDOF 4
ENDMDL
MODEL 8
REMARK VINA RESULT:      -7.3      3.142      6.797
REMARK  4 active torsions:
REMARK  status: ('A' for Active; 'I' for Inactive)
REMARK    1  A    between atoms: C2_2  and  C3_3 
REMARK    2  A    between atoms: C7_7  and  N1_8 
REMARK    3  A    between atoms: C13_15  and  N3_16 
REMARK    4  A    between atoms: N3_16  and  N4_17 
REMARK       I    between atoms: N4_17  and  C14_18 
ROOT
HETATM    1  C3  UNL     1      23.325   3.500  51.333  1.00  0.00     0.130 C 
HETATM    2  C4  UNL     1      22.676   2.282  50.788  1.00  0.00     0.083 C 
HETATM    3  C5  UNL     1      22.947   0.929  51.204  1.00  0.00    -0.008 C 
HETATM    4  C6  UNL     1      21.874   0.176  51.513  1.00  0.00    -0.004 C 
HETATM    5  C7  UNL     1      20.756   0.621  50.909  1.00  0.00     0.035 C 
HETATM    6  C10 UNL     1      20.658   1.346  49.680  1.00  0.00     0.174 C 
HETATM    7  N2  UNL     1      20.181   2.598  49.325  1.00  0.00    -0.406 N 
HETATM    8  C11 UNL     1      20.003   2.742  47.923  1.00  0.00     0.144 C 
HETATM    9  C12 UNL     1      19.401   3.394  50.128  1.00  0.00     0.176 C 
HETATM   10  C13 UNL     1      18.850   4.647  49.650  1.00  0.00     0.054 C 
HETATM   11  C16 UNL     1      19.488   5.423  48.787  1.00  0.00    -0.001 C 
HETATM   12  C17 UNL     1      20.760   5.319  48.996  1.00  0.00     0.007 C 
HETATM   13  C18 UNL     1      21.211   5.059  50.345  1.00  0.00     0.157 C 
HETATM   14  N5  UNL     1      22.513   4.530  50.505  1.00  0.00    -0.317 N 
HETATM   15  C19 UNL     1      23.670   4.977  49.792  1.00  0.00     0.241 C 
HETATM   16  N6  UNL     1      24.170   3.753  49.463  1.00  0.00    -0.136 NA
HETATM   17  N7  UNL     1      24.659   3.835  50.747  1.00  0.00    -0.270 N 
HETATM   18  C20 UNL     1      26.022   4.176  50.229  1.00  0.00     0.177 C 
HETATM   19  C21 UNL     1      25.756   5.130  48.969  1.00  0.00     0.158 C 
HETATM   20  N8  UNL     1      24.678   5.945  49.471  1.00  0.00    -0.245 NA
ENDROOT
BRANCH  10  21
HETATM   21  N3  UNL     1      17.576   5.228  50.026  1.00  0.00    -0.300 N 
HETATM   22  H22 UNL     1      17.458   6.249  50.176  1.00  0.00     0.186 HD
BRANCH  21  23
HETATM   23  N4  UNL     1      16.456   4.406  50.198  1.00  0.00    -0.270 N 
HETATM   24  C14 UNL     1      15.978   3.992  51.436  1.00  0.00     0.232 C 
HETATM   25  C15 UNL     1      14.791   3.123  51.570  1.00  0.00     0.119 C 
HETATM   26  O1  UNL     1      16.571   4.359  52.484  1.00  0.00    -0.272 OA
HETATM   27  H23 UNL     1      15.927   4.098  49.367  1.00  0.00     0.190 HD
ENDBRANCH  21  23
ENDBRANCH  10  21
BRANCH   5  28
HETATM   28  N1  UNL     1      19.560   0.263  51.599  1.00  0.00    -0.391 N 
HETATM   29  C8  UNL     1      19.991   0.318  53.003  1.00  0.00     0.148 C 
HETATM   30  C9  UNL     1      18.190  -0.111  51.414  1.00  0.00     0.148 C 
ENDBRANCH   5  28
BRANCH   1  31
HETATM   31  C2  UNL     1      23.299   3.772  52.760  1.00  0.00     0.051 C 
HETATM   32  C1  UNL     1      24.540   3.157  53.415  1.00  0.00     0.009 C 
ENDBRANCH   1  31
TORSDOF 4
ENDMDL
MODEL 9
REMARK VINA RESULT:      -7.2      7.841     11.291
REMARK  4 active torsions:
REMARK  status: ('A' for Active; 'I' for Inactive)
REMARK    1  A    between atoms: C2_2  and  C3_3 
REMARK    2  A    between atoms: C7_7  and  N1_8 
REMARK    3  A    between atoms: C13_15  and  N3_16 
REMARK    4  A    between atoms: N3_16  and  N4_17 
REMARK       I    between atoms: N4_17  and  C14_18 
ROOT
HETATM    1  C3  UNL     1      31.751   5.920  48.110  1.00  0.00     0.130 C 
HETATM    2  C4  UNL     1      30.371   6.164  47.623  1.00  0.00     0.083 C 
HETATM    3  C5  UNL     1      29.187   5.486  48.086  1.00  0.00    -0.008 C 
HETATM    4  C6  UNL     1      28.152   6.272  48.442  1.00  0.00    -0.004 C 
HETATM    5  C7  UNL     1      28.205   7.476  47.839  1.00  0.00     0.035 C 
HETATM    6  C10 UNL     1      28.813   7.797  46.585  1.00  0.00     0.174 C 
HETATM    7  N2  UNL     1      29.841   8.640  46.191  1.00  0.00    -0.406 N 
HETATM    8  C11 UNL     1      29.865   8.858  44.786  1.00  0.00     0.144 C 
HETATM    9  C12 UNL     1      30.390   9.624  46.975  1.00  0.00     0.176 C 
HETATM   10  C13 UNL     1      31.391  10.537  46.458  1.00  0.00     0.054 C 
HETATM   11  C16 UNL     1      32.289  10.173  45.556  1.00  0.00    -0.001 C 
HETATM   12  C17 UNL     1      32.592   8.930  45.747  1.00  0.00     0.007 C 
HETATM   13  C18 UNL     1      32.540   8.416  47.097  1.00  0.00     0.157 C 
HETATM   14  N5  UNL     1      32.446   7.014  47.256  1.00  0.00    -0.317 N 
HETATM   15  C19 UNL     1      33.197   6.055  46.508  1.00  0.00     0.241 C 
HETATM   16  N6  UNL     1      32.175   5.202  46.218  1.00  0.00    -0.136 NA
HETATM   17  N7  UNL     1      32.457   4.757  47.490  1.00  0.00    -0.270 N 
HETATM   18  C20 UNL     1      33.180   3.568  46.936  1.00  0.00     0.177 C 
HETATM   19  C21 UNL     1      33.952   4.121  45.645  1.00  0.00     0.158 C 
HETATM   20  N8  UNL     1      34.415   5.396  46.133  1.00  0.00    -0.245 NA
ENDROOT
BRANCH  10  21
HETATM   21  N3  UNL     1      31.566  11.927  46.832  1.00  0.00    -0.300 N 
HETATM   22  H22 UNL     1      32.465  12.289  47.204  1.00  0.00     0.186 HD
BRANCH  21  23
HETATM   23  N4  UNL     1      30.501  12.826  46.696  1.00  0.00    -0.270 N 
HETATM   24  C14 UNL     1      29.654  13.191  47.736  1.00  0.00     0.232 C 
HETATM   25  C15 UNL     1      28.543  14.146  47.546  1.00  0.00     0.119 C 
HETATM   26  O1  UNL     1      29.826  12.695  48.879  1.00  0.00    -0.272 OA
HETATM   27  H23 UNL     1      30.336  13.274  45.781  1.00  0.00     0.190 HD
ENDBRANCH  21  23
ENDBRANCH  10  21
BRANCH   5  28
HETATM   28  N1  UNL     1      27.525   8.500  48.563  1.00  0.00    -0.391 N 
HETATM   29  C8  UNL     1      26.469   8.890  47.617  1.00  0.00     0.148 C 
HETATM   30  C9  UNL     1      27.519   9.232  49.793  1.00  0.00     0.148 C 
ENDBRANCH   5  28
BRANCH   1  31
HETATM   31  C2  UNL     1      32.061   6.024  49.526  1.00  0.00     0.051 C 
HETATM   32  C1  UNL     1      31.813   7.462  49.993  1.00  0.00     0.009 C 
ENDBRANCH   1  31
TORSDOF 4
ENDMDL
