MODEL 1
REMARK VINA RESULT:      -6.5      0.000      0.000
REMARK  10 active torsions:
REMARK  status: ('A' for Active; 'I' for Inactive)
REMARK    1  A    between atoms: N1_3  and  C3_4 
REMARK    2  A    between atoms: C3_4  and  C4_5 
REMARK    3  A    between atoms: N3_14  and  N4_15 
REMARK    4  A    between atoms: N4_15  and  C12_16 
REMARK    5  A    between atoms: C12_16  and  C13_17 
REMARK    6  A    between atoms: C13_17  and  C14_18 
REMARK    7  A    between atoms: C14_18  and  C15_19 
REMARK    8  A    between atoms: C15_19  and  S1_20 
REMARK    9  A    between atoms: S1_20  and  C16_21 
REMARK   10  A    between atoms: C17_22  and  C18_23 
ROOT
HETATM    1  C1  UNL     1      23.601   1.725  52.874  1.00  0.00     0.068 C 
HETATM    2  C2  UNL     1      24.911   2.466  52.866  1.00  0.00     0.338 C 
HETATM    3  N1  UNL     1      26.046   1.619  52.564  1.00  0.00     0.135 N 
HETATM    4  C10 UNL     1      27.126   2.457  52.073  1.00  0.00     0.424 C 
HETATM    5  N2  UNL     1      26.771   2.875  50.729  1.00  0.00    -0.253 NA
HETATM    6  C11 UNL     1      25.575   3.407  50.638  1.00  0.00     0.219 C 
HETATM    7  N3  UNL     1      24.809   3.497  51.848  1.00  0.00    -0.274 N 
ENDROOT
BRANCH   7   8
HETATM    8  N4  UNL     1      23.955   4.547  52.099  1.00  0.00    -0.235 NA
HETATM    9  H15 UNL     1      24.424   5.421  52.396  1.00  0.00     0.146 HD
BRANCH   8  10
HETATM   10  C12 UNL     1      23.018   4.859  51.068  1.00  0.00     0.111 C 
BRANCH  10  11
HETATM   11  C13 UNL     1      21.594   4.813  51.594  1.00  0.00     0.017 C 
BRANCH  11  12
HETATM   12  C14 UNL     1      20.892   3.557  51.179  1.00  0.00     0.012 C 
BRANCH  12  13
HETATM   13  C15 UNL     1      20.072   2.952  52.296  1.00  0.00     0.078 C 
BRANCH  13  14
HETATM   14  S1  UNL     1      19.291   1.401  51.785  1.00  0.00    -0.142 SA
BRANCH  14  15
HETATM   15  C16 UNL     1      20.296   0.042  52.362  1.00  0.00     0.043 C 
HETATM   16  C17 UNL     1      20.436  -0.084  53.695  1.00  0.00     0.011 C 
BRANCH  16  17
HETATM   17  C18 UNL     1      21.205  -1.105  54.465  1.00  0.00     0.250 C 
HETATM   18  F1  UNL     1      21.955  -1.860  53.571  1.00  0.00    -0.251 F 
ENDBRANCH  16  17
ENDBRANCH  14  15
ENDBRANCH  13  14
ENDBRANCH  12  13
ENDBRANCH  11  12
ENDBRANCH  10  11
ENDBRANCH   8  10
ENDBRANCH   7   8
BRANCH   3  19
HETATM   19  C3  UNL     1      26.575   0.947  53.731  1.00  0.00     0.316 C 
BRANCH  19  20
HETATM   20  C4  UNL     1      27.333  -0.270  53.463  1.00  0.00    -0.030 A 
HETATM   21  C5  UNL     1      28.690  -0.298  53.797  1.00  0.00     0.009 A 
HETATM   22  C6  UNL     1      29.525  -1.387  53.597  1.00  0.00     0.001 A 
HETATM   23  C7  UNL     1      28.986  -2.519  53.032  1.00  0.00     0.000 A 
HETATM   24  C8  UNL     1      27.644  -2.548  52.681  1.00  0.00     0.001 A 
HETATM   25  C9  UNL     1      26.833  -1.447  52.891  1.00  0.00     0.009 A 
ENDBRANCH  19  20
ENDBRANCH   3  19
TORSDOF 10
ENDMDL
MODEL 2
REMARK VINA RESULT:      -6.5      3.027      4.692
REMARK  10 active torsions:
REMARK  status: ('A' for Active; 'I' for Inactive)
REMARK    1  A    between atoms: N1_3  and  C3_4 
REMARK    2  A    between atoms: C3_4  and  C4_5 
REMARK    3  A    between atoms: N3_14  and  N4_15 
REMARK    4  A    between atoms: N4_15  and  C12_16 
REMARK    5  A    between atoms: C12_16  and  C13_17 
REMARK    6  A    between atoms: C13_17  and  C14_18 
REMARK    7  A    between atoms: C14_18  and  C15_19 
REMARK    8  A    between atoms: C15_19  and  S1_20 
REMARK    9  A    between atoms: S1_20  and  C16_21 
REMARK   10  A    between atoms: C17_22  and  C18_23 
ROOT
HETATM    1  C1  UNL     1      23.717   2.830  52.817  1.00  0.00     0.068 C 
HETATM    2  C2  UNL     1      23.478   1.379  52.498  1.00  0.00     0.338 C 
HETATM    3  N1  UNL     1      24.421   0.489  53.141  1.00  0.00     0.135 N 
HETATM    4  C10 UNL     1      23.827  -0.835  53.212  1.00  0.00     0.424 C 
HETATM    5  N2  UNL     1      22.798  -0.791  54.235  1.00  0.00    -0.253 NA
HETATM    6  C11 UNL     1      21.941   0.190  54.083  1.00  0.00     0.219 C 
HETATM    7  N3  UNL     1      22.139   1.058  52.958  1.00  0.00    -0.274 N 
ENDROOT
BRANCH   7   8
HETATM    8  N4  UNL     1      21.086   1.619  52.270  1.00  0.00    -0.235 NA
HETATM    9  H15 UNL     1      21.221   2.613  52.014  1.00  0.00     0.146 HD
BRANCH   8  10
HETATM   10  C12 UNL     1      20.636   0.908  51.116  1.00  0.00     0.111 C 
BRANCH  10  11
HETATM   11  C13 UNL     1      20.773   1.759  49.865  1.00  0.00     0.017 C 
BRANCH  11  12
HETATM   12  C14 UNL     1      21.617   1.084  48.828  1.00  0.00     0.012 C 
BRANCH  12  13
HETATM   13  C15 UNL     1      22.337   2.068  47.934  1.00  0.00     0.078 C 
BRANCH  13  14
HETATM   14  S1  UNL     1      22.151   3.768  48.527  1.00  0.00    -0.142 SA
BRANCH  14  15
HETATM   15  C16 UNL     1      23.630   4.223  49.419  1.00  0.00     0.043 C 
HETATM   16  C17 UNL     1      24.682   3.388  49.312  1.00  0.00     0.011 C 
BRANCH  16  17
HETATM   17  C18 UNL     1      26.034   3.499  49.934  1.00  0.00     0.250 C 
HETATM   18  F1  UNL     1      26.989   3.444  48.927  1.00  0.00    -0.251 F 
ENDBRANCH  16  17
ENDBRANCH  14  15
ENDBRANCH  13  14
ENDBRANCH  12  13
ENDBRANCH  11  12
ENDBRANCH  10  11
ENDBRANCH   8  10
ENDBRANCH   7   8
BRANCH   3  19
HETATM   19  C3  UNL     1      25.646   0.324  52.389  1.00  0.00     0.316 C 
BRANCH  19  20
HETATM   20  C4  UNL     1      26.860   0.766  53.065  1.00  0.00    -0.030 A 
HETATM   21  C5  UNL     1      27.507  -0.126  53.926  1.00  0.00     0.009 A 
HETATM   22  C6  UNL     1      28.666   0.164  54.630  1.00  0.00     0.001 A 
HETATM   23  C7  UNL     1      29.221   1.412  54.474  1.00  0.00     0.000 A 
HETATM   24  C8  UNL     1      28.623   2.339  53.632  1.00  0.00     0.001 A 
HETATM   25  C9  UNL     1      27.466   2.024  52.941  1.00  0.00     0.009 A 
ENDBRANCH  19  20
ENDBRANCH   3  19
TORSDOF 10
ENDMDL
MODEL 3
REMARK VINA RESULT:      -6.5      2.732      5.528
REMARK  10 active torsions:
REMARK  status: ('A' for Active; 'I' for Inactive)
REMARK    1  A    between atoms: N1_3  and  C3_4 
REMARK    2  A    between atoms: C3_4  and  C4_5 
REMARK    3  A    between atoms: N3_14  and  N4_15 
REMARK    4  A    between atoms: N4_15  and  C12_16 
REMARK    5  A    between atoms: C12_16  and  C13_17 
REMARK    6  A    between atoms: C13_17  and  C14_18 
REMARK    7  A    between atoms: C14_18  and  C15_19 
REMARK    8  A    between atoms: C15_19  and  S1_20 
REMARK    9  A    between atoms: S1_20  and  C16_21 
REMARK   10  A    between atoms: C17_22  and  C18_23 
ROOT
HETATM    1  C1  UNL     1      23.384   3.790  52.015  1.00  0.00     0.068 C 
HETATM    2  C2  UNL     1      24.353   2.704  51.634  1.00  0.00     0.338 C 
HETATM    3  N1  UNL     1      25.590   3.211  51.079  1.00  0.00     0.135 N 
HETATM    4  C10 UNL     1      26.614   2.192  51.235  1.00  0.00     0.424 C 
HETATM    5  N2  UNL     1      26.976   2.155  52.639  1.00  0.00    -0.253 NA
HETATM    6  C11 UNL     1      25.950   2.034  53.448  1.00  0.00     0.219 C 
HETATM    7  N3  UNL     1      24.651   1.957  52.844  1.00  0.00    -0.274 N 
ENDROOT
BRANCH   7   8
HETATM    8  N4  UNL     1      23.640   1.186  53.371  1.00  0.00    -0.235 NA
HETATM    9  H15 UNL     1      22.692   1.434  53.038  1.00  0.00     0.146 HD
BRANCH   8  10
HETATM   10  C12 UNL     1      23.805  -0.229  53.265  1.00  0.00     0.111 C 
BRANCH  10  11
HETATM   11  C13 UNL     1      23.187  -0.940  54.457  1.00  0.00     0.017 C 
BRANCH  11  12
HETATM   12  C14 UNL     1      21.790  -0.467  54.718  1.00  0.00     0.012 C 
BRANCH  12  13
HETATM   13  C15 UNL     1      20.745  -1.448  54.236  1.00  0.00     0.078 C 
BRANCH  13  14
HETATM   14  S1  UNL     1      19.468  -0.630  53.248  1.00  0.00    -0.142 SA
BRANCH  14  15
HETATM   15  C16 UNL     1      20.230   0.694  52.321  1.00  0.00     0.043 C 
HETATM   16  C17 UNL     1      20.667   0.393  51.083  1.00  0.00     0.011 C 
BRANCH  16  17
HETATM   17  C18 UNL     1      21.336   1.277  50.084  1.00  0.00     0.250 C 
HETATM   18  F1  UNL     1      21.586   0.537  48.936  1.00  0.00    -0.251 F 
ENDBRANCH  16  17
ENDBRANCH  14  15
ENDBRANCH  13  14
ENDBRANCH  12  13
ENDBRANCH  11  12
ENDBRANCH  10  11
ENDBRANCH   8  10
ENDBRANCH   7   8
BRANCH   3  19
HETATM   19  C3  UNL     1      25.509   3.465  49.657  1.00  0.00     0.316 C 
BRANCH  19  20
HETATM   20  C4  UNL     1      26.293   4.597  49.177  1.00  0.00    -0.030 A 
HETATM   21  C5  UNL     1      25.686   5.856  49.127  1.00  0.00     0.009 A 
HETATM   22  C6  UNL     1      26.315   7.013  48.694  1.00  0.00     0.001 A 
HETATM   23  C7  UNL     1      27.625   6.922  48.285  1.00  0.00     0.000 A 
HETATM   24  C8  UNL     1      28.278   5.699  48.313  1.00  0.00     0.001 A 
HETATM   25  C9  UNL     1      27.627   4.559  48.750  1.00  0.00     0.009 A 
ENDBRANCH  19  20
ENDBRANCH   3  19
TORSDOF 10
ENDMDL
MODEL 4
REMARK VINA RESULT:      -6.5      2.906      5.691
REMARK  10 active torsions:
REMARK  status: ('A' for Active; 'I' for Inactive)
REMARK    1  A    between atoms: N1_3  and  C3_4 
REMARK    2  A    between atoms: C3_4  and  C4_5 
REMARK    3  A    between atoms: N3_14  and  N4_15 
REMARK    4  A    between atoms: N4_15  and  C12_16 
REMARK    5  A    between atoms: C12_16  and  C13_17 
REMARK    6  A    between atoms: C13_17  and  C14_18 
REMARK    7  A    between atoms: C14_18  and  C15_19 
REMARK    8  A    between atoms: C15_19  and  S1_20 
REMARK    9  A    between atoms: S1_20  and  C16_21 
REMARK   10  A    between atoms: C17_22  and  C18_23 
ROOT
HETATM    1  C1  UNL     1      24.075   3.596  53.348  1.00  0.00     0.068 C 
HETATM    2  C2  UNL     1      23.547   3.660  51.941  1.00  0.00     0.338 C 
HETATM    3  N1  UNL     1      22.330   2.900  51.751  1.00  0.00     0.135 N 
HETATM    4  C10 UNL     1      21.639   3.424  50.585  1.00  0.00     0.424 C 
HETATM    5  N2  UNL     1      21.069   4.704  50.960  1.00  0.00    -0.253 NA
HETATM    6  C11 UNL     1      21.931   5.528  51.507  1.00  0.00     0.219 C 
HETATM    7  N3  UNL     1      23.278   5.058  51.652  1.00  0.00    -0.274 N 
ENDROOT
BRANCH   7   8
HETATM    8  N4  UNL     1      24.365   5.894  51.526  1.00  0.00    -0.235 NA
HETATM    9  H15 UNL     1      25.271   5.464  51.784  1.00  0.00     0.146 HD
BRANCH   8  10
HETATM   10  C12 UNL     1      24.514   6.550  50.266  1.00  0.00     0.111 C 
BRANCH  10  11
HETATM   11  C13 UNL     1      24.983   5.576  49.198  1.00  0.00     0.017 C 
BRANCH  11  12
HETATM   12  C14 UNL     1      26.433   5.768  48.874  1.00  0.00     0.012 C 
BRANCH  12  13
HETATM   13  C15 UNL     1      27.238   4.499  49.039  1.00  0.00     0.078 C 
BRANCH  13  14
HETATM   14  S1  UNL     1      26.215   3.133  49.641  1.00  0.00    -0.142 SA
BRANCH  14  15
HETATM   15  C16 UNL     1      26.869   2.583  51.210  1.00  0.00     0.043 C 
HETATM   16  C17 UNL     1      26.476   1.366  51.635  1.00  0.00     0.011 C 
BRANCH  16  17
HETATM   17  C18 UNL     1      26.849   0.646  52.888  1.00  0.00     0.250 C 
HETATM   18  F1  UNL     1      28.083   0.038  52.698  1.00  0.00    -0.251 F 
ENDBRANCH  16  17
ENDBRANCH  14  15
ENDBRANCH  13  14
ENDBRANCH  12  13
ENDBRANCH  11  12
ENDBRANCH  10  11
ENDBRANCH   8  10
ENDBRANCH   7   8
BRANCH   3  19
HETATM   19  C3  UNL     1      22.575   1.503  51.462  1.00  0.00     0.316 C 
BRANCH  19  20
HETATM   20  C4  UNL     1      22.249   0.575  52.538  1.00  0.00    -0.030 A 
HETATM   21  C5  UNL     1      20.904   0.268  52.768  1.00  0.00     0.009 A 
HETATM   22  C6  UNL     1      20.455  -0.597  53.755  1.00  0.00     0.001 A 
HETATM   23  C7  UNL     1      21.392  -1.196  54.564  1.00  0.00     0.000 A 
HETATM   24  C8  UNL     1      22.741  -0.929  54.380  1.00  0.00     0.001 A 
HETATM   25  C9  UNL     1      23.162  -0.061  53.388  1.00  0.00     0.009 A 
ENDBRANCH  19  20
ENDBRANCH   3  19
TORSDOF 10
ENDMDL
MODEL 5
REMARK VINA RESULT:      -6.4      1.676      2.690
REMARK  10 active torsions:
REMARK  status: ('A' for Active; 'I' for Inactive)
REMARK    1  A    between atoms: N1_3  and  C3_4 
REMARK    2  A    between atoms: C3_4  and  C4_5 
REMARK    3  A    between atoms: N3_14  and  N4_15 
REMARK    4  A    between atoms: N4_15  and  C12_16 
REMARK    5  A    between atoms: C12_16  and  C13_17 
REMARK    6  A    between atoms: C13_17  and  C14_18 
REMARK    7  A    between atoms: C14_18  and  C15_19 
REMARK    8  A    between atoms: C15_19  and  S1_20 
REMARK    9  A    between atoms: S1_20  and  C16_21 
REMARK   10  A    between atoms: C17_22  and  C18_23 
ROOT
HETATM    1  C1  UNL     1      26.268   3.239  49.843  1.00  0.00     0.068 C 
HETATM    2  C2  UNL     1      24.994   2.858  50.548  1.00  0.00     0.338 C 
HETATM    3  N1  UNL     1      25.182   2.571  51.954  1.00  0.00     0.135 N 
HETATM    4  C10 UNL     1      23.905   2.733  52.629  1.00  0.00     0.424 C 
HETATM    5  N2  UNL     1      23.635   4.156  52.706  1.00  0.00    -0.253 NA
HETATM    6  C11 UNL     1      23.731   4.777  51.554  1.00  0.00     0.219 C 
HETATM    7  N3  UNL     1      24.082   3.980  50.414  1.00  0.00    -0.274 N 
ENDROOT
BRANCH   7   8
HETATM    8  N4  UNL     1      23.580   4.236  49.158  1.00  0.00    -0.235 NA
HETATM    9  H15 UNL     1      24.245   4.701  48.515  1.00  0.00     0.146 HD
BRANCH   8  10
HETATM   10  C12 UNL     1      22.988   3.128  48.478  1.00  0.00     0.111 C 
BRANCH  10  11
HETATM   11  C13 UNL     1      21.623   2.799  49.058  1.00  0.00     0.017 C 
BRANCH  11  12
HETATM   12  C14 UNL     1      21.404   1.320  49.148  1.00  0.00     0.012 C 
BRANCH  12  13
HETATM   13  C15 UNL     1      21.714   0.768  50.521  1.00  0.00     0.078 C 
BRANCH  13  14
HETATM   14  S1  UNL     1      20.221   0.620  51.534  1.00  0.00    -0.142 SA
BRANCH  14  15
HETATM   15  C16 UNL     1      20.656  -0.176  53.072  1.00  0.00     0.043 C 
HETATM   16  C17 UNL     1      21.968  -0.379  53.299  1.00  0.00     0.011 C 
BRANCH  16  17
HETATM   17  C18 UNL     1      22.629  -1.012  54.478  1.00  0.00     0.250 C 
HETATM   18  F1  UNL     1      21.884  -2.121  54.859  1.00  0.00    -0.251 F 
ENDBRANCH  16  17
ENDBRANCH  14  15
ENDBRANCH  13  14
ENDBRANCH  12  13
ENDBRANCH  11  12
ENDBRANCH  10  11
ENDBRANCH   8  10
ENDBRANCH   7   8
BRANCH   3  19
HETATM   19  C3  UNL     1      25.583   1.204  52.204  1.00  0.00     0.316 C 
BRANCH  19  20
HETATM   20  C4  UNL     1      26.904   1.037  52.798  1.00  0.00    -0.030 A 
HETATM   21  C5  UNL     1      27.425  -0.256  52.915  1.00  0.00     0.009 A 
HETATM   22  C6  UNL     1      28.665  -0.555  53.459  1.00  0.00     0.001 A 
HETATM   23  C7  UNL     1      29.438   0.485  53.916  1.00  0.00     0.000 A 
HETATM   24  C8  UNL     1      28.972   1.789  53.825  1.00  0.00     0.001 A 
HETATM   25  C9  UNL     1      27.731   2.061  53.278  1.00  0.00     0.009 A 
ENDBRANCH  19  20
ENDBRANCH   3  19
TORSDOF 10
ENDMDL
MODEL 6
REMARK VINA RESULT:      -6.2      3.402      6.505
REMARK  10 active torsions:
REMARK  status: ('A' for Active; 'I' for Inactive)
REMARK    1  A    between atoms: N1_3  and  C3_4 
REMARK    2  A    between atoms: C3_4  and  C4_5 
REMARK    3  A    between atoms: N3_14  and  N4_15 
REMARK    4  A    between atoms: N4_15  and  C12_16 
REMARK    5  A    between atoms: C12_16  and  C13_17 
REMARK    6  A    between atoms: C13_17  and  C14_18 
REMARK    7  A    between atoms: C14_18  and  C15_19 
REMARK    8  A    between atoms: C15_19  and  S1_20 
REMARK    9  A    between atoms: S1_20  and  C16_21 
REMARK   10  A    between atoms: C17_22  and  C18_23 
ROOT
HETATM    1  C1  UNL     1      22.654   3.006  48.477  1.00  0.00     0.068 C 
HETATM    2  C2  UNL     1      23.240   2.971  49.862  1.00  0.00     0.338 C 
HETATM    3  N1  UNL     1      24.186   4.039  50.111  1.00  0.00     0.135 N 
HETATM    4  C10 UNL     1      24.285   4.239  51.546  1.00  0.00     0.424 C 
HETATM    5  N2  UNL     1      23.063   4.892  51.976  1.00  0.00    -0.253 NA
HETATM    6  C11 UNL     1      21.969   4.286  51.579  1.00  0.00     0.219 C 
HETATM    7  N3  UNL     1      22.134   3.095  50.796  1.00  0.00    -0.274 N 
ENDROOT
BRANCH   7   8
HETATM    8  N4  UNL     1      21.267   2.030  50.888  1.00  0.00    -0.235 NA
HETATM    9  H15 UNL     1      20.692   1.868  50.042  1.00  0.00     0.146 HD
BRANCH   8  10
HETATM   10  C12 UNL     1      21.838   0.785  51.295  1.00  0.00     0.111 C 
BRANCH  10  11
HETATM   11  C13 UNL     1      22.318   0.852  52.735  1.00  0.00     0.017 C 
BRANCH  11  12
HETATM   12  C14 UNL     1      23.810   0.752  52.825  1.00  0.00     0.012 C 
BRANCH  12  13
HETATM   13  C15 UNL     1      24.264  -0.390  53.706  1.00  0.00     0.078 C 
BRANCH  13  14
HETATM   14  S1  UNL     1      25.820  -1.106  53.121  1.00  0.00    -0.142 SA
BRANCH  14  15
HETATM   15  C16 UNL     1      27.075   0.165  53.148  1.00  0.00     0.043 C 
HETATM   16  C17 UNL     1      28.249  -0.156  53.725  1.00  0.00     0.011 C 
BRANCH  16  17
HETATM   17  C18 UNL     1      29.470   0.685  53.897  1.00  0.00     0.250 C 
HETATM   18  F1  UNL     1      30.572  -0.043  53.466  1.00  0.00    -0.251 F 
ENDBRANCH  16  17
ENDBRANCH  14  15
ENDBRANCH  13  14
ENDBRANCH  12  13
ENDBRANCH  11  12
ENDBRANCH  10  11
ENDBRANCH   8  10
ENDBRANCH   7   8
BRANCH   3  19
HETATM   19  C3  UNL     1      25.526   3.721  49.670  1.00  0.00     0.316 C 
BRANCH  19  20
HETATM   20  C4  UNL     1      26.271   4.828  49.080  1.00  0.00    -0.030 A 
HETATM   21  C5  UNL     1      27.635   4.652  48.823  1.00  0.00     0.009 A 
HETATM   22  C6  UNL     1      28.458   5.619  48.267  1.00  0.00     0.001 A 
HETATM   23  C7  UNL     1      27.901   6.834  47.945  1.00  0.00     0.000 A 
HETATM   24  C8  UNL     1      26.553   7.064  48.178  1.00  0.00     0.001 A 
HETATM   25  C9  UNL     1      25.753   6.082  48.734  1.00  0.00     0.009 A 
ENDBRANCH  19  20
ENDBRANCH   3  19
TORSDOF 10
ENDMDL
MODEL 7
REMARK VINA RESULT:      -6.2      3.307      5.027
REMARK  10 active torsions:
REMARK  status: ('A' for Active; 'I' for Inactive)
REMARK    1  A    between atoms: N1_3  and  C3_4 
REMARK    2  A    between atoms: C3_4  and  C4_5 
REMARK    3  A    between atoms: N3_14  and  N4_15 
REMARK    4  A    between atoms: N4_15  and  C12_16 
REMARK    5  A    between atoms: C12_16  and  C13_17 
REMARK    6  A    between atoms: C13_17  and  C14_18 
REMARK    7  A    between atoms: C14_18  and  C15_19 
REMARK    8  A    between atoms: C15_19  and  S1_20 
REMARK    9  A    between atoms: S1_20  and  C16_21 
REMARK   10  A    between atoms: C17_22  and  C18_23 
ROOT
HETATM    1  C1  UNL     1      23.586   1.341  52.613  1.00  0.00     0.068 C 
HETATM    2  C2  UNL     1      24.805   2.222  52.661  1.00  0.00     0.338 C 
HETATM    3  N1  UNL     1      26.042   1.501  52.447  1.00  0.00     0.135 N 
HETATM    4  C10 UNL     1      27.050   2.445  51.997  1.00  0.00     0.424 C 
HETATM    5  N2  UNL     1      26.733   2.795  50.625  1.00  0.00    -0.253 NA
HETATM    6  C11 UNL     1      25.494   3.189  50.452  1.00  0.00     0.219 C 
HETATM    7  N3  UNL     1      24.652   3.216  51.614  1.00  0.00    -0.274 N 
ENDROOT
BRANCH   7   8
HETATM    8  N4  UNL     1      23.674   4.169  51.790  1.00  0.00    -0.235 NA
HETATM    9  H15 UNL     1      23.991   5.026  52.276  1.00  0.00     0.146 HD
BRANCH   8  10
HETATM   10  C12 UNL     1      22.947   4.551  50.621  1.00  0.00     0.111 C 
BRANCH  10  11
HETATM   11  C13 UNL     1      23.070   6.044  50.367  1.00  0.00     0.017 C 
BRANCH  11  12
HETATM   12  C14 UNL     1      22.933   6.369  48.911  1.00  0.00     0.012 C 
BRANCH  12  13
HETATM   13  C15 UNL     1      23.852   7.488  48.476  1.00  0.00     0.078 C 
BRANCH  13  14
HETATM   14  S1  UNL     1      24.854   8.102  49.853  1.00  0.00    -0.142 SA
BRANCH  14  15
HETATM   15  C16 UNL     1      26.552   7.622  49.577  1.00  0.00     0.043 C 
HETATM   16  C17 UNL     1      26.761   6.596  48.730  1.00  0.00     0.011 C 
BRANCH  16  17
HETATM   17  C18 UNL     1      28.052   5.977  48.308  1.00  0.00     0.250 C 
HETATM   18  F1  UNL     1      27.900   4.597  48.305  1.00  0.00    -0.251 F 
ENDBRANCH  16  17
ENDBRANCH  14  15
ENDBRANCH  13  14
ENDBRANCH  12  13
ENDBRANCH  11  12
ENDBRANCH  10  11
ENDBRANCH   8  10
ENDBRANCH   7   8
BRANCH   3  19
HETATM   19  C3  UNL     1      26.571   0.914  53.658  1.00  0.00     0.316 C 
BRANCH  19  20
HETATM   20  C4  UNL     1      27.443  -0.239  53.466  1.00  0.00    -0.030 A 
HETATM   21  C5  UNL     1      28.782  -0.135  53.854  1.00  0.00     0.009 A 
HETATM   22  C6  UNL     1      29.717  -1.152  53.729  1.00  0.00     0.001 A 
HETATM   23  C7  UNL     1      29.302  -2.346  53.187  1.00  0.00     0.000 A 
HETATM   24  C8  UNL     1      27.984  -2.506  52.784  1.00  0.00     0.001 A 
HETATM   25  C9  UNL     1      27.072  -1.475  52.920  1.00  0.00     0.009 A 
ENDBRANCH  19  20
ENDBRANCH   3  19
TORSDOF 10
ENDMDL
MODEL 8
REMARK VINA RESULT:      -6.1      3.677      6.945
REMARK  10 active torsions:
REMARK  status: ('A' for Active; 'I' for Inactive)
REMARK    1  A    between atoms: N1_3  and  C3_4 
REMARK    2  A    between atoms: C3_4  and  C4_5 
REMARK    3  A    between atoms: N3_14  and  N4_15 
REMARK    4  A    between atoms: N4_15  and  C12_16 
REMARK    5  A    between atoms: C12_16  and  C13_17 
REMARK    6  A    between atoms: C13_17  and  C14_18 
REMARK    7  A    between atoms: C14_18  and  C15_19 
REMARK    8  A    between atoms: C15_19  and  S1_20 
REMARK    9  A    between atoms: S1_20  and  C16_21 
REMARK   10  A    between atoms: C17_22  and  C18_23 
ROOT
HETATM    1  C1  UNL     1      23.709   5.169  51.485  1.00  0.00     0.068 C 
HETATM    2  C2  UNL     1      24.422   4.193  50.589  1.00  0.00     0.338 C 
HETATM    3  N1  UNL     1      25.729   4.653  50.167  1.00  0.00     0.135 N 
HETATM    4  C10 UNL     1      26.518   3.497  49.778  1.00  0.00     0.424 C 
HETATM    5  N2  UNL     1      26.889   2.798  50.995  1.00  0.00    -0.253 NA
HETATM    6  C11 UNL     1      25.875   2.533  51.783  1.00  0.00     0.219 C 
HETATM    7  N3  UNL     1      24.578   2.960  51.342  1.00  0.00    -0.274 N 
ENDROOT
BRANCH   7   8
HETATM    8  N4  UNL     1      23.437   2.236  51.605  1.00  0.00    -0.235 NA
HETATM    9  H15 UNL     1      23.322   1.389  51.022  1.00  0.00     0.146 HD
BRANCH   8  10
HETATM   10  C12 UNL     1      23.215   1.883  52.971  1.00  0.00     0.111 C 
BRANCH  10  11
HETATM   11  C13 UNL     1      22.377   0.621  53.077  1.00  0.00     0.017 C 
BRANCH  11  12
HETATM   12  C14 UNL     1      23.233  -0.606  53.157  1.00  0.00     0.012 C 
BRANCH  12  13
HETATM   13  C15 UNL     1      24.543  -0.355  53.868  1.00  0.00     0.078 C 
BRANCH  13  14
HETATM   14  S1  UNL     1      25.934  -1.112  52.991  1.00  0.00    -0.142 SA
BRANCH  14  15
HETATM   15  C16 UNL     1      27.450  -0.393  53.605  1.00  0.00     0.043 C 
HETATM   16  C17 UNL     1      28.594  -1.024  53.277  1.00  0.00     0.011 C 
BRANCH  16  17
HETATM   17  C18 UNL     1      29.998  -0.667  53.637  1.00  0.00     0.250 C 
HETATM   18  F1  UNL     1      30.067   0.706  53.837  1.00  0.00    -0.251 F 
ENDBRANCH  16  17
ENDBRANCH  14  15
ENDBRANCH  13  14
ENDBRANCH  12  13
ENDBRANCH  11  12
ENDBRANCH  10  11
ENDBRANCH   8  10
ENDBRANCH   7   8
BRANCH   3  19
HETATM   19  C3  UNL     1      25.678   5.500  48.996  1.00  0.00     0.316 C 
BRANCH  19  20
HETATM   20  C4  UNL     1      26.578   6.648  49.014  1.00  0.00    -0.030 A 
HETATM   21  C5  UNL     1      26.286   7.711  49.875  1.00  0.00     0.009 A 
HETATM   22  C6  UNL     1      27.055   8.859  49.992  1.00  0.00     0.001 A 
HETATM   23  C7  UNL     1      28.181   8.964  49.210  1.00  0.00     0.000 A 
HETATM   24  C8  UNL     1      28.519   7.940  48.337  1.00  0.00     0.001 A 
HETATM   25  C9  UNL     1      27.735   6.805  48.240  1.00  0.00     0.009 A 
ENDBRANCH  19  20
ENDBRANCH   3  19
TORSDOF 10
ENDMDL
MODEL 9
REMARK VINA RESULT:      -6.1      2.964      3.448
REMARK  10 active torsions:
REMARK  status: ('A' for Active; 'I' for Inactive)
REMARK    1  A    between atoms: N1_3  and  C3_4 
REMARK    2  A    between atoms: C3_4  and  C4_5 
REMARK    3  A    between atoms: N3_14  and  N4_15 
REMARK    4  A    between atoms: N4_15  and  C12_16 
REMARK    5  A    between atoms: C12_16  and  C13_17 
REMARK    6  A    between atoms: C13_17  and  C14_18 
REMARK    7  A    between atoms: C14_18  and  C15_19 
REMARK    8  A    between atoms: C15_19  and  S1_20 
REMARK    9  A    between atoms: S1_20  and  C16_21 
REMARK   10  A    between atoms: C17_22  and  C18_23 
ROOT
HETATM    1  C1  UNL     1      22.290  -0.930  52.956  1.00  0.00     0.068 C 
HETATM    2  C2  UNL     1      22.982   0.390  53.158  1.00  0.00     0.338 C 
HETATM    3  N1  UNL     1      24.414   0.323  52.955  1.00  0.00     0.135 N 
HETATM    4  C10 UNL     1      24.898   1.660  52.655  1.00  0.00     0.424 C 
HETATM    5  N2  UNL     1      24.476   1.979  51.304  1.00  0.00    -0.253 NA
HETATM    6  C11 UNL     1      23.194   1.796  51.092  1.00  0.00     0.219 C 
HETATM    7  N3  UNL     1      22.414   1.320  52.198  1.00  0.00    -0.274 N 
ENDROOT
BRANCH   7   8
HETATM    8  N4  UNL     1      21.110   1.712  52.399  1.00  0.00    -0.235 NA
HETATM    9  H15 UNL     1      20.950   2.241  53.275  1.00  0.00     0.146 HD
BRANCH   8  10
HETATM   10  C12 UNL     1      20.489   2.417  51.323  1.00  0.00     0.111 C 
BRANCH  10  11
HETATM   11  C13 UNL     1      19.167   1.772  50.941  1.00  0.00     0.017 C 
BRANCH  11  12
HETATM   12  C14 UNL     1      19.168   0.301  51.223  1.00  0.00     0.012 C 
BRANCH  12  13
HETATM   13  C15 UNL     1      17.869  -0.175  51.831  1.00  0.00     0.078 C 
BRANCH  13  14
HETATM   14  S1  UNL     1      18.154  -1.322  53.202  1.00  0.00    -0.142 SA
BRANCH  14  15
HETATM   15  C16 UNL     1      16.875  -2.568  53.175  1.00  0.00     0.043 C 
HETATM   16  C17 UNL     1      17.209  -3.789  53.634  1.00  0.00     0.011 C 
BRANCH  16  17
HETATM   17  C18 UNL     1      16.366  -5.017  53.735  1.00  0.00     0.250 C 
HETATM   18  F1  UNL     1      15.690  -5.188  52.535  1.00  0.00    -0.251 F 
ENDBRANCH  16  17
ENDBRANCH  14  15
ENDBRANCH  13  14
ENDBRANCH  12  13
ENDBRANCH  11  12
ENDBRANCH  10  11
ENDBRANCH   8  10
ENDBRANCH   7   8
BRANCH   3  19
HETATM   19  C3  UNL     1      25.134  -0.094  54.138  1.00  0.00     0.316 C 
BRANCH  19  20
HETATM   20  C4  UNL     1      26.541  -0.417  53.934  1.00  0.00    -0.030 A 
HETATM   21  C5  UNL     1      27.498   0.253  54.705  1.00  0.00     0.009 A 
HETATM   22  C6  UNL     1      28.865   0.043  54.613  1.00  0.00     0.001 A 
HETATM   23  C7  UNL     1      29.317  -0.884  53.704  1.00  0.00     0.000 A 
HETATM   24  C8  UNL     1      28.413  -1.579  52.913  1.00  0.00     0.001 A 
HETATM   25  C9  UNL     1      27.053  -1.351  53.024  1.00  0.00     0.009 A 
ENDBRANCH  19  20
ENDBRANCH   3  19
TORSDOF 10
ENDMDL
