MODEL 1
REMARK VINA RESULT:      -9.0      0.000      0.000
REMARK  8 active torsions:
REMARK  status: ('A' for Active; 'I' for Inactive)
REMARK    1  A    between atoms: C7_8  and  C8_9 
REMARK    2  A    between atoms: C8_9  and  N1_10 
REMARK    3  A    between atoms: N1_10  and  C9_11 
REMARK    4  A    between atoms: N1_10  and  C17_20 
REMARK    5  A    between atoms: C9_11  and  C10_12 
REMARK    6  A    between atoms: C16_18  and  O1_19 
REMARK    7  A    between atoms: C17_20  and  N2_22 
REMARK    8  A    between atoms: N2_22  and  C18_23 
ROOT
HETATM    1  N1  UNL     1      24.595   1.940  51.838  1.00  0.00    -0.349 N 
ENDROOT
BRANCH   1   2
HETATM    2  C8  UNL     1      25.620   0.950  51.566  1.00  0.00     0.164 C 
BRANCH   2   3
HETATM    3  C7  UNL     1      26.829   1.083  52.413  1.00  0.00    -0.031 C 
HETATM    4  C2  UNL     1      27.537  -0.028  53.028  1.00  0.00    -0.010 C 
HETATM    5  C1  UNL     1      27.133  -1.259  52.876  1.00  0.00     0.047 C 
HETATM    6  C3  UNL     1      28.729   0.131  53.851  1.00  0.00     0.134 C 
HETATM    7  F1  UNL     1      29.489  -0.928  54.227  1.00  0.00    -0.205 F 
HETATM    8  C4  UNL     1      29.044   1.341  54.219  1.00  0.00     0.016 C 
HETATM    9  C5  UNL     1      28.592   2.359  53.523  1.00  0.00     0.016 C 
HETATM   10  C6  UNL     1      27.399   2.259  52.693  1.00  0.00     0.010 C 
ENDBRANCH   2   3
ENDBRANCH   1   2
BRANCH   1  11
HETATM   11  C9  UNL     1      23.770   2.034  53.002  1.00  0.00     0.167 C 
BRANCH  11  12
HETATM   12  C10 UNL     1      22.845   0.932  53.261  1.00  0.00    -0.007 A 
HETATM   13  C11 UNL     1      23.428  -0.149  53.932  1.00  0.00     0.011 A 
HETATM   14  C12 UNL     1      22.722  -1.293  54.301  1.00  0.00     0.001 A 
HETATM   15  C13 UNL     1      21.373  -1.345  53.975  1.00  0.00     0.009 A 
HETATM   16  C14 UNL     1      20.721  -0.323  53.312  1.00  0.00    -0.028 A 
HETATM   17  C15 UNL     1      19.286  -0.323  52.939  1.00  0.00     0.051 C 
HETATM   18  C16 UNL     1      21.518   0.751  53.002  1.00  0.00     0.079 A 
BRANCH  18  19
HETATM   19  O1  UNL     1      20.915   1.807  52.330  1.00  0.00    -0.360 OA
HETATM   20  H15 UNL     1      21.195   2.771  52.427  1.00  0.00     0.217 HD
ENDBRANCH  18  19
ENDBRANCH  11  12
ENDBRANCH   1  11
BRANCH   1  21
HETATM   21  C17 UNL     1      24.336   2.950  50.836  1.00  0.00     0.174 C 
HETATM   22  S1  UNL     1      23.110   2.710  49.774  1.00  0.00    -0.041 SA
BRANCH  21  23
HETATM   23  N2  UNL     1      24.853   4.199  50.458  1.00  0.00    -0.333 N 
HETATM   24  H16 UNL     1      24.178   4.732  51.041  1.00  0.00     0.168 HD
BRANCH  23  25
HETATM   25  C18 UNL     1      25.788   4.918  49.706  1.00  0.00     0.034 A 
HETATM   26  C19 UNL     1      25.630   6.241  49.367  1.00  0.00     0.029 A 
HETATM   27  C20 UNL     1      26.569   6.921  48.627  1.00  0.00     0.002 A 
HETATM   28  C21 UNL     1      27.646   6.156  48.276  1.00  0.00     0.000 A 
HETATM   29  C22 UNL     1      27.880   4.834  48.573  1.00  0.00     0.002 A 
HETATM   30  C23 UNL     1      26.911   4.220  49.308  1.00  0.00     0.029 A 
ENDBRANCH  23  25
ENDBRANCH  21  23
ENDBRANCH   1  21
TORSDOF 8
ENDMDL
MODEL 2
REMARK VINA RESULT:      -8.8      2.235      5.116
REMARK  8 active torsions:
REMARK  status: ('A' for Active; 'I' for Inactive)
REMARK    1  A    between atoms: C7_8  and  C8_9 
REMARK    2  A    between atoms: C8_9  and  N1_10 
REMARK    3  A    between atoms: N1_10  and  C9_11 
REMARK    4  A    between atoms: N1_10  and  C17_20 
REMARK    5  A    between atoms: C9_11  and  C10_12 
REMARK    6  A    between atoms: C16_18  and  O1_19 
REMARK    7  A    between atoms: C17_20  and  N2_22 
REMARK    8  A    between atoms: N2_22  and  C18_23 
ROOT
HETATM    1  N1  UNL     1      24.794   2.563  51.801  1.00  0.00    -0.349 N 
ENDROOT
BRANCH   1   2
HETATM    2  C8  UNL     1      24.057   2.347  53.032  1.00  0.00     0.164 C 
BRANCH   2   3
HETATM    3  C7  UNL     1      22.911   1.417  52.896  1.00  0.00    -0.031 C 
HETATM    4  C2  UNL     1      22.863   0.073  53.449  1.00  0.00    -0.010 C 
HETATM    5  C1  UNL     1      23.868  -0.423  54.116  1.00  0.00     0.047 C 
HETATM    6  C3  UNL     1      21.719  -0.818  53.305  1.00  0.00     0.134 C 
HETATM    7  F1  UNL     1      21.615  -1.973  54.011  1.00  0.00    -0.205 F 
HETATM    8  C4  UNL     1      20.788  -0.464  52.466  1.00  0.00     0.016 C 
HETATM    9  C5  UNL     1      20.673   0.801  52.133  1.00  0.00     0.016 C 
HETATM   10  C6  UNL     1      21.787   1.733  52.246  1.00  0.00     0.010 C 
ENDBRANCH   2   3
ENDBRANCH   1   2
BRANCH   1  11
HETATM   11  C9  UNL     1      25.725   1.671  51.182  1.00  0.00     0.167 C 
BRANCH  11  12
HETATM   12  C10 UNL     1      26.694   1.005  52.050  1.00  0.00    -0.007 A 
HETATM   13  C11 UNL     1      26.558  -0.387  52.085  1.00  0.00     0.011 A 
HETATM   14  C12 UNL     1      27.393  -1.221  52.827  1.00  0.00     0.001 A 
HETATM   15  C13 UNL     1      28.406  -0.620  53.564  1.00  0.00     0.009 A 
HETATM   16  C14 UNL     1      28.609   0.748  53.586  1.00  0.00    -0.028 A 
HETATM   17  C15 UNL     1      29.671   1.443  54.351  1.00  0.00     0.051 C 
HETATM   18  C16 UNL     1      27.725   1.463  52.816  1.00  0.00     0.079 A 
BRANCH  18  19
HETATM   19  O1  UNL     1      27.880   2.844  52.804  1.00  0.00    -0.360 OA
HETATM   20  H15 UNL     1      28.249   3.364  52.023  1.00  0.00     0.217 HD
ENDBRANCH  18  19
ENDBRANCH  11  12
ENDBRANCH   1  11
BRANCH   1  21
HETATM   21  C17 UNL     1      24.606   3.814  51.101  1.00  0.00     0.174 C 
HETATM   22  S1  UNL     1      23.567   4.918  51.727  1.00  0.00    -0.041 SA
BRANCH  21  23
HETATM   23  N2  UNL     1      25.089   4.443  49.943  1.00  0.00    -0.333 N 
HETATM   24  H16 UNL     1      24.251   4.201  49.380  1.00  0.00     0.168 HD
BRANCH  23  25
HETATM   25  C18 UNL     1      26.114   5.168  49.326  1.00  0.00     0.034 A 
HETATM   26  C19 UNL     1      26.032   6.513  49.054  1.00  0.00     0.029 A 
HETATM   27  C20 UNL     1      27.058   7.198  48.446  1.00  0.00     0.002 A 
HETATM   28  C21 UNL     1      28.138   6.414  48.151  1.00  0.00     0.000 A 
HETATM   29  C22 UNL     1      28.300   5.069  48.387  1.00  0.00     0.002 A 
HETATM   30  C23 UNL     1      27.246   4.451  48.991  1.00  0.00     0.029 A 
ENDBRANCH  23  25
ENDBRANCH  21  23
ENDBRANCH   1  21
TORSDOF 8
ENDMDL
MODEL 3
REMARK VINA RESULT:      -8.8      1.899      6.774
REMARK  8 active torsions:
REMARK  status: ('A' for Active; 'I' for Inactive)
REMARK    1  A    between atoms: C7_8  and  C8_9 
REMARK    2  A    between atoms: C8_9  and  N1_10 
REMARK    3  A    between atoms: N1_10  and  C9_11 
REMARK    4  A    between atoms: N1_10  and  C17_20 
REMARK    5  A    between atoms: C9_11  and  C10_12 
REMARK    6  A    between atoms: C16_18  and  O1_19 
REMARK    7  A    between atoms: C17_20  and  N2_22 
REMARK    8  A    between atoms: N2_22  and  C18_23 
ROOT
HETATM    1  N1  UNL     1      25.462   2.844  51.102  1.00  0.00    -0.349 N 
ENDROOT
BRANCH   1   2
HETATM    2  C8  UNL     1      26.695   2.788  51.864  1.00  0.00     0.164 C 
BRANCH   2   3
HETATM    3  C7  UNL     1      27.064   1.426  52.320  1.00  0.00    -0.031 C 
HETATM    4  C2  UNL     1      28.092   1.132  53.306  1.00  0.00    -0.010 C 
HETATM    5  C1  UNL     1      28.789   2.082  53.864  1.00  0.00     0.047 C 
HETATM    6  C3  UNL     1      28.430  -0.217  53.740  1.00  0.00     0.134 C 
HETATM    7  F1  UNL     1      29.232  -0.447  54.811  1.00  0.00    -0.205 F 
HETATM    8  C4  UNL     1      27.928  -1.207  53.058  1.00  0.00     0.016 C 
HETATM    9  C5  UNL     1      26.850  -1.007  52.337  1.00  0.00     0.016 C 
HETATM   10  C6  UNL     1      26.471   0.319  51.866  1.00  0.00     0.010 C 
ENDBRANCH   2   3
ENDBRANCH   1   2
BRANCH   1  11
HETATM   11  C9  UNL     1      25.324   3.036  49.691  1.00  0.00     0.167 C 
BRANCH  11  12
HETATM   12  C10 UNL     1      25.534   4.387  49.175  1.00  0.00    -0.007 A 
HETATM   13  C11 UNL     1      24.348   5.084  48.917  1.00  0.00     0.011 A 
HETATM   14  C12 UNL     1      24.316   6.395  48.445  1.00  0.00     0.001 A 
HETATM   15  C13 UNL     1      25.534   7.025  48.224  1.00  0.00     0.009 A 
HETATM   16  C14 UNL     1      26.751   6.409  48.452  1.00  0.00    -0.028 A 
HETATM   17  C15 UNL     1      28.079   7.031  48.236  1.00  0.00     0.051 C 
HETATM   18  C16 UNL     1      26.655   5.121  48.916  1.00  0.00     0.079 A 
BRANCH  18  19
HETATM   19  O1  UNL     1      27.847   4.451  49.158  1.00  0.00    -0.360 OA
HETATM   20  H15 UNL     1      28.738   4.908  49.276  1.00  0.00     0.217 HD
ENDBRANCH  18  19
ENDBRANCH  11  12
ENDBRANCH   1  11
BRANCH   1  21
HETATM   21  C17 UNL     1      24.210   2.712  51.814  1.00  0.00     0.174 C 
HETATM   22  S1  UNL     1      23.595   4.029  52.574  1.00  0.00    -0.041 SA
BRANCH  21  23
HETATM   23  N2  UNL     1      23.261   1.713  52.076  1.00  0.00    -0.333 N 
HETATM   24  H16 UNL     1      22.886   1.718  51.107  1.00  0.00     0.168 HD
BRANCH  23  25
HETATM   25  C18 UNL     1      22.691   0.830  53.000  1.00  0.00     0.034 A 
HETATM   26  C19 UNL     1      23.402  -0.157  53.641  1.00  0.00     0.029 A 
HETATM   27  C20 UNL     1      22.812  -1.009  54.546  1.00  0.00     0.002 A 
HETATM   28  C21 UNL     1      21.479  -0.771  54.731  1.00  0.00     0.000 A 
HETATM   29  C22 UNL     1      20.697   0.190  54.134  1.00  0.00     0.002 A 
HETATM   30  C23 UNL     1      21.343   1.000  53.248  1.00  0.00     0.029 A 
ENDBRANCH  23  25
ENDBRANCH  21  23
ENDBRANCH   1  21
TORSDOF 8
ENDMDL
MODEL 4
REMARK VINA RESULT:      -8.7      3.076      6.412
REMARK  8 active torsions:
REMARK  status: ('A' for Active; 'I' for Inactive)
REMARK    1  A    between atoms: C7_8  and  C8_9 
REMARK    2  A    between atoms: C8_9  and  N1_10 
REMARK    3  A    between atoms: N1_10  and  C9_11 
REMARK    4  A    between atoms: N1_10  and  C17_20 
REMARK    5  A    between atoms: C9_11  and  C10_12 
REMARK    6  A    between atoms: C16_18  and  O1_19 
REMARK    7  A    between atoms: C17_20  and  N2_22 
REMARK    8  A    between atoms: N2_22  and  C18_23 
ROOT
HETATM    1  N1  UNL     1      24.230   2.464  52.007  1.00  0.00    -0.349 N 
ENDROOT
BRANCH   1   2
HETATM    2  C8  UNL     1      23.449   1.362  51.476  1.00  0.00     0.164 C 
BRANCH   2   3
HETATM    3  C7  UNL     1      22.839   0.497  52.514  1.00  0.00    -0.031 C 
HETATM    4  C2  UNL     1      21.425   0.166  52.590  1.00  0.00    -0.010 C 
HETATM    5  C1  UNL     1      20.569   0.635  51.725  1.00  0.00     0.047 C 
HETATM    6  C3  UNL     1      20.853  -0.693  53.619  1.00  0.00     0.134 C 
HETATM    7  F1  UNL     1      19.580  -1.158  53.539  1.00  0.00    -0.205 F 
HETATM    8  C4  UNL     1      21.614  -1.003  54.630  1.00  0.00     0.016 C 
HETATM    9  C5  UNL     1      22.918  -0.928  54.496  1.00  0.00     0.016 C 
HETATM   10  C6  UNL     1      23.544  -0.077  53.493  1.00  0.00     0.010 C 
ENDBRANCH   2   3
ENDBRANCH   1   2
BRANCH   1  11
HETATM   11  C9  UNL     1      23.742   3.615  52.701  1.00  0.00     0.167 C 
BRANCH  11  12
HETATM   12  C10 UNL     1      22.995   4.601  51.922  1.00  0.00    -0.007 A 
HETATM   13  C11 UNL     1      21.660   4.249  51.695  1.00  0.00     0.011 A 
HETATM   14  C12 UNL     1      20.762   5.056  50.997  1.00  0.00     0.001 A 
HETATM   15  C13 UNL     1      21.237   6.267  50.509  1.00  0.00     0.009 A 
HETATM   16  C14 UNL     1      22.541   6.690  50.689  1.00  0.00    -0.028 A 
HETATM   17  C15 UNL     1      23.101   7.969  50.193  1.00  0.00     0.051 C 
HETATM   18  C16 UNL     1      23.329   5.812  51.391  1.00  0.00     0.079 A 
BRANCH  18  19
HETATM   19  O1  UNL     1      24.651   6.185  51.597  1.00  0.00    -0.360 OA
HETATM   20  H15 UNL     1      25.440   5.736  51.157  1.00  0.00     0.217 HD
ENDBRANCH  18  19
ENDBRANCH  11  12
ENDBRANCH   1  11
BRANCH   1  21
HETATM   21  C17 UNL     1      25.664   2.441  51.819  1.00  0.00     0.174 C 
HETATM   22  S1  UNL     1      26.294   3.160  50.487  1.00  0.00    -0.041 SA
BRANCH  21  23
HETATM   23  N2  UNL     1      26.795   1.953  52.491  1.00  0.00    -0.333 N 
HETATM   24  H16 UNL     1      27.076   2.889  52.840  1.00  0.00     0.168 HD
BRANCH  23  25
HETATM   25  C18 UNL     1      27.592   0.854  52.830  1.00  0.00     0.034 A 
HETATM   26  C19 UNL     1      27.195  -0.451  52.654  1.00  0.00     0.029 A 
HETATM   27  C20 UNL     1      28.003  -1.510  52.997  1.00  0.00     0.002 A 
HETATM   28  C21 UNL     1      29.209  -1.131  53.517  1.00  0.00     0.000 A 
HETATM   29  C22 UNL     1      29.681   0.144  53.725  1.00  0.00     0.002 A 
HETATM   30  C23 UNL     1      28.831   1.146  53.364  1.00  0.00     0.029 A 
ENDBRANCH  23  25
ENDBRANCH  21  23
ENDBRANCH   1  21
TORSDOF 8
ENDMDL
MODEL 5
REMARK VINA RESULT:      -8.7      2.701      5.365
REMARK  8 active torsions:
REMARK  status: ('A' for Active; 'I' for Inactive)
REMARK    1  A    between atoms: C7_8  and  C8_9 
REMARK    2  A    between atoms: C8_9  and  N1_10 
REMARK    3  A    between atoms: N1_10  and  C9_11 
REMARK    4  A    between atoms: N1_10  and  C17_20 
REMARK    5  A    between atoms: C9_11  and  C10_12 
REMARK    6  A    between atoms: C16_18  and  O1_19 
REMARK    7  A    between atoms: C17_20  and  N2_22 
REMARK    8  A    between atoms: N2_22  and  C18_23 
ROOT
HETATM    1  N1  UNL     1      25.372   3.476  50.962  1.00  0.00    -0.349 N 
ENDROOT
BRANCH   1   2
HETATM    2  C8  UNL     1      24.298   3.192  51.896  1.00  0.00     0.164 C 
BRANCH   2   3
HETATM    3  C7  UNL     1      23.240   2.308  51.350  1.00  0.00    -0.031 C 
HETATM    4  C2  UNL     1      22.633   1.200  52.071  1.00  0.00    -0.010 C 
HETATM    5  C1  UNL     1      23.000   0.896  53.285  1.00  0.00     0.047 C 
HETATM    6  C3  UNL     1      21.589   0.350  51.512  1.00  0.00     0.134 C 
HETATM    7  F1  UNL     1      20.892  -0.528  52.277  1.00  0.00    -0.205 F 
HETATM    8  C4  UNL     1      21.345   0.464  50.238  1.00  0.00     0.016 C 
HETATM    9  C5  UNL     1      21.685   1.569  49.616  1.00  0.00     0.016 C 
HETATM   10  C6  UNL     1      22.730   2.450  50.124  1.00  0.00     0.010 C 
ENDBRANCH   2   3
ENDBRANCH   1   2
BRANCH   1  11
HETATM   11  C9  UNL     1      26.502   2.650  50.667  1.00  0.00     0.167 C 
BRANCH  11  12
HETATM   12  C10 UNL     1      26.911   1.685  51.685  1.00  0.00    -0.007 A 
HETATM   13  C11 UNL     1      26.292   0.436  51.562  1.00  0.00     0.011 A 
HETATM   14  C12 UNL     1      26.555  -0.638  52.411  1.00  0.00     0.001 A 
HETATM   15  C13 UNL     1      27.483  -0.438  53.425  1.00  0.00     0.009 A 
HETATM   16  C14 UNL     1      28.140   0.763  53.617  1.00  0.00    -0.028 A 
HETATM   17  C15 UNL     1      29.137   1.033  54.679  1.00  0.00     0.051 C 
HETATM   18  C16 UNL     1      27.798   1.745  52.720  1.00  0.00     0.079 A 
BRANCH  18  19
HETATM   19  O1  UNL     1      28.424   2.975  52.868  1.00  0.00    -0.360 OA
HETATM   20  H15 UNL     1      28.925   3.258  53.697  1.00  0.00     0.217 HD
ENDBRANCH  18  19
ENDBRANCH  11  12
ENDBRANCH   1  11
BRANCH   1  21
HETATM   21  C17 UNL     1      25.342   4.731  50.244  1.00  0.00     0.174 C 
HETATM   22  S1  UNL     1      24.358   5.925  50.787  1.00  0.00    -0.041 SA
BRANCH  21  23
HETATM   23  N2  UNL     1      25.959   5.304  49.122  1.00  0.00    -0.333 N 
HETATM   24  H16 UNL     1      25.096   5.270  48.545  1.00  0.00     0.168 HD
BRANCH  23  25
HETATM   25  C18 UNL     1      27.120   5.830  48.544  1.00  0.00     0.034 A 
HETATM   26  C19 UNL     1      28.333   5.183  48.562  1.00  0.00     0.029 A 
HETATM   27  C20 UNL     1      29.456   5.728  47.984  1.00  0.00     0.002 A 
HETATM   28  C21 UNL     1      29.238   6.947  47.407  1.00  0.00     0.000 A 
HETATM   29  C22 UNL     1      28.063   7.659  47.346  1.00  0.00     0.002 A 
HETATM   30  C23 UNL     1      26.989   7.063  47.938  1.00  0.00     0.029 A 
ENDBRANCH  23  25
ENDBRANCH  21  23
ENDBRANCH   1  21
TORSDOF 8
ENDMDL
MODEL 6
REMARK VINA RESULT:      -8.6      2.008      5.269
REMARK  8 active torsions:
REMARK  status: ('A' for Active; 'I' for Inactive)
REMARK    1  A    between atoms: C7_8  and  C8_9 
REMARK    2  A    between atoms: C8_9  and  N1_10 
REMARK    3  A    between atoms: N1_10  and  C9_11 
REMARK    4  A    between atoms: N1_10  and  C17_20 
REMARK    5  A    between atoms: C9_11  and  C10_12 
REMARK    6  A    between atoms: C16_18  and  O1_19 
REMARK    7  A    between atoms: C17_20  and  N2_22 
REMARK    8  A    between atoms: N2_22  and  C18_23 
ROOT
HETATM    1  N1  UNL     1      24.519   1.756  51.804  1.00  0.00    -0.349 N 
ENDROOT
BRANCH   1   2
HETATM    2  C8  UNL     1      23.900   1.920  53.106  1.00  0.00     0.164 C 
BRANCH   2   3
HETATM    3  C7  UNL     1      22.852   0.915  53.408  1.00  0.00    -0.031 C 
HETATM    4  C2  UNL     1      23.092  -0.366  54.054  1.00  0.00    -0.010 C 
HETATM    5  C1  UNL     1      24.291  -0.730  54.414  1.00  0.00     0.047 C 
HETATM    6  C3  UNL     1      22.041  -1.332  54.344  1.00  0.00     0.134 C 
HETATM    7  F1  UNL     1      22.258  -2.412  55.138  1.00  0.00    -0.205 F 
HETATM    8  C4  UNL     1      20.872  -1.122  53.810  1.00  0.00     0.016 C 
HETATM    9  C5  UNL     1      20.551   0.093  53.429  1.00  0.00     0.016 C 
HETATM   10  C6  UNL     1      21.561   1.096  53.114  1.00  0.00     0.010 C 
ENDBRANCH   2   3
ENDBRANCH   1   2
BRANCH   1  11
HETATM   11  C9  UNL     1      25.558   0.839  51.449  1.00  0.00     0.167 C 
BRANCH  11  12
HETATM   12  C10 UNL     1      26.789   0.882  52.237  1.00  0.00    -0.007 A 
HETATM   13  C11 UNL     1      27.207   2.178  52.562  1.00  0.00     0.011 A 
HETATM   14  C12 UNL     1      28.340   2.448  53.328  1.00  0.00     0.001 A 
HETATM   15  C13 UNL     1      29.080   1.363  53.782  1.00  0.00     0.009 A 
HETATM   16  C14 UNL     1      28.736   0.052  53.506  1.00  0.00    -0.028 A 
HETATM   17  C15 UNL     1      29.485  -1.143  53.963  1.00  0.00     0.051 C 
HETATM   18  C16 UNL     1      27.602  -0.088  52.745  1.00  0.00     0.079 A 
BRANCH  18  19
HETATM   19  O1  UNL     1      27.213  -1.384  52.433  1.00  0.00    -0.360 OA
HETATM   20  H15 UNL     1      26.369  -1.818  52.774  1.00  0.00     0.217 HD
ENDBRANCH  18  19
ENDBRANCH  11  12
ENDBRANCH   1  11
BRANCH   1  21
HETATM   21  C17 UNL     1      24.078   2.609  50.724  1.00  0.00     0.174 C 
HETATM   22  S1  UNL     1      22.705   2.213  49.919  1.00  0.00    -0.041 SA
BRANCH  21  23
HETATM   23  N2  UNL     1      24.495   3.791  50.092  1.00  0.00    -0.333 N 
HETATM   24  H16 UNL     1      23.544   4.207  50.091  1.00  0.00     0.168 HD
BRANCH  23  25
HETATM   25  C18 UNL     1      25.542   4.532  49.534  1.00  0.00     0.034 A 
HETATM   26  C19 UNL     1      26.783   4.005  49.265  1.00  0.00     0.029 A 
HETATM   27  C20 UNL     1      27.792   4.761  48.715  1.00  0.00     0.002 A 
HETATM   28  C21 UNL     1      27.433   6.057  48.472  1.00  0.00     0.000 A 
HETATM   29  C22 UNL     1      26.221   6.660  48.709  1.00  0.00     0.002 A 
HETATM   30  C23 UNL     1      25.265   5.856  49.256  1.00  0.00     0.029 A 
ENDBRANCH  23  25
ENDBRANCH  21  23
ENDBRANCH   1  21
TORSDOF 8
ENDMDL
MODEL 7
REMARK VINA RESULT:      -8.6      2.524      6.511
REMARK  8 active torsions:
REMARK  status: ('A' for Active; 'I' for Inactive)
REMARK    1  A    between atoms: C7_8  and  C8_9 
REMARK    2  A    between atoms: C8_9  and  N1_10 
REMARK    3  A    between atoms: N1_10  and  C9_11 
REMARK    4  A    between atoms: N1_10  and  C17_20 
REMARK    5  A    between atoms: C9_11  and  C10_12 
REMARK    6  A    between atoms: C16_18  and  O1_19 
REMARK    7  A    between atoms: C17_20  and  N2_22 
REMARK    8  A    between atoms: N2_22  and  C18_23 
ROOT
HETATM    1  N1  UNL     1      23.324   3.234  51.552  1.00  0.00    -0.349 N 
ENDROOT
BRANCH   1   2
HETATM    2  C8  UNL     1      23.705   2.991  50.173  1.00  0.00     0.164 C 
BRANCH   2   3
HETATM    3  C7  UNL     1      24.610   4.020  49.605  1.00  0.00    -0.031 C 
HETATM    4  C2  UNL     1      26.052   3.881  49.485  1.00  0.00    -0.010 C 
HETATM    5  C1  UNL     1      26.667   2.806  49.894  1.00  0.00     0.047 C 
HETATM    6  C3  UNL     1      26.917   4.907  48.917  1.00  0.00     0.134 C 
HETATM    7  F1  UNL     1      28.218   4.665  48.618  1.00  0.00    -0.205 F 
HETATM    8  C4  UNL     1      26.391   6.079  48.702  1.00  0.00     0.016 C 
HETATM    9  C5  UNL     1      25.088   6.184  48.576  1.00  0.00     0.016 C 
HETATM   10  C6  UNL     1      24.177   5.193  49.135  1.00  0.00     0.010 C 
ENDBRANCH   2   3
ENDBRANCH   1   2
BRANCH   1  11
HETATM   11  C9  UNL     1      24.186   3.280  52.692  1.00  0.00     0.167 C 
BRANCH  11  12
HETATM   12  C10 UNL     1      24.770   2.018  53.143  1.00  0.00    -0.007 A 
HETATM   13  C11 UNL     1      23.940   0.909  52.948  1.00  0.00     0.011 A 
HETATM   14  C12 UNL     1      24.309  -0.393  53.281  1.00  0.00     0.001 A 
HETATM   15  C13 UNL     1      25.569  -0.579  53.836  1.00  0.00     0.009 A 
HETATM   16  C14 UNL     1      26.450   0.462  54.063  1.00  0.00    -0.028 A 
HETATM   17  C15 UNL     1      27.804   0.324  54.650  1.00  0.00     0.051 C 
HETATM   18  C16 UNL     1      25.976   1.696  53.694  1.00  0.00     0.079 A 
BRANCH  18  19
HETATM   19  O1  UNL     1      26.818   2.780  53.904  1.00  0.00    -0.360 OA
HETATM   20  H15 UNL     1      26.630   3.714  53.574  1.00  0.00     0.217 HD
ENDBRANCH  18  19
ENDBRANCH  11  12
ENDBRANCH   1  11
BRANCH   1  21
HETATM   21  C17 UNL     1      21.924   3.438  51.849  1.00  0.00     0.174 C 
HETATM   22  S1  UNL     1      21.222   4.850  51.400  1.00  0.00    -0.041 SA
BRANCH  21  23
HETATM   23  N2  UNL     1      20.874   2.733  52.457  1.00  0.00    -0.333 N 
HETATM   24  H16 UNL     1      20.613   3.522  53.079  1.00  0.00     0.168 HD
BRANCH  23  25
HETATM   25  C18 UNL     1      20.138   1.546  52.548  1.00  0.00     0.034 A 
HETATM   26  C19 UNL     1      20.414   0.554  53.459  1.00  0.00     0.029 A 
HETATM   27  C20 UNL     1      19.670  -0.602  53.524  1.00  0.00     0.002 A 
HETATM   28  C21 UNL     1      18.656  -0.651  52.610  1.00  0.00     0.000 A 
HETATM   29  C22 UNL     1      18.314   0.293  51.670  1.00  0.00     0.002 A 
HETATM   30  C23 UNL     1      19.091   1.413  51.658  1.00  0.00     0.029 A 
ENDBRANCH  23  25
ENDBRANCH  21  23
ENDBRANCH   1  21
TORSDOF 8
ENDMDL
MODEL 8
REMARK VINA RESULT:      -8.5      2.664      6.882
REMARK  8 active torsions:
REMARK  status: ('A' for Active; 'I' for Inactive)
REMARK    1  A    between atoms: C7_8  and  C8_9 
REMARK    2  A    between atoms: C8_9  and  N1_10 
REMARK    3  A    between atoms: N1_10  and  C9_11 
REMARK    4  A    between atoms: N1_10  and  C17_20 
REMARK    5  A    between atoms: C9_11  and  C10_12 
REMARK    6  A    between atoms: C16_18  and  O1_19 
REMARK    7  A    between atoms: C17_20  and  N2_22 
REMARK    8  A    between atoms: N2_22  and  C18_23 
ROOT
HETATM    1  N1  UNL     1      24.152   2.822  51.242  1.00  0.00    -0.349 N 
ENDROOT
BRANCH   1   2
HETATM    2  C8  UNL     1      24.464   2.843  49.825  1.00  0.00     0.164 C 
BRANCH   2   3
HETATM    3  C7  UNL     1      25.417   3.909  49.431  1.00  0.00    -0.031 C 
HETATM    4  C2  UNL     1      25.047   5.285  49.142  1.00  0.00    -0.010 C 
HETATM    5  C1  UNL     1      23.807   5.682  49.201  1.00  0.00     0.047 C 
HETATM    6  C3  UNL     1      26.007   6.314  48.763  1.00  0.00     0.134 C 
HETATM    7  F1  UNL     1      25.668   7.628  48.713  1.00  0.00    -0.205 F 
HETATM    8  C4  UNL     1      27.216   5.926  48.471  1.00  0.00     0.016 C 
HETATM    9  C5  UNL     1      27.646   4.773  48.927  1.00  0.00     0.016 C 
HETATM   10  C6  UNL     1      26.731   3.704  49.309  1.00  0.00     0.010 C 
ENDBRANCH   2   3
ENDBRANCH   1   2
BRANCH   1  11
HETATM   11  C9  UNL     1      25.061   3.003  52.331  1.00  0.00     0.167 C 
BRANCH  11  12
HETATM   12  C10 UNL     1      25.987   1.910  52.621  1.00  0.00    -0.007 A 
HETATM   13  C11 UNL     1      25.688   0.722  51.945  1.00  0.00     0.011 A 
HETATM   14  C12 UNL     1      26.456  -0.437  52.056  1.00  0.00     0.001 A 
HETATM   15  C13 UNL     1      27.569  -0.390  52.885  1.00  0.00     0.009 A 
HETATM   16  C14 UNL     1      27.934   0.743  53.589  1.00  0.00    -0.028 A 
HETATM   17  C15 UNL     1      29.109   0.851  54.486  1.00  0.00     0.051 C 
HETATM   18  C16 UNL     1      27.103   1.819  53.399  1.00  0.00     0.079 A 
BRANCH  18  19
HETATM   19  O1  UNL     1      27.420   2.984  54.087  1.00  0.00    -0.360 OA
HETATM   20  H15 UNL     1      28.181   3.597  53.837  1.00  0.00     0.217 HD
ENDBRANCH  18  19
ENDBRANCH  11  12
ENDBRANCH   1  11
BRANCH   1  21
HETATM   21  C17 UNL     1      22.783   2.575  51.638  1.00  0.00     0.174 C 
HETATM   22  S1  UNL     1      21.575   3.233  50.745  1.00  0.00    -0.041 SA
BRANCH  21  23
HETATM   23  N2  UNL     1      22.100   1.873  52.642  1.00  0.00    -0.333 N 
HETATM   24  H16 UNL     1      21.595   2.715  52.982  1.00  0.00     0.168 HD
BRANCH  23  25
HETATM   25  C18 UNL     1      21.860   0.654  53.286  1.00  0.00     0.034 A 
HETATM   26  C19 UNL     1      20.628   0.044  53.316  1.00  0.00     0.029 A 
HETATM   27  C20 UNL     1      20.425  -1.156  53.958  1.00  0.00     0.002 A 
HETATM   28  C21 UNL     1      21.553  -1.659  54.544  1.00  0.00     0.000 A 
HETATM   29  C22 UNL     1      22.816  -1.116  54.560  1.00  0.00     0.002 A 
HETATM   30  C23 UNL     1      22.948   0.073  53.907  1.00  0.00     0.029 A 
ENDBRANCH  23  25
ENDBRANCH  21  23
ENDBRANCH   1  21
TORSDOF 8
ENDMDL
MODEL 9
REMARK VINA RESULT:      -8.2      3.058      5.781
REMARK  8 active torsions:
REMARK  status: ('A' for Active; 'I' for Inactive)
REMARK    1  A    between atoms: C7_8  and  C8_9 
REMARK    2  A    between atoms: C8_9  and  N1_10 
REMARK    3  A    between atoms: N1_10  and  C9_11 
REMARK    4  A    between atoms: N1_10  and  C17_20 
REMARK    5  A    between atoms: C9_11  and  C10_12 
REMARK    6  A    between atoms: C16_18  and  O1_19 
REMARK    7  A    between atoms: C17_20  and  N2_22 
REMARK    8  A    between atoms: N2_22  and  C18_23 
ROOT
HETATM    1  N1  UNL     1      24.289   3.504  51.310  1.00  0.00    -0.349 N 
ENDROOT
BRANCH   1   2
HETATM    2  C8  UNL     1      23.651   3.252  52.588  1.00  0.00     0.164 C 
BRANCH   2   3
HETATM    3  C7  UNL     1      23.068   1.894  52.716  1.00  0.00    -0.031 C 
HETATM    4  C2  UNL     1      21.643   1.603  52.745  1.00  0.00    -0.010 C 
HETATM    5  C1  UNL     1      20.754   2.553  52.669  1.00  0.00     0.047 C 
HETATM    6  C3  UNL     1      21.098   0.257  52.866  1.00  0.00     0.134 C 
HETATM    7  F1  UNL     1      19.781  -0.004  52.671  1.00  0.00    -0.205 F 
HETATM    8  C4  UNL     1      21.929  -0.699  53.169  1.00  0.00     0.016 C 
HETATM    9  C5  UNL     1      23.210  -0.535  52.930  1.00  0.00     0.016 C 
HETATM   10  C6  UNL     1      23.810   0.788  52.812  1.00  0.00     0.010 C 
ENDBRANCH   2   3
ENDBRANCH   1   2
BRANCH   1  11
HETATM   11  C9  UNL     1      23.686   4.053  50.135  1.00  0.00     0.167 C 
BRANCH  11  12
HETATM   12  C10 UNL     1      22.468   3.411  49.644  1.00  0.00    -0.007 A 
HETATM   13  C11 UNL     1      22.656   2.090  49.222  1.00  0.00     0.011 A 
HETATM   14  C12 UNL     1      21.624   1.284  48.742  1.00  0.00     0.001 A 
HETATM   15  C13 UNL     1      20.352   1.839  48.687  1.00  0.00     0.009 A 
HETATM   16  C14 UNL     1      20.080   3.136  49.084  1.00  0.00    -0.028 A 
HETATM   17  C15 UNL     1      18.746   3.780  49.048  1.00  0.00     0.051 C 
HETATM   18  C16 UNL     1      21.174   3.830  49.538  1.00  0.00     0.079 A 
BRANCH  18  19
HETATM   19  O1  UNL     1      20.960   5.140  49.945  1.00  0.00    -0.360 OA
HETATM   20  H15 UNL     1      21.541   5.627  50.611  1.00  0.00     0.217 HD
ENDBRANCH  18  19
ENDBRANCH  11  12
ENDBRANCH   1  11
BRANCH   1  21
HETATM   21  C17 UNL     1      25.686   3.160  51.163  1.00  0.00     0.174 C 
HETATM   22  S1  UNL     1      26.357   3.221  49.668  1.00  0.00    -0.041 SA
BRANCH  21  23
HETATM   23  N2  UNL     1      26.752   2.757  51.982  1.00  0.00    -0.333 N 
HETATM   24  H16 UNL     1      27.137   3.717  52.069  1.00  0.00     0.168 HD
BRANCH  23  25
HETATM   25  C18 UNL     1      27.416   1.715  52.638  1.00  0.00     0.034 A 
HETATM   26  C19 UNL     1      27.155   0.386  52.405  1.00  0.00     0.029 A 
HETATM   27  C20 UNL     1      27.827  -0.616  53.067  1.00  0.00     0.002 A 
HETATM   28  C21 UNL     1      28.756  -0.154  53.956  1.00  0.00     0.000 A 
HETATM   29  C22 UNL     1      29.077   1.151  54.248  1.00  0.00     0.002 A 
HETATM   30  C23 UNL     1      28.375   2.093  53.558  1.00  0.00     0.029 A 
ENDBRANCH  23  25
ENDBRANCH  21  23
ENDBRANCH   1  21
TORSDOF 8
ENDMDL
