MODEL 1
REMARK VINA RESULT:      -9.4      0.000      0.000
REMARK  3 active torsions:
REMARK  status: ('A' for Active; 'I' for Inactive)
REMARK    1  A    between atoms: O1_2  and  C2_3 
REMARK    2  A    between atoms: C8_11  and  N3_12 
REMARK    3  A    between atoms: N3_12  and  C9_13 
ROOT
HETATM    1  C2  UNL     1      21.803   2.191  49.842  1.00  0.00     0.126 C 
HETATM    2  C3  UNL     1      22.295   1.528  50.850  1.00  0.00     0.093 A 
HETATM    3  C4  UNL     1      23.167   0.982  51.871  1.00  0.00    -0.023 A 
HETATM    4  C5  UNL     1      22.782   0.044  52.903  1.00  0.00     0.033 A 
HETATM    5  C6  UNL     1      21.573  -0.598  52.906  1.00  0.00     0.133 A 
HETATM    6  N1  UNL     1      21.408  -1.402  53.957  1.00  0.00    -0.253 NA
HETATM    7  C7  UNL     1      22.334  -1.562  54.911  1.00  0.00     0.234 A 
HETATM    8  N2  UNL     1      23.528  -0.916  54.892  1.00  0.00    -0.224 NA
HETATM    9  C8  UNL     1      23.759  -0.083  53.850  1.00  0.00     0.141 A 
HETATM   10  C15 UNL     1      23.887   1.811  51.165  1.00  0.00     0.190 A 
HETATM   11  O2  UNL     1      25.200   2.240  51.187  1.00  0.00    -0.270 OA
HETATM   12  N4  UNL     1      25.581   3.560  51.009  1.00  0.00    -0.078 NA
HETATM   13  O3  UNL     1      24.527   4.354  51.316  1.00  0.00    -0.281 OA
HETATM   14  C16 UNL     1      24.411   5.438  50.451  1.00  0.00     0.198 C 
HETATM   15  C17 UNL     1      23.047   6.047  50.734  1.00  0.00     0.048 C 
HETATM   16  C18 UNL     1      22.034   4.947  50.493  1.00  0.00     0.119 C 
HETATM   17  N5  UNL     1      22.165   4.496  49.150  1.00  0.00    -0.401 N 
HETATM   18  C19 UNL     1      21.468   5.191  48.151  1.00  0.00     0.143 C 
HETATM   19  C20 UNL     1      20.576   4.331  47.327  1.00  0.00     0.187 C 
HETATM   20  O4  UNL     1      20.962   3.032  47.157  1.00  0.00    -0.387 OA
HETATM   21  C21 UNL     1      22.285   2.790  47.506  1.00  0.00     0.195 C 
HETATM   22  C22 UNL     1      22.512   3.146  48.961  1.00  0.00     0.141 C 
HETATM   23  H12 UNL     1      26.377   3.801  51.630  1.00  0.00     0.188 HD
ENDROOT
BRANCH   1  24
HETATM   24  O1  UNL     1      20.509   2.235  49.265  1.00  0.00    -0.379 OA
HETATM   25  C1  UNL     1      19.354   1.971  50.026  1.00  0.00     0.202 C 
ENDBRANCH   1  24
BRANCH   9  26
HETATM   26  N3  UNL     1      25.002   0.559  53.917  1.00  0.00    -0.340 N 
HETATM   27  H7  UNL     1      25.212   1.560  54.177  1.00  0.00     0.167 HD
BRANCH  26  28
HETATM   28  C9  UNL     1      26.161  -0.234  53.581  1.00  0.00     0.035 A 
HETATM   29  C10 UNL     1      26.068  -1.465  52.947  1.00  0.00     0.032 A 
HETATM   30  C11 UNL     1      27.170  -2.217  52.628  1.00  0.00     0.046 A 
HETATM   31  C12 UNL     1      28.434  -1.768  52.932  1.00  0.00     0.138 A 
HETATM   32  F1  UNL     1      29.573  -2.443  52.654  1.00  0.00    -0.204 F 
HETATM   33  C13 UNL     1      28.574  -0.544  53.566  1.00  0.00     0.074 A 
HETATM   34 CL1  UNL     1      30.147   0.100  53.989  1.00  0.00    -0.081 Cl
HETATM   35  C14 UNL     1      27.441   0.168  53.862  1.00  0.00     0.056 A 
ENDBRANCH  26  28
ENDBRANCH   9  26
TORSDOF 3
ENDMDL
MODEL 2
REMARK VINA RESULT:      -9.3      1.595      2.026
REMARK  3 active torsions:
REMARK  status: ('A' for Active; 'I' for Inactive)
REMARK    1  A    between atoms: O1_2  and  C2_3 
REMARK    2  A    between atoms: C8_11  and  N3_12 
REMARK    3  A    between atoms: N3_12  and  C9_13 
ROOT
HETATM    1  C2  UNL     1      22.158   3.741  49.363  1.00  0.00     0.126 C 
HETATM    2  C3  UNL     1      22.817   2.988  50.197  1.00  0.00     0.093 A 
HETATM    3  C4  UNL     1      23.851   2.363  50.999  1.00  0.00    -0.023 A 
HETATM    4  C5  UNL     1      23.652   1.298  51.958  1.00  0.00     0.033 A 
HETATM    5  C6  UNL     1      22.473   0.612  52.069  1.00  0.00     0.133 A 
HETATM    6  N1  UNL     1      22.494  -0.314  53.029  1.00  0.00    -0.253 NA
HETATM    7  C7  UNL     1      23.560  -0.545  53.803  1.00  0.00     0.234 A 
HETATM    8  N2  UNL     1      24.722   0.146  53.679  1.00  0.00    -0.224 NA
HETATM    9  C8  UNL     1      24.769   1.103  52.722  1.00  0.00     0.141 A 
HETATM   10  C15 UNL     1      24.433   3.296  50.296  1.00  0.00     0.190 A 
HETATM   11  O2  UNL     1      25.723   3.772  50.167  1.00  0.00    -0.270 OA
HETATM   12  N4  UNL     1      26.042   5.118  50.093  1.00  0.00    -0.078 NA
HETATM   13  O3  UNL     1      25.032   5.829  50.650  1.00  0.00    -0.281 OA
HETATM   14  C16 UNL     1      24.758   6.999  49.949  1.00  0.00     0.198 C 
HETATM   15  C17 UNL     1      23.443   7.516  50.508  1.00  0.00     0.048 C 
HETATM   16  C18 UNL     1      22.429   6.412  50.295  1.00  0.00     0.119 C 
HETATM   17  N5  UNL     1      22.357   6.124  48.904  1.00  0.00    -0.401 N 
HETATM   18  C19 UNL     1      21.497   6.899  48.114  1.00  0.00     0.143 C 
HETATM   19  C20 UNL     1      20.505   6.105  47.340  1.00  0.00     0.187 C 
HETATM   20  O4  UNL     1      20.889   4.850  46.958  1.00  0.00    -0.387 OA
HETATM   21  C21 UNL     1      22.255   4.623  47.069  1.00  0.00     0.195 C 
HETATM   22  C22 UNL     1      22.700   4.819  48.504  1.00  0.00     0.141 C 
HETATM   23  H12 UNL     1      26.920   5.319  50.608  1.00  0.00     0.188 HD
ENDROOT
BRANCH   1  24
HETATM   24  O1  UNL     1      20.790   3.799  49.000  1.00  0.00    -0.379 OA
HETATM   25  C1  UNL     1      19.769   3.533  49.933  1.00  0.00     0.202 C 
ENDBRANCH   1  24
BRANCH   9  26
HETATM   26  N3  UNL     1      25.992   1.782  52.674  1.00  0.00    -0.340 N 
HETATM   27  H7  UNL     1      26.180   2.778  52.381  1.00  0.00     0.167 HD
BRANCH  26  28
HETATM   28  C9  UNL     1      27.165   1.036  53.065  1.00  0.00     0.035 A 
HETATM   29  C10 UNL     1      28.251   1.625  53.696  1.00  0.00     0.032 A 
HETATM   30  C11 UNL     1      29.365   0.915  54.067  1.00  0.00     0.046 A 
HETATM   31  C12 UNL     1      29.446  -0.436  53.821  1.00  0.00     0.138 A 
HETATM   32  F1  UNL     1      30.503  -1.212  54.153  1.00  0.00    -0.204 F 
HETATM   33  C13 UNL     1      28.385  -1.066  53.192  1.00  0.00     0.074 A 
HETATM   34 CL1  UNL     1      28.408  -2.782  52.841  1.00  0.00    -0.081 Cl
HETATM   35  C14 UNL     1      27.295  -0.311  52.843  1.00  0.00     0.056 A 
ENDBRANCH  26  28
ENDBRANCH   9  26
TORSDOF 3
ENDMDL
MODEL 3
REMARK VINA RESULT:      -9.2      1.620      1.997
REMARK  3 active torsions:
REMARK  status: ('A' for Active; 'I' for Inactive)
REMARK    1  A    between atoms: O1_2  and  C2_3 
REMARK    2  A    between atoms: C8_11  and  N3_12 
REMARK    3  A    between atoms: N3_12  and  C9_13 
ROOT
HETATM    1  C2  UNL     1      20.774   1.752  50.999  1.00  0.00     0.126 C 
HETATM    2  C3  UNL     1      21.752   1.268  51.710  1.00  0.00     0.093 A 
HETATM    3  C4  UNL     1      23.053   0.954  52.266  1.00  0.00    -0.023 A 
HETATM    4  C5  UNL     1      23.307   0.075  53.387  1.00  0.00     0.033 A 
HETATM    5  C6  UNL     1      22.342  -0.730  53.930  1.00  0.00     0.133 A 
HETATM    6  N1  UNL     1      22.779  -1.443  54.969  1.00  0.00    -0.253 NA
HETATM    7  C7  UNL     1      24.033  -1.376  55.431  1.00  0.00     0.234 A 
HETATM    8  N2  UNL     1      24.977  -0.571  54.879  1.00  0.00    -0.224 NA
HETATM    9  C8  UNL     1      24.599   0.182  53.820  1.00  0.00     0.141 A 
HETATM   10  C15 UNL     1      23.253   1.805  51.297  1.00  0.00     0.190 A 
HETATM   11  O2  UNL     1      24.357   2.417  50.735  1.00  0.00    -0.270 OA
HETATM   12  N4  UNL     1      24.395   3.754  50.377  1.00  0.00    -0.078 NA
HETATM   13  O3  UNL     1      23.451   4.416  51.089  1.00  0.00    -0.281 OA
HETATM   14  C16 UNL     1      22.797   5.383  50.332  1.00  0.00     0.198 C 
HETATM   15  C17 UNL     1      21.599   5.815  51.162  1.00  0.00     0.048 C 
HETATM   16  C18 UNL     1      20.784   4.564  51.413  1.00  0.00     0.119 C 
HETATM   17  N5  UNL     1      20.409   4.008  50.159  1.00  0.00    -0.401 N 
HETATM   18  C19 UNL     1      19.247   4.495  49.543  1.00  0.00     0.143 C 
HETATM   19  C20 UNL     1      18.251   3.440  49.210  1.00  0.00     0.187 C 
HETATM   20  O4  UNL     1      18.745   2.200  48.922  1.00  0.00    -0.387 OA
HETATM   21  C21 UNL     1      20.112   2.184  48.670  1.00  0.00     0.195 C 
HETATM   22  C22 UNL     1      20.869   2.709  49.873  1.00  0.00     0.141 C 
HETATM   23  H12 UNL     1      25.325   4.166  50.585  1.00  0.00     0.188 HD
ENDROOT
BRANCH   1  24
HETATM   24  O1  UNL     1      19.371   1.555  51.039  1.00  0.00    -0.379 OA
HETATM   25  C1  UNL     1      18.789   0.572  51.863  1.00  0.00     0.202 C 
ENDBRANCH   1  24
BRANCH   9  26
HETATM   26  N3  UNL     1      25.623   0.998  53.324  1.00  0.00    -0.340 N 
HETATM   27  H7  UNL     1      25.544   1.933  52.842  1.00  0.00     0.167 HD
BRANCH  26  28
HETATM   28  C9  UNL     1      26.974   0.510  53.476  1.00  0.00     0.035 A 
HETATM   29  C10 UNL     1      28.018   1.316  53.905  1.00  0.00     0.032 A 
HETATM   30  C11 UNL     1      29.300   0.851  54.050  1.00  0.00     0.046 A 
HETATM   31  C12 UNL     1      29.604  -0.460  53.768  1.00  0.00     0.138 A 
HETATM   32  F1  UNL     1      30.838  -1.002  53.883  1.00  0.00    -0.204 F 
HETATM   33  C13 UNL     1      28.592  -1.302  53.336  1.00  0.00     0.074 A 
HETATM   34 CL1  UNL     1      28.892  -2.985  52.954  1.00  0.00    -0.081 Cl
HETATM   35  C14 UNL     1      27.328  -0.788  53.209  1.00  0.00     0.056 A 
ENDBRANCH  26  28
ENDBRANCH   9  26
TORSDOF 3
ENDMDL
MODEL 4
REMARK VINA RESULT:      -9.1      2.204      3.192
REMARK  3 active torsions:
REMARK  status: ('A' for Active; 'I' for Inactive)
REMARK    1  A    between atoms: O1_2  and  C2_3 
REMARK    2  A    between atoms: C8_11  and  N3_12 
REMARK    3  A    between atoms: N3_12  and  C9_13 
ROOT
HETATM    1  C2  UNL     1      19.104   0.674  51.612  1.00  0.00     0.126 C 
HETATM    2  C3  UNL     1      20.255   0.333  52.120  1.00  0.00     0.093 A 
HETATM    3  C4  UNL     1      21.669   0.126  52.363  1.00  0.00    -0.023 A 
HETATM    4  C5  UNL     1      22.245  -0.515  53.525  1.00  0.00     0.033 A 
HETATM    5  C6  UNL     1      21.492  -1.189  54.448  1.00  0.00     0.133 A 
HETATM    6  N1  UNL     1      22.216  -1.686  55.452  1.00  0.00    -0.253 NA
HETATM    7  C7  UNL     1      23.542  -1.537  55.545  1.00  0.00     0.234 A 
HETATM    8  N2  UNL     1      24.273  -0.864  54.620  1.00  0.00    -0.224 NA
HETATM    9  C8  UNL     1      23.599  -0.333  53.573  1.00  0.00     0.141 A 
HETATM   10  C15 UNL     1      21.571   0.767  51.230  1.00  0.00     0.190 A 
HETATM   11  O2  UNL     1      22.462   1.248  50.290  1.00  0.00    -0.270 OA
HETATM   12  N4  UNL     1      22.345   2.488  49.683  1.00  0.00    -0.078 NA
HETATM   13  O3  UNL     1      21.589   3.284  50.478  1.00  0.00    -0.281 OA
HETATM   14  C16 UNL     1      20.717   4.086  49.748  1.00  0.00     0.198 C 
HETATM   15  C17 UNL     1      19.758   4.682  50.766  1.00  0.00     0.048 C 
HETATM   16  C18 UNL     1      19.093   3.511  51.459  1.00  0.00     0.119 C 
HETATM   17  N5  UNL     1      18.431   2.721  50.479  1.00  0.00    -0.401 N 
HETATM   18  C19 UNL     1      17.128   3.084  50.110  1.00  0.00     0.143 C 
HETATM   19  C20 UNL     1      16.129   1.991  50.261  1.00  0.00     0.187 C 
HETATM   20  O4  UNL     1      16.588   0.715  50.098  1.00  0.00    -0.387 OA
HETATM   21  C21 UNL     1      17.841   0.640  49.502  1.00  0.00     0.195 C 
HETATM   22  C22 UNL     1      18.860   1.388  50.338  1.00  0.00     0.141 C 
HETATM   23  H12 UNL     1      23.276   2.926  49.555  1.00  0.00     0.188 HD
ENDROOT
BRANCH   1  24
HETATM   24  O1  UNL     1      17.771   0.498  52.058  1.00  0.00    -0.379 OA
HETATM   25  C1  UNL     1      17.402  -0.596  52.866  1.00  0.00     0.202 C 
ENDBRANCH   1  24
BRANCH   9  26
HETATM   26  N3  UNL     1      24.421   0.362  52.677  1.00  0.00    -0.340 N 
HETATM   27  H7  UNL     1      24.139   0.983  51.872  1.00  0.00     0.167 HD
BRANCH  26  28
HETATM   28  C9  UNL     1      25.847   0.214  52.855  1.00  0.00     0.035 A 
HETATM   29  C10 UNL     1      26.498  -1.002  52.710  1.00  0.00     0.032 A 
HETATM   30  C11 UNL     1      27.851  -1.141  52.879  1.00  0.00     0.046 A 
HETATM   31  C12 UNL     1      28.630  -0.055  53.206  1.00  0.00     0.138 A 
HETATM   32  F1  UNL     1      29.969  -0.101  53.390  1.00  0.00    -0.204 F 
HETATM   33  C13 UNL     1      28.022   1.180  53.361  1.00  0.00     0.074 A 
HETATM   34 CL1  UNL     1      28.939   2.613  53.778  1.00  0.00    -0.081 Cl
HETATM   35  C14 UNL     1      26.666   1.264  53.180  1.00  0.00     0.056 A 
ENDBRANCH  26  28
ENDBRANCH   9  26
TORSDOF 3
ENDMDL
MODEL 5
REMARK VINA RESULT:      -9.1      3.489      5.551
REMARK  3 active torsions:
REMARK  status: ('A' for Active; 'I' for Inactive)
REMARK    1  A    between atoms: O1_2  and  C2_3 
REMARK    2  A    between atoms: C8_11  and  N3_12 
REMARK    3  A    between atoms: N3_12  and  C9_13 
ROOT
HETATM    1  C2  UNL     1      25.452   4.850  50.067  1.00  0.00     0.126 C 
HETATM    2  C3  UNL     1      25.281   3.826  50.854  1.00  0.00     0.093 A 
HETATM    3  C4  UNL     1      24.811   2.914  51.878  1.00  0.00    -0.023 A 
HETATM    4  C5  UNL     1      25.316   1.580  52.123  1.00  0.00     0.033 A 
HETATM    5  C6  UNL     1      26.453   1.100  51.532  1.00  0.00     0.133 A 
HETATM    6  N1  UNL     1      26.731  -0.159  51.875  1.00  0.00    -0.253 NA
HETATM    7  C7  UNL     1      25.972  -0.876  52.712  1.00  0.00     0.234 A 
HETATM    8  N2  UNL     1      24.847  -0.382  53.290  1.00  0.00    -0.224 NA
HETATM    9  C8  UNL     1      24.507   0.892  52.982  1.00  0.00     0.141 A 
HETATM   10  C15 UNL     1      24.077   3.989  51.966  1.00  0.00     0.190 A 
HETATM   11  O2  UNL     1      23.031   4.405  52.768  1.00  0.00    -0.270 OA
HETATM   12  N4  UNL     1      21.914   5.070  52.290  1.00  0.00    -0.078 NA
HETATM   13  O3  UNL     1      21.784   4.795  50.970  1.00  0.00    -0.281 OA
HETATM   14  C16 UNL     1      21.380   5.905  50.235  1.00  0.00     0.198 C 
HETATM   15  C17 UNL     1      21.567   5.523  48.776  1.00  0.00     0.048 C 
HETATM   16  C18 UNL     1      23.030   5.168  48.614  1.00  0.00     0.119 C 
HETATM   17  N5  UNL     1      23.814   6.294  48.990  1.00  0.00    -0.401 N 
HETATM   18  C19 UNL     1      24.070   7.272  48.019  1.00  0.00     0.143 C 
HETATM   19  C20 UNL     1      25.516   7.557  47.814  1.00  0.00     0.187 C 
HETATM   20  O4  UNL     1      26.333   7.396  48.897  1.00  0.00    -0.387 OA
HETATM   21  C21 UNL     1      25.651   7.301  50.104  1.00  0.00     0.195 C 
HETATM   22  C22 UNL     1      24.698   6.124  50.072  1.00  0.00     0.141 C 
HETATM   23  H12 UNL     1      21.057   4.756  52.786  1.00  0.00     0.188 HD
ENDROOT
BRANCH   1  24
HETATM   24  O1  UNL     1      26.352   5.099  49.001  1.00  0.00    -0.379 OA
HETATM   25  C1  UNL     1      27.540   4.357  48.852  1.00  0.00     0.202 C 
ENDBRANCH   1  24
BRANCH   9  26
HETATM   26  N3  UNL     1      23.324   1.316  53.601  1.00  0.00    -0.340 N 
HETATM   27  H7  UNL     1      23.211   1.929  54.452  1.00  0.00     0.167 HD
BRANCH  26  28
HETATM   28  C9  UNL     1      22.085   0.859  53.017  1.00  0.00     0.035 A 
HETATM   29  C10 UNL     1      21.147   0.127  53.730  1.00  0.00     0.032 A 
HETATM   30  C11 UNL     1      19.970  -0.307  53.175  1.00  0.00     0.046 A 
HETATM   31  C12 UNL     1      19.671  -0.025  51.863  1.00  0.00     0.138 A 
HETATM   32  F1  UNL     1      18.537  -0.412  51.235  1.00  0.00    -0.204 F 
HETATM   33  C13 UNL     1      20.580   0.703  51.112  1.00  0.00     0.074 A 
HETATM   34 CL1  UNL     1      20.278   1.104  49.433  1.00  0.00    -0.081 Cl
HETATM   35  C14 UNL     1      21.741   1.114  51.715  1.00  0.00     0.056 A 
ENDBRANCH  26  28
ENDBRANCH   9  26
TORSDOF 3
ENDMDL
MODEL 6
REMARK VINA RESULT:      -9.1      3.132      6.649
REMARK  3 active torsions:
REMARK  status: ('A' for Active; 'I' for Inactive)
REMARK    1  A    between atoms: O1_2  and  C2_3 
REMARK    2  A    between atoms: C8_11  and  N3_12 
REMARK    3  A    between atoms: N3_12  and  C9_13 
ROOT
HETATM    1  C2  UNL     1      21.369   1.335  52.130  1.00  0.00     0.126 C 
HETATM    2  C3  UNL     1      21.611   2.382  51.393  1.00  0.00     0.093 A 
HETATM    3  C4  UNL     1      22.116   3.636  50.870  1.00  0.00    -0.023 A 
HETATM    4  C5  UNL     1      21.770   4.223  49.594  1.00  0.00     0.033 A 
HETATM    5  C6  UNL     1      20.752   3.749  48.812  1.00  0.00     0.133 A 
HETATM    6  N1  UNL     1      20.614   4.419  47.667  1.00  0.00    -0.253 NA
HETATM    7  C7  UNL     1      21.394   5.449  47.321  1.00  0.00     0.234 A 
HETATM    8  N2  UNL     1      22.400   5.907  48.110  1.00  0.00    -0.224 NA
HETATM    9  C8  UNL     1      22.595   5.269  49.288  1.00  0.00     0.141 A 
HETATM   10  C15 UNL     1      22.698   3.447  52.023  1.00  0.00     0.190 A 
HETATM   11  O2  UNL     1      23.618   4.139  52.787  1.00  0.00    -0.270 OA
HETATM   12  N4  UNL     1      24.673   3.536  53.451  1.00  0.00    -0.078 NA
HETATM   13  O3  UNL     1      24.936   2.350  52.851  1.00  0.00    -0.281 OA
HETATM   14  C16 UNL     1      25.247   1.350  53.767  1.00  0.00     0.198 C 
HETATM   15  C17 UNL     1      25.221   0.049  52.981  1.00  0.00     0.048 C 
HETATM   16  C18 UNL     1      23.832  -0.060  52.389  1.00  0.00     0.119 C 
HETATM   17  N5  UNL     1      22.884  -0.041  53.449  1.00  0.00    -0.401 N 
HETATM   18  C19 UNL     1      22.577  -1.255  54.080  1.00  0.00     0.143 C 
HETATM   19  C20 UNL     1      21.126  -1.584  54.087  1.00  0.00     0.187 C 
HETATM   20  O4  UNL     1      20.258  -0.529  54.109  1.00  0.00    -0.387 OA
HETATM   21  C21 UNL     1      20.854   0.681  54.444  1.00  0.00     0.195 C 
HETATM   22  C22 UNL     1      21.951   1.012  53.453  1.00  0.00     0.141 C 
HETATM   23  H12 UNL     1      25.524   4.130  53.410  1.00  0.00     0.188 HD
ENDROOT
BRANCH   1  24
HETATM   24  O1  UNL     1      20.527   0.210  51.948  1.00  0.00    -0.379 OA
HETATM   25  C1  UNL     1      19.381   0.272  51.132  1.00  0.00     0.202 C 
ENDBRANCH   1  24
BRANCH   9  26
HETATM   26  N3  UNL     1      23.663   5.788  50.030  1.00  0.00    -0.340 N 
HETATM   27  H7  UNL     1      23.631   6.386  50.899  1.00  0.00     0.167 HD
BRANCH  26  28
HETATM   28  C9  UNL     1      24.993   5.481  49.557  1.00  0.00     0.035 A 
HETATM   29  C10 UNL     1      25.583   4.238  49.734  1.00  0.00     0.032 A 
HETATM   30  C11 UNL     1      26.845   3.948  49.283  1.00  0.00     0.046 A 
HETATM   31  C12 UNL     1      27.587   4.899  48.624  1.00  0.00     0.138 A 
HETATM   32  F1  UNL     1      28.837   4.700  48.146  1.00  0.00    -0.204 F 
HETATM   33  C13 UNL     1      27.038   6.156  48.424  1.00  0.00     0.074 A 
HETATM   34 CL1  UNL     1      27.916   7.425  47.596  1.00  0.00    -0.081 Cl
HETATM   35  C14 UNL     1      25.773   6.394  48.894  1.00  0.00     0.056 A 
ENDBRANCH  26  28
ENDBRANCH   9  26
TORSDOF 3
ENDMDL
MODEL 7
REMARK VINA RESULT:      -8.9      4.624      6.664
REMARK  3 active torsions:
REMARK  status: ('A' for Active; 'I' for Inactive)
REMARK    1  A    between atoms: O1_2  and  C2_3 
REMARK    2  A    between atoms: C8_11  and  N3_12 
REMARK    3  A    between atoms: N3_12  and  C9_13 
ROOT
HETATM    1  C2  UNL     1      26.887   7.818  48.027  1.00  0.00     0.126 C 
HETATM    2  C3  UNL     1      26.467   6.783  48.698  1.00  0.00     0.093 A 
HETATM    3  C4  UNL     1      26.312   5.465  49.281  1.00  0.00    -0.023 A 
HETATM    4  C5  UNL     1      25.272   5.063  50.202  1.00  0.00     0.033 A 
HETATM    5  C6  UNL     1      24.180   5.843  50.473  1.00  0.00     0.133 A 
HETATM    6  N1  UNL     1      23.354   5.297  51.366  1.00  0.00    -0.253 NA
HETATM    7  C7  UNL     1      23.572   4.107  51.937  1.00  0.00     0.234 A 
HETATM    8  N2  UNL     1      24.662   3.346  51.657  1.00  0.00    -0.224 NA
HETATM    9  C8  UNL     1      25.543   3.843  50.757  1.00  0.00     0.141 A 
HETATM   10  C15 UNL     1      27.386   5.425  48.541  1.00  0.00     0.190 A 
HETATM   11  O2  UNL     1      28.328   4.465  48.222  1.00  0.00    -0.270 OA
HETATM   12  N4  UNL     1      29.689   4.713  48.167  1.00  0.00    -0.078 NA
HETATM   13  O3  UNL     1      29.957   5.806  48.923  1.00  0.00    -0.281 OA
HETATM   14  C16 UNL     1      30.914   6.631  48.340  1.00  0.00     0.198 C 
HETATM   15  C17 UNL     1      30.883   7.924  49.139  1.00  0.00     0.048 C 
HETATM   16  C18 UNL     1      29.466   8.449  49.041  1.00  0.00     0.119 C 
HETATM   17  N5  UNL     1      29.149   8.645  47.668  1.00  0.00    -0.401 N 
HETATM   18  C19 UNL     1      29.511   9.863  47.076  1.00  0.00     0.143 C 
HETATM   19  C20 UNL     1      28.378  10.587  46.438  1.00  0.00     0.187 C 
HETATM   20  O4  UNL     1      27.368   9.818  45.931  1.00  0.00    -0.387 OA
HETATM   21  C21 UNL     1      27.697   8.475  45.799  1.00  0.00     0.195 C 
HETATM   22  C22 UNL     1      28.076   7.898  47.148  1.00  0.00     0.141 C 
HETATM   23  H12 UNL     1      30.227   3.907  48.538  1.00  0.00     0.188 HD
ENDROOT
BRANCH   1  24
HETATM   24  O1  UNL     1      26.398   9.142  47.903  1.00  0.00    -0.379 OA
HETATM   25  C1  UNL     1      25.725   9.781  48.962  1.00  0.00     0.202 C 
ENDBRANCH   1  24
BRANCH   9  26
HETATM   26  N3  UNL     1      26.647   3.009  50.541  1.00  0.00    -0.340 N 
HETATM   27  H7  UNL     1      27.247   2.924  49.677  1.00  0.00     0.167 HD
BRANCH  26  28
HETATM   28  C9  UNL     1      27.025   2.137  51.628  1.00  0.00     0.035 A 
HETATM   29  C10 UNL     1      27.746   2.581  52.727  1.00  0.00     0.032 A 
HETATM   30  C11 UNL     1      28.104   1.752  53.759  1.00  0.00     0.046 A 
HETATM   31  C12 UNL     1      27.754   0.422  53.741  1.00  0.00     0.138 A 
HETATM   32  F1  UNL     1      28.065  -0.465  54.715  1.00  0.00    -0.204 F 
HETATM   33  C13 UNL     1      27.034  -0.065  52.662  1.00  0.00     0.074 A 
HETATM   34 CL1  UNL     1      26.549  -1.745  52.560  1.00  0.00    -0.081 Cl
HETATM   35  C14 UNL     1      26.701   0.806  51.658  1.00  0.00     0.056 A 
ENDBRANCH  26  28
ENDBRANCH   9  26
TORSDOF 3
ENDMDL
MODEL 8
REMARK VINA RESULT:      -8.8      3.667      5.703
REMARK  3 active torsions:
REMARK  status: ('A' for Active; 'I' for Inactive)
REMARK    1  A    between atoms: O1_2  and  C2_3 
REMARK    2  A    between atoms: C8_11  and  N3_12 
REMARK    3  A    between atoms: N3_12  and  C9_13 
ROOT
HETATM    1  C2  UNL     1      21.120   1.930  51.332  1.00  0.00     0.126 C 
HETATM    2  C3  UNL     1      22.416   2.025  51.228  1.00  0.00     0.093 A 
HETATM    3  C4  UNL     1      23.769   2.204  50.739  1.00  0.00    -0.023 A 
HETATM    4  C5  UNL     1      24.974   2.133  51.536  1.00  0.00     0.033 A 
HETATM    5  C6  UNL     1      24.982   1.682  52.828  1.00  0.00     0.133 A 
HETATM    6  N1  UNL     1      26.192   1.719  53.389  1.00  0.00    -0.253 NA
HETATM    7  C7  UNL     1      27.284   2.154  52.751  1.00  0.00     0.234 A 
HETATM    8  N2  UNL     1      27.257   2.599  51.468  1.00  0.00    -0.224 NA
HETATM    9  C8  UNL     1      26.058   2.589  50.839  1.00  0.00     0.141 A 
HETATM   10  C15 UNL     1      22.974   2.381  49.719  1.00  0.00     0.190 A 
HETATM   11  O2  UNL     1      23.141   2.677  48.380  1.00  0.00    -0.270 OA
HETATM   12  N4  UNL     1      22.351   3.580  47.689  1.00  0.00    -0.078 NA
HETATM   13  O3  UNL     1      21.792   4.432  48.582  1.00  0.00    -0.281 OA
HETATM   14  C16 UNL     1      20.472   4.740  48.266  1.00  0.00     0.198 C 
HETATM   15  C17 UNL     1      19.909   5.445  49.489  1.00  0.00     0.048 C 
HETATM   16  C18 UNL     1      20.063   4.477  50.644  1.00  0.00     0.119 C 
HETATM   17  N5  UNL     1      19.361   3.281  50.329  1.00  0.00    -0.401 N 
HETATM   18  C19 UNL     1      17.991   3.224  50.623  1.00  0.00     0.143 C 
HETATM   19  C20 UNL     1      17.603   2.073  51.484  1.00  0.00     0.187 C 
HETATM   20  O4  UNL     1      18.356   0.939  51.366  1.00  0.00    -0.387 OA
HETATM   21  C21 UNL     1      19.166   0.918  50.236  1.00  0.00     0.195 C 
HETATM   22  C22 UNL     1      20.117   2.096  50.256  1.00  0.00     0.141 C 
HETATM   23  H12 UNL     1      22.918   4.126  47.012  1.00  0.00     0.188 HD
ENDROOT
BRANCH   1  24
HETATM   24  O1  UNL     1      20.265   1.655  52.428  1.00  0.00    -0.379 OA
HETATM   25  C1  UNL     1      20.741   1.017  53.591  1.00  0.00     0.202 C 
ENDBRANCH   1  24
BRANCH   9  26
HETATM   26  N3  UNL     1      26.113   3.082  49.530  1.00  0.00    -0.340 N 
HETATM   27  H7  UNL     1      26.009   2.553  48.623  1.00  0.00     0.167 HD
BRANCH  26  28
HETATM   28  C9  UNL     1      26.351   4.499  49.379  1.00  0.00     0.035 A 
HETATM   29  C10 UNL     1      25.511   5.461  49.922  1.00  0.00     0.032 A 
HETATM   30  C11 UNL     1      25.738   6.806  49.779  1.00  0.00     0.046 A 
HETATM   31  C12 UNL     1      26.831   7.259  49.076  1.00  0.00     0.138 A 
HETATM   32  F1  UNL     1      27.131   8.564  48.886  1.00  0.00    -0.204 F 
HETATM   33  C13 UNL     1      27.696   6.333  48.516  1.00  0.00     0.074 A 
HETATM   34 CL1  UNL     1      29.109   6.825  47.606  1.00  0.00    -0.081 Cl
HETATM   35  C14 UNL     1      27.424   5.001  48.690  1.00  0.00     0.056 A 
ENDBRANCH  26  28
ENDBRANCH   9  26
TORSDOF 3
ENDMDL
MODEL 9
REMARK VINA RESULT:      -8.5      3.717      7.082
REMARK  3 active torsions:
REMARK  status: ('A' for Active; 'I' for Inactive)
REMARK    1  A    between atoms: O1_2  and  C2_3 
REMARK    2  A    between atoms: C8_11  and  N3_12 
REMARK    3  A    between atoms: N3_12  and  C9_13 
ROOT
HETATM    1  C2  UNL     1      20.926   3.619  49.928  1.00  0.00     0.126 C 
HETATM    2  C3  UNL     1      21.610   4.541  49.312  1.00  0.00     0.093 A 
HETATM    3  C4  UNL     1      22.536   5.605  48.978  1.00  0.00    -0.023 A 
HETATM    4  C5  UNL     1      22.698   6.210  47.674  1.00  0.00     0.033 A 
HETATM    5  C6  UNL     1      21.835   5.978  46.638  1.00  0.00     0.133 A 
HETATM    6  N1  UNL     1      22.177   6.615  45.517  1.00  0.00    -0.253 NA
HETATM    7  C7  UNL     1      23.256   7.401  45.420  1.00  0.00     0.234 A 
HETATM    8  N2  UNL     1      24.102   7.620  46.459  1.00  0.00    -0.224 NA
HETATM    9  C8  UNL     1      23.812   7.001  47.628  1.00  0.00     0.141 A 
HETATM   10  C15 UNL     1      22.727   5.321  50.238  1.00  0.00     0.190 A 
HETATM   11  O2  UNL     1      23.560   5.787  51.237  1.00  0.00    -0.270 OA
HETATM   12  N4  UNL     1      24.214   4.964  52.138  1.00  0.00    -0.078 NA
HETATM   13  O3  UNL     1      24.315   3.727  51.594  1.00  0.00    -0.281 OA
HETATM   14  C16 UNL     1      24.110   2.718  52.529  1.00  0.00     0.198 C 
HETATM   15  C17 UNL     1      23.961   1.436  51.726  1.00  0.00     0.048 C 
HETATM   16  C18 UNL     1      22.796   1.658  50.785  1.00  0.00     0.119 C 
HETATM   17  N5  UNL     1      21.640   1.958  51.558  1.00  0.00    -0.401 N 
HETATM   18  C19 UNL     1      20.880   0.887  52.050  1.00  0.00     0.143 C 
HETATM   19  C20 UNL     1      19.444   0.936  51.665  1.00  0.00     0.187 C 
HETATM   20  O4  UNL     1      18.899   2.176  51.488  1.00  0.00    -0.387 OA
HETATM   21  C21 UNL     1      19.673   3.208  52.004  1.00  0.00     0.195 C 
HETATM   22  C22 UNL     1      21.038   3.212  51.347  1.00  0.00     0.141 C 
HETATM   23  H12 UNL     1      25.167   5.322  52.341  1.00  0.00     0.188 HD
ENDROOT
BRANCH   1  24
HETATM   24  O1  UNL     1      19.903   2.737  49.497  1.00  0.00    -0.379 OA
HETATM   25  C1  UNL     1      19.279   2.890  48.244  1.00  0.00     0.202 C 
ENDBRANCH   1  24
BRANCH   9  26
HETATM   26  N3  UNL     1      24.744   7.261  48.640  1.00  0.00    -0.340 N 
HETATM   27  H7  UNL     1      24.630   7.865  49.499  1.00  0.00     0.167 HD
BRANCH  26  28
HETATM   28  C9  UNL     1      26.040   6.637  48.507  1.00  0.00     0.035 A 
HETATM   29  C10 UNL     1      26.291   5.337  48.922  1.00  0.00     0.032 A 
HETATM   30  C11 UNL     1      27.521   4.746  48.794  1.00  0.00     0.046 A 
HETATM   31  C12 UNL     1      28.574   5.435  48.238  1.00  0.00     0.138 A 
HETATM   32  F1  UNL     1      29.818   4.931  48.073  1.00  0.00    -0.204 F 
HETATM   33  C13 UNL     1      28.368   6.737  47.810  1.00  0.00     0.074 A 
HETATM   34 CL1  UNL     1      29.654   7.685  47.092  1.00  0.00    -0.081 Cl
HETATM   35  C14 UNL     1      27.119   7.281  47.960  1.00  0.00     0.056 A 
ENDBRANCH  26  28
ENDBRANCH   9  26
TORSDOF 3
ENDMDL
