MODEL 1
REMARK VINA RESULT:      -9.0      0.000      0.000
REMARK  4 active torsions:
REMARK  status: ('A' for Active; 'I' for Inactive)
REMARK    1  A    between atoms: C1_2  and  O2_3 
REMARK    2  A    between atoms: C1_2  and  C2_4 
REMARK    3  A    between atoms: S1_13  and  N2_14 
REMARK    4  A    between atoms: N2_14  and  C10_15 
ROOT
HETATM    1  C2  UNL     1      27.218  -0.902  53.051  1.00  0.00     0.038 A 
HETATM    2  C3  UNL     1      26.027  -1.222  53.646  1.00  0.00     0.021 A 
HETATM    3  C4  UNL     1      24.932  -0.383  53.609  1.00  0.00     0.039 A 
HETATM    4  C5  UNL     1      25.093   0.809  52.936  1.00  0.00     0.086 A 
HETATM    5  C6  UNL     1      26.256   1.211  52.310  1.00  0.00    -0.006 A 
HETATM    6  C7  UNL     1      27.321   0.304  52.394  1.00  0.00     0.029 A 
HETATM    7  C8  UNL     1      26.736   2.352  51.550  1.00  0.00     0.162 C 
HETATM    8  N1  UNL     1      25.749   3.200  50.971  1.00  0.00    -0.375 N 
HETATM    9  C9  UNL     1      24.362   3.309  51.201  1.00  0.00     0.151 A 
HETATM   10  S1  UNL     1      23.651   4.455  50.279  1.00  0.00     0.053 SA
HETATM   11  N3  UNL     1      21.887   4.596  50.569  1.00  0.00    -0.194 NA
HETATM   12  C15 UNL     1      21.493   3.740  51.479  1.00  0.00     0.246 A 
HETATM   13  N4  UNL     1      22.239   2.798  52.199  1.00  0.00    -0.214 NA
HETATM   14  C16 UNL     1      23.496   2.572  52.111  1.00  0.00     0.207 A 
HETATM   15  O3  UNL     1      23.936   1.568  52.963  1.00  0.00    -0.289 OA
HETATM   16  H7  UNL     1      26.122   3.855  50.251  1.00  0.00     0.160 HD
ENDROOT
BRANCH  10  17
HETATM   17  N2  UNL     1      24.582   5.430  49.124  1.00  0.00    -0.316 N 
HETATM   18  H8  UNL     1      24.233   5.522  48.129  1.00  0.00     0.175 HD
BRANCH  17  19
HETATM   19  C10 UNL     1      25.790   6.121  49.418  1.00  0.00     0.053 C 
HETATM   20  C11 UNL     1      25.792   7.190  50.197  1.00  0.00     0.018 C 
HETATM   21  P1  UNL     1      26.545   8.454  49.472  1.00  0.00    -0.002 P 
HETATM   22  C12 UNL     1      27.996   7.958  48.420  1.00  0.00     0.251 C 
HETATM   23  F1  UNL     1      29.210   8.456  48.850  1.00  0.00    -0.238 F 
HETATM   24  C13 UNL     1      27.988   6.473  48.437  1.00  0.00     0.052 C 
HETATM   25 CL1  UNL     1      29.468   5.817  47.784  1.00  0.00    -0.085 Cl
HETATM   26  C14 UNL     1      27.040   5.662  48.865  1.00  0.00     0.053 C 
ENDBRANCH  17  19
ENDBRANCH  10  17
BRANCH   1  27
HETATM   27  C1  UNL     1      28.359  -1.818  53.112  1.00  0.00     0.176 C 
HETATM   28  O1  UNL     1      29.517  -1.457  53.443  1.00  0.00    -0.646 OA
BRANCH  27  29
HETATM   29  O2  UNL     1      28.171  -3.153  52.792  1.00  0.00    -0.773 OA
HETATM   30  H1  UNL     1      28.394  -3.536  51.883  1.00  0.00     0.167 HD
ENDBRANCH  27  29
ENDBRANCH   1  27
TORSDOF 4
ENDMDL
MODEL 2
REMARK VINA RESULT:      -8.9      6.422      8.334
REMARK  4 active torsions:
REMARK  status: ('A' for Active; 'I' for Inactive)
REMARK    1  A    between atoms: C1_2  and  O2_3 
REMARK    2  A    between atoms: C1_2  and  C2_4 
REMARK    3  A    between atoms: S1_13  and  N2_14 
REMARK    4  A    between atoms: N2_14  and  C10_15 
ROOT
HETATM    1  C2  UNL     1      27.587  -0.079  53.167  1.00  0.00     0.038 A 
HETATM    2  C3  UNL     1      27.720   1.214  52.735  1.00  0.00     0.021 A 
HETATM    3  C4  UNL     1      26.636   1.982  52.357  1.00  0.00     0.039 A 
HETATM    4  C5  UNL     1      25.398   1.380  52.433  1.00  0.00     0.086 A 
HETATM    5  C6  UNL     1      25.175   0.085  52.856  1.00  0.00    -0.006 A 
HETATM    6  C7  UNL     1      26.326  -0.628  53.222  1.00  0.00     0.029 A 
HETATM    7  C8  UNL     1      24.049  -0.811  53.046  1.00  0.00     0.162 C 
HETATM    8  N1  UNL     1      22.762  -0.212  53.151  1.00  0.00    -0.375 N 
HETATM    9  C9  UNL     1      22.311   1.089  52.848  1.00  0.00     0.151 A 
HETATM   10  S1  UNL     1      20.716   1.296  53.138  1.00  0.00     0.053 SA
HETATM   11  N3  UNL     1      20.140   2.950  52.754  1.00  0.00    -0.194 NA
HETATM   12  C15 UNL     1      21.121   3.695  52.307  1.00  0.00     0.246 A 
HETATM   13  N4  UNL     1      22.469   3.368  52.108  1.00  0.00    -0.214 NA
HETATM   14  C16 UNL     1      23.036   2.242  52.331  1.00  0.00     0.207 A 
HETATM   15  O3  UNL     1      24.391   2.239  52.031  1.00  0.00    -0.289 OA
HETATM   16  H7  UNL     1      22.024  -0.852  53.518  1.00  0.00     0.160 HD
ENDROOT
BRANCH  10  17
HETATM   17  N2  UNL     1      19.707  -0.021  53.770  1.00  0.00    -0.316 N 
HETATM   18  H8  UNL     1      19.735  -0.239  54.806  1.00  0.00     0.175 HD
BRANCH  17  19
HETATM   19  C10 UNL     1      18.839  -0.837  52.994  1.00  0.00     0.053 C 
HETATM   20  C11 UNL     1      18.377  -0.422  51.826  1.00  0.00     0.018 C 
HETATM   21  P1  UNL     1      16.743  -0.540  51.756  1.00  0.00    -0.002 P 
HETATM   22  C12 UNL     1      16.059  -2.018  52.654  1.00  0.00     0.251 C 
HETATM   23  F1  UNL     1      15.406  -2.926  51.845  1.00  0.00    -0.238 F 
HETATM   24  C13 UNL     1      17.235  -2.636  53.317  1.00  0.00     0.052 C 
HETATM   25 CL1  UNL     1      16.859  -4.226  53.935  1.00  0.00    -0.085 Cl
HETATM   26  C14 UNL     1      18.447  -2.138  53.474  1.00  0.00     0.053 C 
ENDBRANCH  17  19
ENDBRANCH  10  17
BRANCH   1  27
HETATM   27  C1  UNL     1      28.759  -0.864  53.560  1.00  0.00     0.176 C 
HETATM   28  O1  UNL     1      29.820  -0.347  53.997  1.00  0.00    -0.646 OA
BRANCH  27  29
HETATM   29  O2  UNL     1      28.716  -2.245  53.453  1.00  0.00    -0.773 OA
HETATM   30  H1  UNL     1      27.938  -2.797  53.786  1.00  0.00     0.167 HD
ENDBRANCH  27  29
ENDBRANCH   1  27
TORSDOF 4
ENDMDL
MODEL 3
REMARK VINA RESULT:      -8.9      4.365      7.012
REMARK  4 active torsions:
REMARK  status: ('A' for Active; 'I' for Inactive)
REMARK    1  A    between atoms: C1_2  and  O2_3 
REMARK    2  A    between atoms: C1_2  and  C2_4 
REMARK    3  A    between atoms: S1_13  and  N2_14 
REMARK    4  A    between atoms: N2_14  and  C10_15 
ROOT
HETATM    1  C2  UNL     1      28.510   6.164  48.162  1.00  0.00     0.038 A 
HETATM    2  C3  UNL     1      27.697   7.264  48.237  1.00  0.00     0.021 A 
HETATM    3  C4  UNL     1      26.405   7.197  48.719  1.00  0.00     0.039 A 
HETATM    4  C5  UNL     1      25.963   5.956  49.126  1.00  0.00     0.086 A 
HETATM    5  C6  UNL     1      26.715   4.799  49.084  1.00  0.00    -0.006 A 
HETATM    6  C7  UNL     1      28.015   4.950  48.582  1.00  0.00     0.029 A 
HETATM    7  C8  UNL     1      26.557   3.395  49.421  1.00  0.00     0.162 C 
HETATM    8  N1  UNL     1      25.506   3.064  50.323  1.00  0.00    -0.375 N 
HETATM    9  C9  UNL     1      24.395   3.808  50.774  1.00  0.00     0.151 A 
HETATM   10  S1  UNL     1      23.454   2.977  51.819  1.00  0.00     0.053 SA
HETATM   11  N3  UNL     1      22.041   3.919  52.394  1.00  0.00    -0.194 NA
HETATM   12  C15 UNL     1      22.028   5.116  51.861  1.00  0.00     0.246 A 
HETATM   13  N4  UNL     1      22.927   5.698  50.957  1.00  0.00    -0.214 NA
HETATM   14  C16 UNL     1      23.977   5.166  50.454  1.00  0.00     0.207 A 
HETATM   15  O3  UNL     1      24.660   6.008  49.587  1.00  0.00    -0.289 OA
HETATM   16  H7  UNL     1      25.572   2.102  50.718  1.00  0.00     0.160 HD
ENDROOT
BRANCH  10  17
HETATM   17  N2  UNL     1      23.841   1.312  52.300  1.00  0.00    -0.316 N 
HETATM   18  H8  UNL     1      23.160   0.536  52.063  1.00  0.00     0.175 HD
BRANCH  17  19
HETATM   19  C10 UNL     1      25.013   0.909  52.996  1.00  0.00     0.053 C 
HETATM   20  C11 UNL     1      25.677   1.759  53.763  1.00  0.00     0.018 C 
HETATM   21  P1  UNL     1      27.268   1.802  53.364  1.00  0.00    -0.002 P 
HETATM   22  C12 UNL     1      27.954   0.155  52.838  1.00  0.00     0.251 C 
HETATM   23  F1  UNL     1      28.947  -0.339  53.659  1.00  0.00    -0.238 F 
HETATM   24  C13 UNL     1      26.779  -0.753  52.808  1.00  0.00     0.052 C 
HETATM   25 CL1  UNL     1      27.266  -2.424  52.663  1.00  0.00    -0.085 Cl
HETATM   26  C14 UNL     1      25.498  -0.443  52.875  1.00  0.00     0.053 C 
ENDBRANCH  17  19
ENDBRANCH  10  17
BRANCH   1  27
HETATM   27  C1  UNL     1      29.876   6.274  47.645  1.00  0.00     0.176 C 
HETATM   28  O1  UNL     1      30.309   7.293  47.050  1.00  0.00    -0.646 OA
BRANCH  27  29
HETATM   29  O2  UNL     1      30.749   5.210  47.811  1.00  0.00    -0.773 OA
HETATM   30  H1  UNL     1      30.448   4.245  47.793  1.00  0.00     0.167 HD
ENDBRANCH  27  29
ENDBRANCH   1  27
TORSDOF 4
ENDMDL
MODEL 4
REMARK VINA RESULT:      -8.8      1.952      2.101
REMARK  4 active torsions:
REMARK  status: ('A' for Active; 'I' for Inactive)
REMARK    1  A    between atoms: C1_2  and  O2_3 
REMARK    2  A    between atoms: C1_2  and  C2_4 
REMARK    3  A    between atoms: S1_13  and  N2_14 
REMARK    4  A    between atoms: N2_14  and  C10_15 
ROOT
HETATM    1  C2  UNL     1      27.759  -0.792  53.276  1.00  0.00     0.038 A 
HETATM    2  C3  UNL     1      26.730  -1.656  53.011  1.00  0.00     0.021 A 
HETATM    3  C4  UNL     1      25.419  -1.234  52.904  1.00  0.00     0.039 A 
HETATM    4  C5  UNL     1      25.190   0.114  53.077  1.00  0.00     0.086 A 
HETATM    5  C6  UNL     1      26.166   1.052  53.346  1.00  0.00    -0.006 A 
HETATM    6  C7  UNL     1      27.470   0.544  53.441  1.00  0.00     0.029 A 
HETATM    7  C8  UNL     1      26.257   2.483  53.575  1.00  0.00     0.162 C 
HETATM    8  N1  UNL     1      25.164   3.276  53.122  1.00  0.00    -0.375 N 
HETATM    9  C9  UNL     1      23.861   2.923  52.714  1.00  0.00     0.151 A 
HETATM   10  S1  UNL     1      22.956   4.213  52.282  1.00  0.00     0.053 SA
HETATM   11  N3  UNL     1      21.299   3.768  51.762  1.00  0.00    -0.194 NA
HETATM   12  C15 UNL     1      21.122   2.471  51.826  1.00  0.00     0.246 A 
HETATM   13  N4  UNL     1      22.015   1.468  52.226  1.00  0.00    -0.214 NA
HETATM   14  C16 UNL     1      23.223   1.617  52.622  1.00  0.00     0.207 A 
HETATM   15  O3  UNL     1      23.847   0.421  52.948  1.00  0.00    -0.289 OA
HETATM   16  H7  UNL     1      25.367   4.298  53.089  1.00  0.00     0.160 HD
ENDROOT
BRANCH  10  17
HETATM   17  N2  UNL     1      23.603   5.866  52.343  1.00  0.00    -0.316 N 
HETATM   18  H8  UNL     1      23.550   6.406  53.253  1.00  0.00     0.175 HD
BRANCH  17  19
HETATM   19  C10 UNL     1      24.202   6.555  51.254  1.00  0.00     0.053 C 
HETATM   20  C11 UNL     1      23.741   7.729  50.853  1.00  0.00     0.018 C 
HETATM   21  P1  UNL     1      23.434   7.728  49.242  1.00  0.00    -0.002 P 
HETATM   22  C12 UNL     1      24.635   6.713  48.250  1.00  0.00     0.251 C 
HETATM   23  F1  UNL     1      25.382   7.437  47.342  1.00  0.00    -0.238 F 
HETATM   24  C13 UNL     1      25.504   6.058  49.260  1.00  0.00     0.052 C 
HETATM   25 CL1  UNL     1      26.907   5.328  48.521  1.00  0.00    -0.085 Cl
HETATM   26  C14 UNL     1      25.331   5.980  50.566  1.00  0.00     0.053 C 
ENDBRANCH  17  19
ENDBRANCH  10  17
BRANCH   1  27
HETATM   27  C1  UNL     1      29.137  -1.275  53.383  1.00  0.00     0.176 C 
HETATM   28  O1  UNL     1      30.132  -0.511  53.469  1.00  0.00    -0.646 OA
BRANCH  27  29
HETATM   29  O2  UNL     1      29.376  -2.641  53.391  1.00  0.00    -0.773 OA
HETATM   30  H1  UNL     1      30.010  -3.090  52.746  1.00  0.00     0.167 HD
ENDBRANCH  27  29
ENDBRANCH   1  27
TORSDOF 4
ENDMDL
MODEL 5
REMARK VINA RESULT:      -8.6      3.092      3.964
REMARK  4 active torsions:
REMARK  status: ('A' for Active; 'I' for Inactive)
REMARK    1  A    between atoms: C1_2  and  O2_3 
REMARK    2  A    between atoms: C1_2  and  C2_4 
REMARK    3  A    between atoms: S1_13  and  N2_14 
REMARK    4  A    between atoms: N2_14  and  C10_15 
ROOT
HETATM    1  C2  UNL     1      27.412   0.953  53.441  1.00  0.00     0.038 A 
HETATM    2  C3  UNL     1      26.955  -0.322  53.648  1.00  0.00     0.021 A 
HETATM    3  C4  UNL     1      25.609  -0.627  53.689  1.00  0.00     0.039 A 
HETATM    4  C5  UNL     1      24.734   0.422  53.510  1.00  0.00     0.086 A 
HETATM    5  C6  UNL     1      25.108   1.734  53.296  1.00  0.00    -0.006 A 
HETATM    6  C7  UNL     1      26.491   1.962  53.269  1.00  0.00     0.029 A 
HETATM    7  C8  UNL     1      24.468   3.020  53.080  1.00  0.00     0.162 C 
HETATM    8  N1  UNL     1      23.111   2.997  52.648  1.00  0.00    -0.375 N 
HETATM    9  C9  UNL     1      22.155   1.961  52.628  1.00  0.00     0.151 A 
HETATM   10  S1  UNL     1      20.710   2.437  52.035  1.00  0.00     0.053 SA
HETATM   11  N3  UNL     1      19.492   1.121  52.010  1.00  0.00    -0.194 NA
HETATM   12  C15 UNL     1      19.997   0.007  52.477  1.00  0.00     0.246 A 
HETATM   13  N4  UNL     1      21.286  -0.253  52.961  1.00  0.00    -0.214 NA
HETATM   14  C16 UNL     1      22.264   0.569  53.046  1.00  0.00     0.207 A 
HETATM   15  O3  UNL     1      23.417   0.001  53.571  1.00  0.00    -0.289 OA
HETATM   16  H7  UNL     1      22.767   3.911  52.282  1.00  0.00     0.160 HD
ENDROOT
BRANCH  10  17
HETATM   17  N2  UNL     1      20.432   4.103  51.487  1.00  0.00    -0.316 N 
HETATM   18  H8  UNL     1      19.630   4.655  51.905  1.00  0.00     0.175 HD
BRANCH  17  19
HETATM   19  C10 UNL     1      21.205   4.787  50.510  1.00  0.00     0.053 C 
HETATM   20  C11 UNL     1      21.363   4.289  49.295  1.00  0.00     0.018 C 
HETATM   21  P1  UNL     1      22.950   4.207  48.887  1.00  0.00    -0.002 P 
HETATM   22  C12 UNL     1      23.968   5.614  49.551  1.00  0.00     0.251 C 
HETATM   23  F1  UNL     1      24.536   6.416  48.581  1.00  0.00    -0.238 F 
HETATM   24  C13 UNL     1      23.034   6.387  50.408  1.00  0.00     0.052 C 
HETATM   25 CL1  UNL     1      23.707   7.935  50.855  1.00  0.00    -0.085 Cl
HETATM   26  C14 UNL     1      21.833   6.044  50.833  1.00  0.00     0.053 C 
ENDBRANCH  17  19
ENDBRANCH  10  17
BRANCH   1  27
HETATM   27  C1  UNL     1      28.848   1.239  53.403  1.00  0.00     0.176 C 
HETATM   28  O1  UNL     1      29.731   0.347  53.483  1.00  0.00    -0.646 OA
BRANCH  27  29
HETATM   29  O2  UNL     1      29.272   2.552  53.274  1.00  0.00    -0.773 OA
HETATM   30  H1  UNL     1      28.926   3.172  52.555  1.00  0.00     0.167 HD
ENDBRANCH  27  29
ENDBRANCH   1  27
TORSDOF 4
ENDMDL
MODEL 6
REMARK VINA RESULT:      -8.4      4.891      7.483
REMARK  4 active torsions:
REMARK  status: ('A' for Active; 'I' for Inactive)
REMARK    1  A    between atoms: C1_2  and  O2_3 
REMARK    2  A    between atoms: C1_2  and  C2_4 
REMARK    3  A    between atoms: S1_13  and  N2_14 
REMARK    4  A    between atoms: N2_14  and  C10_15 
ROOT
HETATM    1  C2  UNL     1      29.147   6.066  48.288  1.00  0.00     0.038 A 
HETATM    2  C3  UNL     1      28.646   7.340  48.310  1.00  0.00     0.021 A 
HETATM    3  C4  UNL     1      27.321   7.610  48.589  1.00  0.00     0.039 A 
HETATM    4  C5  UNL     1      26.513   6.524  48.848  1.00  0.00     0.086 A 
HETATM    5  C6  UNL     1      26.935   5.209  48.846  1.00  0.00    -0.006 A 
HETATM    6  C7  UNL     1      28.293   5.019  48.554  1.00  0.00     0.029 A 
HETATM    7  C8  UNL     1      26.366   3.891  49.067  1.00  0.00     0.162 C 
HETATM    8  N1  UNL     1      25.135   3.834  49.780  1.00  0.00    -0.375 N 
HETATM    9  C9  UNL     1      24.198   4.836  50.106  1.00  0.00     0.151 A 
HETATM   10  S1  UNL     1      22.918   4.264  50.946  1.00  0.00     0.053 SA
HETATM   11  N3  UNL     1      21.725   5.536  51.361  1.00  0.00    -0.194 NA
HETATM   12  C15 UNL     1      22.109   6.704  50.908  1.00  0.00     0.246 A 
HETATM   13  N4  UNL     1      23.261   7.045  50.187  1.00  0.00    -0.214 NA
HETATM   14  C16 UNL     1      24.204   6.263  49.814  1.00  0.00     0.207 A 
HETATM   15  O3  UNL     1      25.212   6.911  49.112  1.00  0.00    -0.289 OA
HETATM   16  H7  UNL     1      24.885   2.880  50.120  1.00  0.00     0.160 HD
ENDROOT
BRANCH  10  17
HETATM   17  N2  UNL     1      22.778   2.547  51.374  1.00  0.00    -0.316 N 
HETATM   18  H8  UNL     1      22.249   1.897  50.726  1.00  0.00     0.175 HD
BRANCH  17  19
HETATM   19  C10 UNL     1      23.323   1.943  52.540  1.00  0.00     0.053 C 
HETATM   20  C11 UNL     1      24.489   2.334  53.028  1.00  0.00     0.018 C 
HETATM   21  P1  UNL     1      25.501   1.061  53.242  1.00  0.00    -0.002 P 
HETATM   22  C12 UNL     1      24.642  -0.497  53.781  1.00  0.00     0.251 C 
HETATM   23  F1  UNL     1      25.019  -0.956  55.028  1.00  0.00    -0.238 F 
HETATM   24  C13 UNL     1      23.196  -0.165  53.746  1.00  0.00     0.052 C 
HETATM   25 CL1  UNL     1      22.238  -1.391  54.539  1.00  0.00    -0.085 Cl
HETATM   26  C14 UNL     1      22.607   0.888  53.211  1.00  0.00     0.053 C 
ENDBRANCH  17  19
ENDBRANCH  10  17
BRANCH   1  27
HETATM   27  C1  UNL     1      30.559   5.819  47.989  1.00  0.00     0.176 C 
HETATM   28  O1  UNL     1      31.131   6.252  46.956  1.00  0.00    -0.646 OA
BRANCH  27  29
HETATM   29  O2  UNL     1      31.317   5.071  48.876  1.00  0.00    -0.773 OA
HETATM   30  H1  UNL     1      30.937   4.302  49.411  1.00  0.00     0.167 HD
ENDBRANCH  27  29
ENDBRANCH   1  27
TORSDOF 4
ENDMDL
MODEL 7
REMARK VINA RESULT:      -8.3      3.959      5.229
REMARK  4 active torsions:
REMARK  status: ('A' for Active; 'I' for Inactive)
REMARK    1  A    between atoms: C1_2  and  O2_3 
REMARK    2  A    between atoms: C1_2  and  C2_4 
REMARK    3  A    between atoms: S1_13  and  N2_14 
REMARK    4  A    between atoms: N2_14  and  C10_15 
ROOT
HETATM    1  C2  UNL     1      24.589  -0.434  54.148  1.00  0.00     0.038 A 
HETATM    2  C3  UNL     1      25.917  -0.528  53.827  1.00  0.00     0.021 A 
HETATM    3  C4  UNL     1      26.483   0.196  52.797  1.00  0.00     0.039 A 
HETATM    4  C5  UNL     1      25.639   1.030  52.095  1.00  0.00     0.086 A 
HETATM    5  C6  UNL     1      24.291   1.184  52.350  1.00  0.00    -0.006 A 
HETATM    6  C7  UNL     1      23.794   0.415  53.412  1.00  0.00     0.029 A 
HETATM    7  C8  UNL     1      23.171   1.944  51.823  1.00  0.00     0.162 C 
HETATM    8  N1  UNL     1      23.484   3.092  51.041  1.00  0.00    -0.375 N 
HETATM    9  C9  UNL     1      24.690   3.512  50.443  1.00  0.00     0.151 A 
HETATM   10  S1  UNL     1      24.541   4.920  49.627  1.00  0.00     0.053 SA
HETATM   11  N3  UNL     1      26.073   5.457  48.866  1.00  0.00    -0.194 NA
HETATM   12  C15 UNL     1      27.040   4.608  49.111  1.00  0.00     0.246 A 
HETATM   13  N4  UNL     1      27.014   3.415  49.845  1.00  0.00    -0.214 NA
HETATM   14  C16 UNL     1      26.010   2.895  50.446  1.00  0.00     0.207 A 
HETATM   15  O3  UNL     1      26.310   1.702  51.089  1.00  0.00    -0.289 OA
HETATM   16  H7  UNL     1      22.677   3.732  50.884  1.00  0.00     0.160 HD
ENDROOT
BRANCH  10  17
HETATM   17  N2  UNL     1      22.993   5.784  49.538  1.00  0.00    -0.316 N 
HETATM   18  H8  UNL     1      22.874   6.685  50.082  1.00  0.00     0.175 HD
BRANCH  17  19
HETATM   19  C10 UNL     1      21.861   5.369  48.783  1.00  0.00     0.053 C 
HETATM   20  C11 UNL     1      20.667   5.272  49.344  1.00  0.00     0.018 C 
HETATM   21  P1  UNL     1      20.002   3.797  49.071  1.00  0.00    -0.002 P 
HETATM   22  C12 UNL     1      20.402   3.091  47.398  1.00  0.00     0.251 C 
HETATM   23  F1  UNL     1      19.306   2.902  46.581  1.00  0.00    -0.238 F 
HETATM   24  C13 UNL     1      21.360   4.055  46.799  1.00  0.00     0.052 C 
HETATM   25 CL1  UNL     1      21.597   3.748  45.097  1.00  0.00    -0.085 Cl
HETATM   26  C14 UNL     1      22.001   5.048  47.385  1.00  0.00     0.053 C 
ENDBRANCH  17  19
ENDBRANCH  10  17
BRANCH   1  27
HETATM   27  C1  UNL     1      24.025  -1.217  55.249  1.00  0.00     0.176 C 
HETATM   28  O1  UNL     1      22.794  -1.442  55.375  1.00  0.00    -0.646 OA
BRANCH  27  29
HETATM   29  O2  UNL     1      24.875  -1.745  56.208  1.00  0.00    -0.773 OA
HETATM   30  H1  UNL     1      24.560  -2.376  56.932  1.00  0.00     0.167 HD
ENDBRANCH  27  29
ENDBRANCH   1  27
TORSDOF 4
ENDMDL
MODEL 8
REMARK VINA RESULT:      -8.1      3.975      5.107
REMARK  4 active torsions:
REMARK  status: ('A' for Active; 'I' for Inactive)
REMARK    1  A    between atoms: C1_2  and  O2_3 
REMARK    2  A    between atoms: C1_2  and  C2_4 
REMARK    3  A    between atoms: S1_13  and  N2_14 
REMARK    4  A    between atoms: N2_14  and  C10_15 
ROOT
HETATM    1  C2  UNL     1      24.593  -0.444  54.149  1.00  0.00     0.038 A 
HETATM    2  C3  UNL     1      25.746  -0.792  53.496  1.00  0.00     0.021 A 
HETATM    3  C4  UNL     1      26.231  -0.076  52.420  1.00  0.00     0.039 A 
HETATM    4  C5  UNL     1      25.493   1.019  52.026  1.00  0.00     0.086 A 
HETATM    5  C6  UNL     1      24.323   1.439  52.626  1.00  0.00    -0.006 A 
HETATM    6  C7  UNL     1      23.897   0.660  53.711  1.00  0.00     0.029 A 
HETATM    7  C8  UNL     1      23.346   2.502  52.465  1.00  0.00     0.162 C 
HETATM    8  N1  UNL     1      23.758   3.647  51.727  1.00  0.00    -0.375 N 
HETATM    9  C9  UNL     1      24.865   3.863  50.880  1.00  0.00     0.151 A 
HETATM   10  S1  UNL     1      24.902   5.369  50.248  1.00  0.00     0.053 SA
HETATM   11  N3  UNL     1      26.308   5.646  49.171  1.00  0.00    -0.194 NA
HETATM   12  C15 UNL     1      27.055   4.572  49.092  1.00  0.00     0.246 A 
HETATM   13  N4  UNL     1      26.890   3.324  49.707  1.00  0.00    -0.214 NA
HETATM   14  C16 UNL     1      25.949   2.967  50.498  1.00  0.00     0.207 A 
HETATM   15  O3  UNL     1      26.070   1.657  50.942  1.00  0.00    -0.289 OA
HETATM   16  H7  UNL     1      23.128   4.471  51.833  1.00  0.00     0.160 HD
ENDROOT
BRANCH  10  17
HETATM   17  N2  UNL     1      23.648   6.567  50.626  1.00  0.00    -0.316 N 
HETATM   18  H8  UNL     1      23.873   7.355  51.298  1.00  0.00     0.175 HD
BRANCH  17  19
HETATM   19  C10 UNL     1      22.327   6.571  50.098  1.00  0.00     0.053 C 
HETATM   20  C11 UNL     1      21.939   5.654  49.228  1.00  0.00     0.018 C 
HETATM   21  P1  UNL     1      21.287   6.342  47.889  1.00  0.00    -0.002 P 
HETATM   22  C12 UNL     1      20.317   7.889  48.239  1.00  0.00     0.251 C 
HETATM   23  F1  UNL     1      18.974   7.804  47.929  1.00  0.00    -0.238 F 
HETATM   24  C13 UNL     1      20.519   8.145  49.687  1.00  0.00     0.052 C 
HETATM   25 CL1  UNL     1      19.418   9.362  50.283  1.00  0.00    -0.085 Cl
HETATM   26  C14 UNL     1      21.386   7.583  50.508  1.00  0.00     0.053 C 
ENDBRANCH  17  19
ENDBRANCH  10  17
BRANCH   1  27
HETATM   27  C1  UNL     1      24.109  -1.228  55.288  1.00  0.00     0.176 C 
HETATM   28  O1  UNL     1      22.905  -1.557  55.437  1.00  0.00    -0.646 OA
BRANCH  27  29
HETATM   29  O2  UNL     1      25.010  -1.634  56.260  1.00  0.00    -0.773 OA
HETATM   30  H1  UNL     1      25.291  -2.598  56.379  1.00  0.00     0.167 HD
ENDBRANCH  27  29
ENDBRANCH   1  27
TORSDOF 4
ENDMDL
MODEL 9
REMARK VINA RESULT:      -8.1      5.950      8.215
REMARK  4 active torsions:
REMARK  status: ('A' for Active; 'I' for Inactive)
REMARK    1  A    between atoms: C1_2  and  O2_3 
REMARK    2  A    between atoms: C1_2  and  C2_4 
REMARK    3  A    between atoms: S1_13  and  N2_14 
REMARK    4  A    between atoms: N2_14  and  C10_15 
ROOT
HETATM    1  C2  UNL     1      33.069   4.761  47.422  1.00  0.00     0.038 A 
HETATM    2  C3  UNL     1      33.635   5.890  46.893  1.00  0.00     0.021 A 
HETATM    3  C4  UNL     1      32.965   7.096  46.835  1.00  0.00     0.039 A 
HETATM    4  C5  UNL     1      31.682   7.112  47.340  1.00  0.00     0.086 A 
HETATM    5  C6  UNL     1      31.037   6.022  47.889  1.00  0.00    -0.006 A 
HETATM    6  C7  UNL     1      31.784   4.836  47.911  1.00  0.00     0.029 A 
HETATM    7  C8  UNL     1      29.747   5.715  48.482  1.00  0.00     0.162 C 
HETATM    8  N1  UNL     1      28.980   6.817  48.957  1.00  0.00    -0.375 N 
HETATM    9  C9  UNL     1      29.104   8.204  48.736  1.00  0.00     0.151 A 
HETATM   10  S1  UNL     1      27.958   9.078  49.507  1.00  0.00     0.053 SA
HETATM   11  N3  UNL     1      28.113  10.842  49.228  1.00  0.00    -0.194 NA
HETATM   12  C15 UNL     1      29.131  11.104  48.447  1.00  0.00     0.246 A 
HETATM   13  N4  UNL     1      30.045  10.227  47.848  1.00  0.00    -0.214 NA
HETATM   14  C16 UNL     1      30.073   8.950  47.946  1.00  0.00     0.207 A 
HETATM   15  O3  UNL     1      31.109   8.366  47.229  1.00  0.00    -0.289 OA
HETATM   16  H7  UNL     1      28.187   6.546  49.578  1.00  0.00     0.160 HD
ENDROOT
BRANCH  10  17
HETATM   17  N2  UNL     1      26.712   8.303  50.507  1.00  0.00    -0.316 N 
HETATM   18  H8  UNL     1      26.796   8.349  51.562  1.00  0.00     0.175 HD
BRANCH  17  19
HETATM   19  C10 UNL     1      25.578   7.602  50.011  1.00  0.00     0.053 C 
HETATM   20  C11 UNL     1      24.420   8.217  49.839  1.00  0.00     0.018 C 
HETATM   21  P1  UNL     1      23.203   7.413  50.590  1.00  0.00    -0.002 P 
HETATM   22  C12 UNL     1      23.390   5.564  50.551  1.00  0.00     0.251 C 
HETATM   23  F1  UNL     1      22.391   4.902  49.865  1.00  0.00    -0.238 F 
HETATM   24  C13 UNL     1      24.717   5.330  49.927  1.00  0.00     0.052 C 
HETATM   25 CL1  UNL     1      24.934   3.652  49.495  1.00  0.00    -0.085 Cl
HETATM   26  C14 UNL     1      25.677   6.201  49.686  1.00  0.00     0.053 C 
ENDBRANCH  17  19
ENDBRANCH  10  17
BRANCH   1  27
HETATM   27  C1  UNL     1      33.811   3.499  47.467  1.00  0.00     0.176 C 
HETATM   28  O1  UNL     1      33.566   2.527  46.708  1.00  0.00    -0.646 OA
BRANCH  27  29
HETATM   29  O2  UNL     1      34.838   3.351  48.386  1.00  0.00    -0.773 OA
HETATM   30  H1  UNL     1      35.019   4.023  49.119  1.00  0.00     0.167 HD
ENDBRANCH  27  29
ENDBRANCH   1  27
TORSDOF 4
ENDMDL
