MODEL 1
REMARK VINA RESULT:      -8.5      0.000      0.000
REMARK  5 active torsions:
REMARK  status: ('A' for Active; 'I' for Inactive)
REMARK    1  A    between atoms: C2_2  and  C3_3 
REMARK       I    between atoms: C3_3  and  N1_5 
REMARK    2  A    between atoms: N1_5  and  C4_6 
REMARK    3  A    between atoms: N2_8  and  C6_9 
REMARK    4  A    between atoms: C16_23  and  C17_24 
REMARK    5  A    between atoms: C17_24  and  N5_25 
ROOT
HETATM    1  C4  UNL     1      23.903   2.654  50.169  1.00  0.00     0.054 C 
HETATM    2  C5  UNL     1      24.517   2.321  51.276  1.00  0.00     0.123 C 
HETATM    3  N2  UNL     1      24.694   1.542  52.450  1.00  0.00    -0.336 N 
HETATM    4  C12 UNL     1      23.667   1.208  53.417  1.00  0.00     0.279 C 
HETATM    5  N3  UNL     1      22.845   0.177  52.759  1.00  0.00    -0.271 NA
HETATM    6  C13 UNL     1      21.827   0.473  52.054  1.00  0.00     0.163 C 
HETATM    7  N4  UNL     1      20.702   0.195  51.230  1.00  0.00    -0.304 NA
HETATM    8  C14 UNL     1      20.658   0.769  50.029  1.00  0.00     0.203 C 
HETATM    9  C15 UNL     1      21.906   1.498  50.089  1.00  0.00     0.094 C 
HETATM   10  C16 UNL     1      22.652   2.353  49.419  1.00  0.00    -0.028 C 
ENDROOT
BRANCH   3  11
HETATM   11  C6  UNL     1      25.970   0.937  52.764  1.00  0.00     0.037 A 
HETATM   12  C7  UNL     1      26.297  -0.361  52.485  1.00  0.00     0.033 A 
HETATM   13  C8  UNL     1      27.489  -0.984  52.768  1.00  0.00     0.046 A 
HETATM   14  C9  UNL     1      28.462  -0.215  53.403  1.00  0.00     0.138 A 
HETATM   15  F1  UNL     1      29.658  -0.775  53.706  1.00  0.00    -0.204 F 
HETATM   16  C10 UNL     1      28.186   1.099  53.705  1.00  0.00     0.074 A 
HETATM   17 CL1  UNL     1      29.474   1.997  54.505  1.00  0.00    -0.081 Cl
HETATM   18  C11 UNL     1      26.976   1.668  53.399  1.00  0.00     0.056 A 
ENDBRANCH   3  11
BRANCH   1  19
HETATM   19  N1  UNL     1      24.679   3.754  49.635  1.00  0.00    -0.326 N 
HETATM   20  C3  UNL     1      26.074   4.030  49.608  1.00  0.00     0.221 C 
HETATM   21  O1  UNL     1      27.126   3.500  50.000  1.00  0.00    -0.273 OA
HETATM   22  H6  UNL     1      24.050   4.481  49.172  1.00  0.00     0.169 HD
BRANCH  20  23
HETATM   23  C2  UNL     1      26.511   5.272  48.954  1.00  0.00     0.098 C 
HETATM   24  C1  UNL     1      27.934   5.198  48.520  1.00  0.00     0.014 C 
ENDBRANCH  20  23
ENDBRANCH   1  19
BRANCH  10  25
HETATM   25  C17 UNL     1      22.563   3.154  48.134  1.00  0.00     0.154 C 
BRANCH  25  26
HETATM   26  N5  UNL     1      21.279   3.745  48.053  1.00  0.00    -0.405 N 
HETATM   27  C18 UNL     1      21.185   5.154  48.186  1.00  0.00     0.143 C 
HETATM   28  C19 UNL     1      19.756   5.460  48.658  1.00  0.00     0.187 C 
HETATM   29  O2  UNL     1      18.995   4.322  48.738  1.00  0.00    -0.388 OA
HETATM   30  C20 UNL     1      18.978   3.579  47.569  1.00  0.00     0.187 C 
HETATM   31  C21 UNL     1      20.391   3.268  47.055  1.00  0.00     0.143 C 
ENDBRANCH  25  26
ENDBRANCH  10  25
TORSDOF 5
ENDMDL
MODEL 2
REMARK VINA RESULT:      -8.2      2.568      4.722
REMARK  5 active torsions:
REMARK  status: ('A' for Active; 'I' for Inactive)
REMARK    1  A    between atoms: C2_2  and  C3_3 
REMARK       I    between atoms: C3_3  and  N1_5 
REMARK    2  A    between atoms: N1_5  and  C4_6 
REMARK    3  A    between atoms: N2_8  and  C6_9 
REMARK    4  A    between atoms: C16_23  and  C17_24 
REMARK    5  A    between atoms: C17_24  and  N5_25 
ROOT
HETATM    1  C4  UNL     1      22.943   1.780  52.254  1.00  0.00     0.054 C 
HETATM    2  C5  UNL     1      24.184   1.513  51.935  1.00  0.00     0.123 C 
HETATM    3  N2  UNL     1      25.483   1.853  51.474  1.00  0.00    -0.336 N 
HETATM    4  C12 UNL     1      25.793   2.636  50.294  1.00  0.00     0.279 C 
HETATM    5  N3  UNL     1      25.471   4.026  50.664  1.00  0.00    -0.271 NA
HETATM    6  C13 UNL     1      24.317   4.527  50.468  1.00  0.00     0.163 C 
HETATM    7  N4  UNL     1      23.331   5.551  50.505  1.00  0.00    -0.304 NA
HETATM    8  C14 UNL     1      22.189   5.287  51.138  1.00  0.00     0.203 C 
HETATM    9  C15 UNL     1      22.481   3.935  51.561  1.00  0.00     0.094 C 
HETATM   10  C16 UNL     1      21.955   2.892  52.171  1.00  0.00    -0.028 C 
ENDROOT
BRANCH   3  11
HETATM   11  C6  UNL     1      26.666   1.475  52.216  1.00  0.00     0.037 A 
HETATM   12  C7  UNL     1      27.497   2.361  52.844  1.00  0.00     0.033 A 
HETATM   13  C8  UNL     1      28.634   2.055  53.554  1.00  0.00     0.046 A 
HETATM   14  C9  UNL     1      28.972   0.706  53.642  1.00  0.00     0.138 A 
HETATM   15  F1  UNL     1      30.081   0.344  54.330  1.00  0.00    -0.204 F 
HETATM   16  C10 UNL     1      28.169  -0.228  53.030  1.00  0.00     0.074 A 
HETATM   17 CL1  UNL     1      28.670  -1.909  53.195  1.00  0.00    -0.081 Cl
HETATM   18  C11 UNL     1      27.045   0.137  52.333  1.00  0.00     0.056 A 
ENDBRANCH   3  11
BRANCH   1  19
HETATM   19  N1  UNL     1      22.395   0.514  52.694  1.00  0.00    -0.326 N 
HETATM   20  C3  UNL     1      22.866  -0.484  53.589  1.00  0.00     0.221 C 
HETATM   21  O1  UNL     1      23.860  -0.684  54.307  1.00  0.00    -0.273 OA
HETATM   22  H6  UNL     1      21.447   0.326  52.241  1.00  0.00     0.169 HD
BRANCH  20  23
HETATM   23  C2  UNL     1      22.016  -1.664  53.806  1.00  0.00     0.098 C 
HETATM   24  C1  UNL     1      20.590  -1.287  54.020  1.00  0.00     0.014 C 
ENDBRANCH  20  23
ENDBRANCH   1  19
BRANCH  10  25
HETATM   25  C17 UNL     1      20.613   2.492  52.756  1.00  0.00     0.154 C 
BRANCH  25  26
HETATM   26  N5  UNL     1      19.672   2.380  51.704  1.00  0.00    -0.405 N 
HETATM   27  C18 UNL     1      18.997   1.143  51.544  1.00  0.00     0.143 C 
HETATM   28  C19 UNL     1      18.541   1.074  50.079  1.00  0.00     0.187 C 
HETATM   29  O2  UNL     1      18.848   2.224  49.398  1.00  0.00    -0.388 OA
HETATM   30  C20 UNL     1      18.374   3.376  50.007  1.00  0.00     0.187 C 
HETATM   31  C21 UNL     1      18.795   3.472  51.480  1.00  0.00     0.143 C 
ENDBRANCH  25  26
ENDBRANCH  10  25
TORSDOF 5
ENDMDL
MODEL 3
REMARK VINA RESULT:      -8.1      4.328      8.290
REMARK  5 active torsions:
REMARK  status: ('A' for Active; 'I' for Inactive)
REMARK    1  A    between atoms: C2_2  and  C3_3 
REMARK       I    between atoms: C3_3  and  N1_5 
REMARK    2  A    between atoms: N1_5  and  C4_6 
REMARK    3  A    between atoms: N2_8  and  C6_9 
REMARK    4  A    between atoms: C16_23  and  C17_24 
REMARK    5  A    between atoms: C17_24  and  N5_25 
ROOT
HETATM    1  C4  UNL     1      23.759   1.364  52.573  1.00  0.00     0.054 C 
HETATM    2  C5  UNL     1      22.671   2.092  52.584  1.00  0.00     0.123 C 
HETATM    3  N2  UNL     1      21.836   3.144  52.122  1.00  0.00    -0.336 N 
HETATM    4  C12 UNL     1      22.243   4.513  51.878  1.00  0.00     0.279 C 
HETATM    5  N3  UNL     1      23.014   4.464  50.623  1.00  0.00    -0.271 NA
HETATM    6  C13 UNL     1      24.274   4.280  50.610  1.00  0.00     0.163 C 
HETATM    7  N4  UNL     1      25.549   4.123  50.002  1.00  0.00    -0.304 NA
HETATM    8  C14 UNL     1      26.234   3.014  50.279  1.00  0.00     0.203 C 
HETATM    9  C15 UNL     1      25.280   2.385  51.166  1.00  0.00     0.094 C 
HETATM   10  C16 UNL     1      25.108   1.334  51.942  1.00  0.00    -0.028 C 
ENDROOT
BRANCH   3  11
HETATM   11  C6  UNL     1      20.449   2.908  51.784  1.00  0.00     0.037 A 
HETATM   12  C7  UNL     1      19.544   3.896  51.513  1.00  0.00     0.033 A 
HETATM   13  C8  UNL     1      18.217   3.725  51.194  1.00  0.00     0.046 A 
HETATM   14  C9  UNL     1      17.750   2.413  51.141  1.00  0.00     0.138 A 
HETATM   15  F1  UNL     1      16.452   2.184  50.831  1.00  0.00    -0.204 F 
HETATM   16  C10 UNL     1      18.620   1.381  51.403  1.00  0.00     0.074 A 
HETATM   17 CL1  UNL     1      17.945  -0.244  51.311  1.00  0.00    -0.081 Cl
HETATM   18  C11 UNL     1      19.936   1.612  51.717  1.00  0.00     0.056 A 
ENDBRANCH   3  11
BRANCH   1  19
HETATM   19  N1  UNL     1      23.557   0.384  53.619  1.00  0.00    -0.326 N 
HETATM   20  C3  UNL     1      22.550  -0.593  53.847  1.00  0.00     0.221 C 
HETATM   21  O1  UNL     1      21.505  -0.985  53.302  1.00  0.00    -0.273 OA
HETATM   22  H6  UNL     1      24.340   0.426  54.343  1.00  0.00     0.169 HD
BRANCH  20  23
HETATM   23  C2  UNL     1      22.680  -1.442  55.041  1.00  0.00     0.098 C 
HETATM   24  C1  UNL     1      24.031  -1.328  55.658  1.00  0.00     0.014 C 
ENDBRANCH  20  23
ENDBRANCH   1  19
BRANCH  10  25
HETATM   25  C17 UNL     1      25.919   0.141  52.413  1.00  0.00     0.154 C 
BRANCH  25  26
HETATM   26  N5  UNL     1      27.113   0.609  53.011  1.00  0.00    -0.405 N 
HETATM   27  C18 UNL     1      27.058   1.819  53.750  1.00  0.00     0.143 C 
HETATM   28  C19 UNL     1      28.481   2.397  53.762  1.00  0.00     0.187 C 
HETATM   29  O2  UNL     1      29.371   1.561  53.136  1.00  0.00    -0.388 OA
HETATM   30  C20 UNL     1      29.362   0.266  53.629  1.00  0.00     0.187 C 
HETATM   31  C21 UNL     1      27.952  -0.340  53.651  1.00  0.00     0.143 C 
ENDBRANCH  25  26
ENDBRANCH  10  25
TORSDOF 5
ENDMDL
MODEL 4
REMARK VINA RESULT:      -8.0      3.488      4.554
REMARK  5 active torsions:
REMARK  status: ('A' for Active; 'I' for Inactive)
REMARK    1  A    between atoms: C2_2  and  C3_3 
REMARK       I    between atoms: C3_3  and  N1_5 
REMARK    2  A    between atoms: N1_5  and  C4_6 
REMARK    3  A    between atoms: N2_8  and  C6_9 
REMARK    4  A    between atoms: C16_23  and  C17_24 
REMARK    5  A    between atoms: C17_24  and  N5_25 
ROOT
HETATM    1  C4  UNL     1      20.020   2.213  52.013  1.00  0.00     0.054 C 
HETATM    2  C5  UNL     1      21.065   1.815  52.693  1.00  0.00     0.123 C 
HETATM    3  N2  UNL     1      21.837   0.853  53.398  1.00  0.00    -0.336 N 
HETATM    4  C12 UNL     1      21.351  -0.042  54.429  1.00  0.00     0.279 C 
HETATM    5  N3  UNL     1      20.577  -1.069  53.710  1.00  0.00    -0.271 NA
HETATM    6  C13 UNL     1      19.330  -0.944  53.489  1.00  0.00     0.163 C 
HETATM    7  N4  UNL     1      18.062  -1.343  52.985  1.00  0.00    -0.304 NA
HETATM    8  C14 UNL     1      17.442  -0.516  52.144  1.00  0.00     0.203 C 
HETATM    9  C15 UNL     1      18.435   0.535  52.100  1.00  0.00     0.094 C 
HETATM   10  C16 UNL     1      18.671   1.732  51.602  1.00  0.00    -0.028 C 
ENDROOT
BRANCH   3  11
HETATM   11  C6  UNL     1      23.232   0.635  53.085  1.00  0.00     0.037 A 
HETATM   12  C7  UNL     1      23.975  -0.409  53.562  1.00  0.00     0.033 A 
HETATM   13  C8  UNL     1      25.302  -0.656  53.302  1.00  0.00     0.046 A 
HETATM   14  C9  UNL     1      25.955   0.249  52.468  1.00  0.00     0.138 A 
HETATM   15  F1  UNL     1      27.264   0.056  52.175  1.00  0.00    -0.204 F 
HETATM   16  C10 UNL     1      25.254   1.317  51.959  1.00  0.00     0.074 A 
HETATM   17 CL1  UNL     1      26.158   2.409  50.912  1.00  0.00    -0.081 Cl
HETATM   18  C11 UNL     1      23.929   1.514  52.254  1.00  0.00     0.056 A 
ENDBRANCH   3  11
BRANCH   1  19
HETATM   19  N1  UNL     1      20.283   3.606  51.715  1.00  0.00    -0.326 N 
HETATM   20  C3  UNL     1      21.282   4.257  50.941  1.00  0.00     0.221 C 
HETATM   21  O1  UNL     1      22.268   3.942  50.256  1.00  0.00    -0.273 OA
HETATM   22  H6  UNL     1      19.564   4.242  52.181  1.00  0.00     0.169 HD
BRANCH  20  23
HETATM   23  C2  UNL     1      21.229   5.724  50.853  1.00  0.00     0.098 C 
HETATM   24  C1  UNL     1      21.268   6.197  49.442  1.00  0.00     0.014 C 
ENDBRANCH  20  23
ENDBRANCH   1  19
BRANCH  10  25
HETATM   25  C17 UNL     1      17.932   2.773  50.782  1.00  0.00     0.154 C 
BRANCH  25  26
HETATM   26  N5  UNL     1      16.649   2.971  51.346  1.00  0.00    -0.405 N 
HETATM   27  C18 UNL     1      16.360   4.239  51.914  1.00  0.00     0.143 C 
HETATM   28  C19 UNL     1      15.236   4.022  52.936  1.00  0.00     0.187 C 
HETATM   29  O2  UNL     1      14.805   2.719  52.946  1.00  0.00    -0.388 OA
HETATM   30  C20 UNL     1      14.434   2.245  51.698  1.00  0.00     0.187 C 
HETATM   31  C21 UNL     1      15.528   2.462  50.642  1.00  0.00     0.143 C 
ENDBRANCH  25  26
ENDBRANCH  10  25
TORSDOF 5
ENDMDL
MODEL 5
REMARK VINA RESULT:      -7.8      2.398      4.672
REMARK  5 active torsions:
REMARK  status: ('A' for Active; 'I' for Inactive)
REMARK    1  A    between atoms: C2_2  and  C3_3 
REMARK       I    between atoms: C3_3  and  N1_5 
REMARK    2  A    between atoms: N1_5  and  C4_6 
REMARK    3  A    between atoms: N2_8  and  C6_9 
REMARK    4  A    between atoms: C16_23  and  C17_24 
REMARK    5  A    between atoms: C17_24  and  N5_25 
ROOT
HETATM    1  C4  UNL     1      23.710   3.766  51.502  1.00  0.00     0.054 C 
HETATM    2  C5  UNL     1      24.627   2.843  51.364  1.00  0.00     0.123 C 
HETATM    3  N2  UNL     1      25.906   2.365  50.973  1.00  0.00    -0.336 N 
HETATM    4  C12 UNL     1      26.555   2.604  49.699  1.00  0.00     0.279 C 
HETATM    5  N3  UNL     1      27.006   4.006  49.758  1.00  0.00    -0.271 NA
HETATM    6  C13 UNL     1      26.275   4.969  49.358  1.00  0.00     0.163 C 
HETATM    7  N4  UNL     1      25.963   6.331  49.100  1.00  0.00    -0.304 NA
HETATM    8  C14 UNL     1      24.861   6.830  49.659  1.00  0.00     0.203 C 
HETATM    9  C15 UNL     1      24.419   5.647  50.363  1.00  0.00     0.094 C 
HETATM   10  C16 UNL     1      23.440   5.178  51.110  1.00  0.00    -0.028 C 
ENDROOT
BRANCH   3  11
HETATM   11  C6  UNL     1      26.736   1.608  51.885  1.00  0.00     0.037 A 
HETATM   12  C7  UNL     1      27.621   2.167  52.764  1.00  0.00     0.033 A 
HETATM   13  C8  UNL     1      28.435   1.494  53.644  1.00  0.00     0.046 A 
HETATM   14  C9  UNL     1      28.348   0.103  53.640  1.00  0.00     0.138 A 
HETATM   15  F1  UNL     1      29.125  -0.613  54.487  1.00  0.00    -0.204 F 
HETATM   16  C10 UNL     1      27.471  -0.510  52.776  1.00  0.00     0.074 A 
HETATM   17 CL1  UNL     1      27.423  -2.270  52.840  1.00  0.00    -0.081 Cl
HETATM   18  C11 UNL     1      26.682   0.214  51.917  1.00  0.00     0.056 A 
ENDBRANCH   3  11
BRANCH   1  19
HETATM   19  N1  UNL     1      22.594   3.086  52.125  1.00  0.00    -0.326 N 
HETATM   20  C3  UNL     1      21.871   1.909  51.791  1.00  0.00     0.221 C 
HETATM   21  O1  UNL     1      21.881   1.042  50.901  1.00  0.00    -0.273 OA
HETATM   22  H6  UNL     1      22.280   3.592  53.011  1.00  0.00     0.169 HD
BRANCH  20  23
HETATM   23  C2  UNL     1      20.775   1.503  52.683  1.00  0.00     0.098 C 
HETATM   24  C1  UNL     1      19.740   0.709  51.965  1.00  0.00     0.014 C 
ENDBRANCH  20  23
ENDBRANCH   1  19
BRANCH  10  25
HETATM   25  C17 UNL     1      22.096   5.655  51.629  1.00  0.00     0.154 C 
BRANCH  25  26
HETATM   26  N5  UNL     1      21.281   6.010  50.527  1.00  0.00    -0.405 N 
HETATM   27  C18 UNL     1      20.122   5.230  50.278  1.00  0.00     0.143 C 
HETATM   28  C19 UNL     1      19.783   5.403  48.790  1.00  0.00     0.187 C 
HETATM   29  O2  UNL     1      20.632   6.290  48.177  1.00  0.00    -0.388 OA
HETATM   30  C20 UNL     1      20.706   7.520  48.811  1.00  0.00     0.187 C 
HETATM   31  C21 UNL     1      21.025   7.387  50.307  1.00  0.00     0.143 C 
ENDBRANCH  25  26
ENDBRANCH  10  25
TORSDOF 5
ENDMDL
MODEL 6
REMARK VINA RESULT:      -7.8      2.034      2.364
REMARK  5 active torsions:
REMARK  status: ('A' for Active; 'I' for Inactive)
REMARK    1  A    between atoms: C2_2  and  C3_3 
REMARK       I    between atoms: C3_3  and  N1_5 
REMARK    2  A    between atoms: N1_5  and  C4_6 
REMARK    3  A    between atoms: N2_8  and  C6_9 
REMARK    4  A    between atoms: C16_23  and  C17_24 
REMARK    5  A    between atoms: C17_24  and  N5_25 
ROOT
HETATM    1  C4  UNL     1      24.341   4.268  49.973  1.00  0.00     0.054 C 
HETATM    2  C5  UNL     1      24.857   3.722  51.044  1.00  0.00     0.123 C 
HETATM    3  N2  UNL     1      24.825   2.877  52.186  1.00  0.00    -0.336 N 
HETATM    4  C12 UNL     1      23.771   2.822  53.179  1.00  0.00     0.279 C 
HETATM    5  N3  UNL     1      22.663   2.109  52.519  1.00  0.00    -0.271 NA
HETATM    6  C13 UNL     1      21.761   2.722  51.863  1.00  0.00     0.163 C 
HETATM    7  N4  UNL     1      20.583   2.824  51.074  1.00  0.00    -0.304 NA
HETATM    8  C14 UNL     1      20.679   3.436  49.894  1.00  0.00     0.203 C 
HETATM    9  C15 UNL     1      22.089   3.759  49.931  1.00  0.00     0.094 C 
HETATM   10  C16 UNL     1      23.037   4.383  49.262  1.00  0.00    -0.028 C 
ENDROOT
BRANCH   3  11
HETATM   11  C6  UNL     1      25.872   1.909  52.432  1.00  0.00     0.037 A 
HETATM   12  C7  UNL     1      25.871   0.632  51.943  1.00  0.00     0.033 A 
HETATM   13  C8  UNL     1      26.834  -0.326  52.153  1.00  0.00     0.046 A 
HETATM   14  C9  UNL     1      27.922   0.043  52.943  1.00  0.00     0.138 A 
HETATM   15  F1  UNL     1      28.903  -0.860  53.183  1.00  0.00    -0.204 F 
HETATM   16  C10 UNL     1      27.974   1.317  53.458  1.00  0.00     0.074 A 
HETATM   17 CL1  UNL     1      29.385   1.697  54.443  1.00  0.00    -0.081 Cl
HETATM   18  C11 UNL     1      26.981   2.232  53.216  1.00  0.00     0.056 A 
ENDBRANCH   3  11
BRANCH   1  19
HETATM   19  N1  UNL     1      25.394   5.111  49.446  1.00  0.00    -0.326 N 
HETATM   20  C3  UNL     1      26.725   4.844  49.022  1.00  0.00     0.221 C 
HETATM   21  O1  UNL     1      27.486   3.866  48.935  1.00  0.00    -0.273 OA
HETATM   22  H6  UNL     1      25.074   6.126  49.369  1.00  0.00     0.169 HD
BRANCH  20  23
HETATM   23  C2  UNL     1      27.522   5.974  48.522  1.00  0.00     0.098 C 
HETATM   24  C1  UNL     1      28.920   5.569  48.206  1.00  0.00     0.014 C 
ENDBRANCH  20  23
ENDBRANCH   1  19
BRANCH  10  25
HETATM   25  C17 UNL     1      23.157   5.228  48.007  1.00  0.00     0.154 C 
BRANCH  25  26
HETATM   26  N5  UNL     1      22.636   6.517  48.275  1.00  0.00    -0.405 N 
HETATM   27  C18 UNL     1      23.395   7.641  47.857  1.00  0.00     0.143 C 
HETATM   28  C19 UNL     1      22.969   8.818  48.746  1.00  0.00     0.187 C 
HETATM   29  O2  UNL     1      21.960   8.464  49.606  1.00  0.00    -0.388 OA
HETATM   30  C20 UNL     1      20.862   7.902  48.975  1.00  0.00     0.187 C 
HETATM   31  C21 UNL     1      21.250   6.731  48.061  1.00  0.00     0.143 C 
ENDBRANCH  25  26
ENDBRANCH  10  25
TORSDOF 5
ENDMDL
MODEL 7
REMARK VINA RESULT:      -7.8      3.831      7.449
REMARK  5 active torsions:
REMARK  status: ('A' for Active; 'I' for Inactive)
REMARK    1  A    between atoms: C2_2  and  C3_3 
REMARK       I    between atoms: C3_3  and  N1_5 
REMARK    2  A    between atoms: N1_5  and  C4_6 
REMARK    3  A    between atoms: N2_8  and  C6_9 
REMARK    4  A    between atoms: C16_23  and  C17_24 
REMARK    5  A    between atoms: C17_24  and  N5_25 
ROOT
HETATM    1  C4  UNL     1      23.956   2.523  50.849  1.00  0.00     0.054 C 
HETATM    2  C5  UNL     1      22.913   2.563  50.061  1.00  0.00     0.123 C 
HETATM    3  N2  UNL     1      21.585   2.224  49.685  1.00  0.00    -0.336 N 
HETATM    4  C12 UNL     1      21.013   0.893  49.676  1.00  0.00     0.279 C 
HETATM    5  N3  UNL     1      20.781   0.568  51.095  1.00  0.00    -0.271 NA
HETATM    6  C13 UNL     1      21.661  -0.013  51.808  1.00  0.00     0.163 C 
HETATM    7  N4  UNL     1      22.185  -0.586  52.998  1.00  0.00    -0.304 NA
HETATM    8  C14 UNL     1      23.336  -0.102  53.463  1.00  0.00     0.203 C 
HETATM    9  C15 UNL     1      23.574   0.904  52.452  1.00  0.00     0.094 C 
HETATM   10  C16 UNL     1      24.450   1.806  52.058  1.00  0.00    -0.028 C 
ENDROOT
BRANCH   3  11
HETATM   11  C6  UNL     1      20.627   3.243  49.316  1.00  0.00     0.037 A 
HETATM   12  C7  UNL     1      19.481   3.003  48.609  1.00  0.00     0.033 A 
HETATM   13  C8  UNL     1      18.544   3.934  48.228  1.00  0.00     0.046 A 
HETATM   14  C9  UNL     1      18.787   5.255  48.600  1.00  0.00     0.138 A 
HETATM   15  F1  UNL     1      17.897   6.216  48.253  1.00  0.00    -0.204 F 
HETATM   16  C10 UNL     1      19.924   5.551  49.314  1.00  0.00     0.074 A 
HETATM   17 CL1  UNL     1      20.149   7.245  49.745  1.00  0.00    -0.081 Cl
HETATM   18  C11 UNL     1      20.826   4.579  49.667  1.00  0.00     0.056 A 
ENDBRANCH   3  11
BRANCH   1  19
HETATM   19  N1  UNL     1      24.939   3.367  50.202  1.00  0.00    -0.326 N 
HETATM   20  C3  UNL     1      24.965   4.752  49.884  1.00  0.00     0.221 C 
HETATM   21  O1  UNL     1      24.222   5.740  50.007  1.00  0.00    -0.273 OA
HETATM   22  H6  UNL     1      25.805   2.808  49.926  1.00  0.00     0.169 HD
BRANCH  20  23
HETATM   23  C2  UNL     1      26.165   5.278  49.216  1.00  0.00     0.098 C 
HETATM   24  C1  UNL     1      27.198   4.223  49.023  1.00  0.00     0.014 C 
ENDBRANCH  20  23
ENDBRANCH   1  19
BRANCH  10  25
HETATM   25  C17 UNL     1      25.838   2.273  52.457  1.00  0.00     0.154 C 
BRANCH  25  26
HETATM   26  N5  UNL     1      26.581   1.157  52.911  1.00  0.00    -0.405 N 
HETATM   27  C18 UNL     1      26.834   0.106  51.992  1.00  0.00     0.143 C 
HETATM   28  C19 UNL     1      27.084  -1.160  52.824  1.00  0.00     0.187 C 
HETATM   29  O2  UNL     1      27.062  -0.894  54.170  1.00  0.00    -0.388 OA
HETATM   30  C20 UNL     1      27.923   0.123  54.551  1.00  0.00     0.187 C 
HETATM   31  C21 UNL     1      27.715   1.402  53.728  1.00  0.00     0.143 C 
ENDBRANCH  25  26
ENDBRANCH  10  25
TORSDOF 5
ENDMDL
MODEL 8
REMARK VINA RESULT:      -7.7      6.164      8.897
REMARK  5 active torsions:
REMARK  status: ('A' for Active; 'I' for Inactive)
REMARK    1  A    between atoms: C2_2  and  C3_3 
REMARK       I    between atoms: C3_3  and  N1_5 
REMARK    2  A    between atoms: N1_5  and  C4_6 
REMARK    3  A    between atoms: N2_8  and  C6_9 
REMARK    4  A    between atoms: C16_23  and  C17_24 
REMARK    5  A    between atoms: C17_24  and  N5_25 
ROOT
HETATM    1  C4  UNL     1      16.490  -0.582  52.445  1.00  0.00     0.054 C 
HETATM    2  C5  UNL     1      17.768  -0.483  52.183  1.00  0.00     0.123 C 
HETATM    3  N2  UNL     1      18.967   0.239  51.935  1.00  0.00    -0.336 N 
HETATM    4  C12 UNL     1      19.122   1.346  51.013  1.00  0.00     0.279 C 
HETATM    5  N3  UNL     1      18.474   2.490  51.679  1.00  0.00    -0.271 NA
HETATM    6  C13 UNL     1      17.242   2.762  51.510  1.00  0.00     0.163 C 
HETATM    7  N4  UNL     1      16.045   3.503  51.706  1.00  0.00    -0.304 NA
HETATM    8  C14 UNL     1      14.977   2.844  52.153  1.00  0.00     0.203 C 
HETATM    9  C15 UNL     1      15.562   1.525  52.259  1.00  0.00     0.094 C 
HETATM   10  C16 UNL     1      15.274   0.272  52.548  1.00  0.00    -0.028 C 
ENDROOT
BRANCH   3  11
HETATM   11  C6  UNL     1      20.182  -0.051  52.665  1.00  0.00     0.037 A 
HETATM   12  C7  UNL     1      20.233  -0.795  53.811  1.00  0.00     0.033 A 
HETATM   13  C8  UNL     1      21.357  -1.093  54.544  1.00  0.00     0.046 A 
HETATM   14  C9  UNL     1      22.565  -0.586  54.070  1.00  0.00     0.138 A 
HETATM   15  F1  UNL     1      23.707  -0.848  54.751  1.00  0.00    -0.204 F 
HETATM   16  C10 UNL     1      22.571   0.168  52.920  1.00  0.00     0.074 A 
HETATM   17 CL1  UNL     1      24.142   0.766  52.393  1.00  0.00    -0.081 Cl
HETATM   18  C11 UNL     1      21.416   0.434  52.229  1.00  0.00     0.056 A 
ENDBRANCH   3  11
BRANCH   1  19
HETATM   19  N1  UNL     1      16.238  -2.006  52.514  1.00  0.00    -0.326 N 
HETATM   20  C3  UNL     1      16.844  -3.060  53.250  1.00  0.00     0.221 C 
HETATM   21  O1  UNL     1      17.768  -3.201  54.068  1.00  0.00    -0.273 OA
HETATM   22  H6  UNL     1      15.427  -2.285  51.880  1.00  0.00     0.169 HD
BRANCH  20  23
HETATM   23  C2  UNL     1      16.304  -4.416  53.071  1.00  0.00     0.098 C 
HETATM   24  C1  UNL     1      16.000  -5.069  54.375  1.00  0.00     0.014 C 
ENDBRANCH  20  23
ENDBRANCH   1  19
BRANCH  10  25
HETATM   25  C17 UNL     1      14.044  -0.546  52.897  1.00  0.00     0.154 C 
BRANCH  25  26
HETATM   26  N5  UNL     1      12.998   0.336  53.261  1.00  0.00    -0.405 N 
HETATM   27  C18 UNL     1      11.957   0.556  52.324  1.00  0.00     0.143 C 
HETATM   28  C19 UNL     1      11.333   1.917  52.667  1.00  0.00     0.187 C 
HETATM   29  O2  UNL     1      11.901   2.467  53.788  1.00  0.00    -0.388 OA
HETATM   30  C20 UNL     1      11.885   1.626  54.890  1.00  0.00     0.187 C 
HETATM   31  C21 UNL     1      12.485   0.247  54.581  1.00  0.00     0.143 C 
ENDBRANCH  25  26
ENDBRANCH  10  25
TORSDOF 5
ENDMDL
MODEL 9
REMARK VINA RESULT:      -7.6      6.487      9.677
REMARK  5 active torsions:
REMARK  status: ('A' for Active; 'I' for Inactive)
REMARK    1  A    between atoms: C2_2  and  C3_3 
REMARK       I    between atoms: C3_3  and  N1_5 
REMARK    2  A    between atoms: N1_5  and  C4_6 
REMARK    3  A    between atoms: N2_8  and  C6_9 
REMARK    4  A    between atoms: C16_23  and  C17_24 
REMARK    5  A    between atoms: C17_24  and  N5_25 
ROOT
HETATM    1  C4  UNL     1      29.473   8.004  48.631  1.00  0.00     0.054 C 
HETATM    2  C5  UNL     1      30.391   7.403  47.918  1.00  0.00     0.123 C 
HETATM    3  N2  UNL     1      31.644   7.331  47.252  1.00  0.00    -0.336 N 
HETATM    4  C12 UNL     1      32.188   8.323  46.345  1.00  0.00     0.279 C 
HETATM    5  N3  UNL     1      32.619   9.435  47.211  1.00  0.00    -0.271 NA
HETATM    6  C13 UNL     1      31.843  10.400  47.508  1.00  0.00     0.163 C 
HETATM    7  N4  UNL     1      31.489  11.625  48.136  1.00  0.00    -0.304 NA
HETATM    8  C14 UNL     1      30.426  11.624  48.939  1.00  0.00     0.203 C 
HETATM    9  C15 UNL     1      30.059  10.230  48.813  1.00  0.00     0.094 C 
HETATM   10  C16 UNL     1      29.149   9.350  49.179  1.00  0.00    -0.028 C 
ENDROOT
BRANCH   3  11
HETATM   11  C6  UNL     1      32.554   6.231  47.483  1.00  0.00     0.037 A 
HETATM   12  C7  UNL     1      33.784   6.358  48.068  1.00  0.00     0.033 A 
HETATM   13  C8  UNL     1      34.686   5.348  48.302  1.00  0.00     0.046 A 
HETATM   14  C9  UNL     1      34.310   4.066  47.905  1.00  0.00     0.138 A 
HETATM   15  F1  UNL     1      35.159   3.031  48.112  1.00  0.00    -0.204 F 
HETATM   16  C10 UNL     1      33.082   3.883  47.313  1.00  0.00     0.074 A 
HETATM   17 CL1  UNL     1      32.687   2.231  46.844  1.00  0.00    -0.081 Cl
HETATM   18  C11 UNL     1      32.221   4.930  47.102  1.00  0.00     0.056 A 
ENDBRANCH   3  11
BRANCH   1  19
HETATM   19  N1  UNL     1      28.420   7.021  48.778  1.00  0.00    -0.326 N 
HETATM   20  C3  UNL     1      28.363   5.622  48.533  1.00  0.00     0.221 C 
HETATM   21  O1  UNL     1      29.118   4.726  48.121  1.00  0.00    -0.273 OA
HETATM   22  H6  UNL     1      27.525   7.467  49.150  1.00  0.00     0.169 HD
BRANCH  20  23
HETATM   23  C2  UNL     1      27.095   4.931  48.813  1.00  0.00     0.098 C 
HETATM   24  C1  UNL     1      25.945   5.876  48.849  1.00  0.00     0.014 C 
ENDBRANCH  20  23
ENDBRANCH   1  19
BRANCH  10  25
HETATM   25  C17 UNL     1      27.842   9.341  49.950  1.00  0.00     0.154 C 
BRANCH  25  26
HETATM   26  N5  UNL     1      26.797   9.732  49.079  1.00  0.00    -0.405 N 
HETATM   27  C18 UNL     1      25.478   9.310  49.390  1.00  0.00     0.143 C 
HETATM   28  C19 UNL     1      24.687   9.320  48.074  1.00  0.00     0.187 C 
HETATM   29  O2  UNL     1      25.446   9.790  47.031  1.00  0.00    -0.388 OA
HETATM   30  C20 UNL     1      26.017  11.029  47.271  1.00  0.00     0.187 C 
HETATM   31  C21 UNL     1      26.803  11.063  48.590  1.00  0.00     0.143 C 
ENDBRANCH  25  26
ENDBRANCH  10  25
TORSDOF 5
ENDMDL
