MODEL 1
REMARK VINA RESULT:      -9.0      0.000      0.000
REMARK  3 active torsions:
REMARK  status: ('A' for Active; 'I' for Inactive)
REMARK    1  A    between atoms: N1_1  and  C1_2 
REMARK    2  A    between atoms: N3_10  and  C8_11 
REMARK    3  A    between atoms: C12_16  and  C13_17 
ROOT
HETATM    1  C1  UNL     1      21.569   5.993  50.565  1.00  0.00     0.255 C 
HETATM    2  C2  UNL     1      21.095   6.161  49.160  1.00  0.00     0.184 C 
HETATM    3  N2  UNL     1      22.088   6.627  48.267  1.00  0.00    -0.303 NA
HETATM    4  C3  UNL     1      23.313   6.474  48.529  1.00  0.00     0.085 C 
HETATM    5  C4  UNL     1      23.900   5.826  49.728  1.00  0.00     0.067 C 
HETATM    6  C5  UNL     1      22.842   5.188  50.603  1.00  0.00     0.051 A 
HETATM    7  C6  UNL     1      22.530   3.801  50.178  1.00  0.00     0.010 A 
HETATM    8  C7  UNL     1      22.696   2.665  50.837  1.00  0.00     0.115 A 
HETATM    9  N3  UNL     1      23.255   2.815  52.137  1.00  0.00    -0.248 N 
HETATM   10  N4  UNL     1      23.598   4.064  52.664  1.00  0.00    -0.183 NA
HETATM   11  C19 UNL     1      23.411   5.139  51.974  1.00  0.00     0.128 A 
ENDROOT
BRANCH   9  12
HETATM   12  C8  UNL     1      23.464   1.638  52.908  1.00  0.00     0.057 C 
HETATM   13  C9  UNL     1      22.309   1.015  53.088  1.00  0.00     0.031 C 
HETATM   14  C10 UNL     1      22.155  -0.229  53.834  1.00  0.00     0.026 C 
HETATM   15  C11 UNL     1      23.080  -0.990  54.399  1.00  0.00     0.135 C 
HETATM   16  O1  UNL     1      24.445  -0.737  54.388  1.00  0.00    -0.351 OA
HETATM   17  C12 UNL     1      25.177  -0.071  53.377  1.00  0.00     0.181 C 
HETATM   18  C18 UNL     1      24.879   1.409  53.305  1.00  0.00     0.167 C 
HETATM   19 CL1  UNL     1      25.857   2.042  51.933  1.00  0.00    -0.115 Cl
BRANCH  17  20
HETATM   20  C13 UNL     1      26.635  -0.327  53.513  1.00  0.00    -0.043 A 
HETATM   21  C14 UNL     1      27.623  -0.942  52.912  1.00  0.00     0.047 A 
HETATM   22  C15 UNL     1      28.870  -0.778  53.629  1.00  0.00     0.113 A 
HETATM   23  F1  UNL     1      30.032  -1.306  53.229  1.00  0.00    -0.206 F 
HETATM   24  C16 UNL     1      28.648  -0.039  54.704  1.00  0.00     0.020 A 
HETATM   25  C17 UNL     1      27.213   0.319  54.736  1.00  0.00     0.067 A 
ENDBRANCH  17  20
ENDBRANCH   9  12
BRANCH   1  26
HETATM   26  N1  UNL     1      21.849   7.291  51.176  1.00  0.00     0.086 N 
HETATM   27  H1  UNL     1      20.963   7.829  51.286  1.00  0.00     0.313 HD
HETATM   28  H2  UNL     1      22.314   7.128  52.105  1.00  0.00     0.313 HD
ENDBRANCH   1  26
TORSDOF 3
ENDMDL
MODEL 2
REMARK VINA RESULT:      -8.8      0.775      1.699
REMARK  3 active torsions:
REMARK  status: ('A' for Active; 'I' for Inactive)
REMARK    1  A    between atoms: N1_1  and  C1_2 
REMARK    2  A    between atoms: N3_10  and  C8_11 
REMARK    3  A    between atoms: C12_16  and  C13_17 
ROOT
HETATM    1  C1  UNL     1      24.062   6.045  49.773  1.00  0.00     0.255 C 
HETATM    2  C2  UNL     1      24.159   7.476  50.186  1.00  0.00     0.184 C 
HETATM    3  N2  UNL     1      22.921   8.162  50.189  1.00  0.00    -0.303 NA
HETATM    4  C3  UNL     1      21.833   7.527  50.281  1.00  0.00     0.085 C 
HETATM    5  C4  UNL     1      21.659   6.058  50.394  1.00  0.00     0.067 C 
HETATM    6  C5  UNL     1      22.982   5.340  50.551  1.00  0.00     0.051 A 
HETATM    7  C6  UNL     1      23.406   5.259  51.971  1.00  0.00     0.010 A 
HETATM    8  C7  UNL     1      23.588   4.191  52.732  1.00  0.00     0.115 A 
HETATM    9  N3  UNL     1      23.334   2.953  52.079  1.00  0.00    -0.248 N 
HETATM   10  N4  UNL     1      22.926   2.882  50.743  1.00  0.00    -0.183 NA
HETATM   11  C19 UNL     1      22.767   3.959  50.050  1.00  0.00     0.128 A 
ENDROOT
BRANCH   9  12
HETATM   12  C8  UNL     1      23.506   1.759  52.833  1.00  0.00     0.057 C 
HETATM   13  C9  UNL     1      22.337   1.155  52.981  1.00  0.00     0.031 C 
HETATM   14  C10 UNL     1      22.145  -0.098  53.701  1.00  0.00     0.026 C 
HETATM   15  C11 UNL     1      23.045  -0.887  54.269  1.00  0.00     0.135 C 
HETATM   16  O1  UNL     1      24.414  -0.661  54.287  1.00  0.00    -0.351 OA
HETATM   17  C12 UNL     1      25.178   0.009  53.301  1.00  0.00     0.181 C 
HETATM   18  C18 UNL     1      24.909   1.496  53.250  1.00  0.00     0.167 C 
HETATM   19 CL1  UNL     1      25.924   2.133  51.907  1.00  0.00    -0.115 Cl
BRANCH  17  20
HETATM   20  C13 UNL     1      26.627  -0.278  53.458  1.00  0.00    -0.043 A 
HETATM   21  C14 UNL     1      27.614  -0.903  52.865  1.00  0.00     0.047 A 
HETATM   22  C15 UNL     1      28.851  -0.774  53.606  1.00  0.00     0.113 A 
HETATM   23  F1  UNL     1      30.009  -1.319  53.218  1.00  0.00    -0.206 F 
HETATM   24  C16 UNL     1      28.625  -0.048  54.689  1.00  0.00     0.020 A 
HETATM   25  C17 UNL     1      27.196   0.337  54.702  1.00  0.00     0.067 A 
ENDBRANCH  17  20
ENDBRANCH   9  12
BRANCH   1  26
HETATM   26  N1  UNL     1      23.727   5.938  48.355  1.00  0.00     0.086 N 
HETATM   27  H1  UNL     1      24.043   5.016  47.984  1.00  0.00     0.313 HD
HETATM   28  H2  UNL     1      22.687   6.056  48.249  1.00  0.00     0.313 HD
ENDBRANCH   1  26
TORSDOF 3
ENDMDL
MODEL 3
REMARK VINA RESULT:      -8.0      3.968      7.434
REMARK  3 active torsions:
REMARK  status: ('A' for Active; 'I' for Inactive)
REMARK    1  A    between atoms: N1_1  and  C1_2 
REMARK    2  A    between atoms: N3_10  and  C8_11 
REMARK    3  A    between atoms: C12_16  and  C13_17 
ROOT
HETATM    1  C1  UNL     1      27.165   0.037  53.792  1.00  0.00     0.255 C 
HETATM    2  C2  UNL     1      27.921   0.334  55.045  1.00  0.00     0.184 C 
HETATM    3  N2  UNL     1      28.993   1.240  54.871  1.00  0.00    -0.303 NA
HETATM    4  C3  UNL     1      29.010   2.037  53.892  1.00  0.00     0.085 C 
HETATM    5  C4  UNL     1      27.990   2.167  52.822  1.00  0.00     0.067 C 
HETATM    6  C5  UNL     1      26.771   1.312  53.095  1.00  0.00     0.051 A 
HETATM    7  C6  UNL     1      25.774   2.017  53.938  1.00  0.00     0.010 A 
HETATM    8  C7  UNL     1      24.534   2.376  53.646  1.00  0.00     0.115 A 
HETATM    9  N3  UNL     1      24.114   2.029  52.331  1.00  0.00    -0.248 N 
HETATM   10  N4  UNL     1      24.952   1.363  51.430  1.00  0.00    -0.183 NA
HETATM   11  C19 UNL     1      26.153   1.037  51.772  1.00  0.00     0.128 A 
ENDROOT
BRANCH   9  12
HETATM   12  C8  UNL     1      22.792   2.382  51.943  1.00  0.00     0.057 C 
HETATM   13  C9  UNL     1      22.838   3.375  51.068  1.00  0.00     0.031 C 
HETATM   14  C10 UNL     1      21.662   3.987  50.458  1.00  0.00     0.026 C 
HETATM   15  C11 UNL     1      20.384   3.662  50.585  1.00  0.00     0.135 C 
HETATM   16  O1  UNL     1      19.894   2.623  51.364  1.00  0.00    -0.351 OA
HETATM   17  C12 UNL     1      20.547   1.403  51.663  1.00  0.00     0.181 C 
HETATM   18  C18 UNL     1      21.726   1.574  52.593  1.00  0.00     0.167 C 
HETATM   19 CL1  UNL     1      22.438  -0.067  52.791  1.00  0.00    -0.115 Cl
BRANCH  17  20
HETATM   20  C13 UNL     1      19.587   0.393  52.179  1.00  0.00    -0.043 A 
HETATM   21  C14 UNL     1      19.411  -0.425  53.186  1.00  0.00     0.047 A 
HETATM   22  C15 UNL     1      18.178  -1.174  53.058  1.00  0.00     0.113 A 
HETATM   23  F1  UNL     1      17.761  -2.077  53.951  1.00  0.00    -0.206 F 
HETATM   24  C16 UNL     1      17.574  -0.809  51.938  1.00  0.00     0.020 A 
HETATM   25  C17 UNL     1      18.405   0.218  51.272  1.00  0.00     0.067 A 
ENDBRANCH  17  20
ENDBRANCH   9  12
BRANCH   1  26
HETATM   26  N1  UNL     1      27.985  -0.740  52.865  1.00  0.00     0.086 N 
HETATM   27  H1  UNL     1      28.943  -0.864  53.257  1.00  0.00     0.313 HD
HETATM   28  H2  UNL     1      27.516  -1.667  52.702  1.00  0.00     0.313 HD
ENDBRANCH   1  26
TORSDOF 3
ENDMDL
MODEL 4
REMARK VINA RESULT:      -7.9      1.611      2.169
REMARK  3 active torsions:
REMARK  status: ('A' for Active; 'I' for Inactive)
REMARK    1  A    between atoms: N1_1  and  C1_2 
REMARK    2  A    between atoms: N3_10  and  C8_11 
REMARK    3  A    between atoms: C12_16  and  C13_17 
ROOT
HETATM    1  C1  UNL     1      23.173   7.185  48.690  1.00  0.00     0.255 C 
HETATM    2  C2  UNL     1      23.349   7.396  47.223  1.00  0.00     0.184 C 
HETATM    3  N2  UNL     1      24.655   7.793  46.850  1.00  0.00    -0.303 NA
HETATM    4  C3  UNL     1      25.642   7.547  47.598  1.00  0.00     0.085 C 
HETATM    5  C4  UNL     1      25.623   6.851  48.908  1.00  0.00     0.067 C 
HETATM    6  C5  UNL     1      24.255   6.288  49.231  1.00  0.00     0.051 A 
HETATM    7  C6  UNL     1      24.064   4.930  48.664  1.00  0.00     0.010 A 
HETATM    8  C7  UNL     1      23.861   3.781  49.290  1.00  0.00     0.115 A 
HETATM    9  N3  UNL     1      23.826   3.882  50.709  1.00  0.00    -0.248 N 
HETATM   10  N4  UNL     1      23.993   5.099  51.377  1.00  0.00    -0.183 NA
HETATM   11  C19 UNL     1      24.187   6.189  50.712  1.00  0.00     0.128 A 
ENDROOT
BRANCH   9  12
HETATM   12  C8  UNL     1      23.613   2.688  51.452  1.00  0.00     0.057 C 
HETATM   13  C9  UNL     1      22.410   2.206  51.181  1.00  0.00     0.031 C 
HETATM   14  C10 UNL     1      21.862   0.988  51.768  1.00  0.00     0.026 C 
HETATM   15  C11 UNL     1      22.432   0.123  52.593  1.00  0.00     0.135 C 
HETATM   16  O1  UNL     1      23.727   0.213  53.082  1.00  0.00    -0.351 OA
HETATM   17  C12 UNL     1      24.844   0.789  52.429  1.00  0.00     0.181 C 
HETATM   18  C18 UNL     1      24.756   2.294  52.318  1.00  0.00     0.167 C 
HETATM   19 CL1  UNL     1      26.225   2.807  51.415  1.00  0.00    -0.115 Cl
BRANCH  17  20
HETATM   20  C13 UNL     1      26.117   0.362  53.066  1.00  0.00    -0.043 A 
HETATM   21  C14 UNL     1      26.893   0.643  54.082  1.00  0.00     0.047 A 
HETATM   22  C15 UNL     1      28.057  -0.217  54.121  1.00  0.00     0.113 A 
HETATM   23  F1  UNL     1      29.009  -0.138  55.057  1.00  0.00    -0.206 F 
HETATM   24  C16 UNL     1      28.000  -1.055  53.098  1.00  0.00     0.020 A 
HETATM   25  C17 UNL     1      26.767  -0.772  52.330  1.00  0.00     0.067 A 
ENDBRANCH  17  20
ENDBRANCH   9  12
BRANCH   1  26
HETATM   26  N1  UNL     1      23.251   8.455  49.409  1.00  0.00     0.086 N 
HETATM   27  H1  UNL     1      23.921   9.093  48.929  1.00  0.00     0.313 HD
HETATM   28  H2  UNL     1      22.287   8.874  49.449  1.00  0.00     0.313 HD
ENDBRANCH   1  26
TORSDOF 3
ENDMDL
MODEL 5
REMARK VINA RESULT:      -7.8      3.050      3.572
REMARK  3 active torsions:
REMARK  status: ('A' for Active; 'I' for Inactive)
REMARK    1  A    between atoms: N1_1  and  C1_2 
REMARK    2  A    between atoms: N3_10  and  C8_11 
REMARK    3  A    between atoms: C12_16  and  C13_17 
ROOT
HETATM    1  C1  UNL     1      17.443   3.091  50.481  1.00  0.00     0.255 C 
HETATM    2  C2  UNL     1      16.778   2.722  49.197  1.00  0.00     0.184 C 
HETATM    3  N2  UNL     1      17.336   3.348  48.057  1.00  0.00    -0.303 NA
HETATM    4  C3  UNL     1      18.519   3.789  48.077  1.00  0.00     0.085 C 
HETATM    5  C4  UNL     1      19.475   3.737  49.210  1.00  0.00     0.067 C 
HETATM    6  C5  UNL     1      18.937   2.929  50.371  1.00  0.00     0.051 A 
HETATM    7  C6  UNL     1      19.240   1.483  50.231  1.00  0.00     0.010 A 
HETATM    8  C7  UNL     1      19.982   0.704  51.002  1.00  0.00     0.115 A 
HETATM    9  N3  UNL     1      20.564   1.364  52.120  1.00  0.00    -0.248 N 
HETATM   10  N4  UNL     1      20.363   2.725  52.373  1.00  0.00    -0.183 NA
HETATM   11  C19 UNL     1      19.627   3.435  51.585  1.00  0.00     0.128 A 
ENDROOT
BRANCH   9  12
HETATM   12  C8  UNL     1      21.377   0.593  52.997  1.00  0.00     0.057 C 
HETATM   13  C9  UNL     1      20.646  -0.362  53.552  1.00  0.00     0.031 C 
HETATM   14  C10 UNL     1      21.160  -1.340  54.504  1.00  0.00     0.026 C 
HETATM   15  C11 UNL     1      22.398  -1.518  54.941  1.00  0.00     0.135 C 
HETATM   16  O1  UNL     1      23.501  -0.768  54.556  1.00  0.00    -0.351 OA
HETATM   17  C12 UNL     1      23.709  -0.145  53.302  1.00  0.00     0.181 C 
HETATM   18  C18 UNL     1      22.794   1.036  53.066  1.00  0.00     0.167 C 
HETATM   19 CL1  UNL     1      23.179   1.633  51.413  1.00  0.00    -0.115 Cl
BRANCH  17  20
HETATM   20  C13 UNL     1      25.136   0.225  53.116  1.00  0.00    -0.043 A 
HETATM   21  C14 UNL     1      25.930   1.266  53.130  1.00  0.00     0.047 A 
HETATM   22  C15 UNL     1      27.302   0.897  52.852  1.00  0.00     0.113 A 
HETATM   23  F1  UNL     1      28.312   1.773  52.805  1.00  0.00    -0.206 F 
HETATM   24  C16 UNL     1      27.360  -0.411  52.661  1.00  0.00     0.020 A 
HETATM   25  C17 UNL     1      25.996  -0.965  52.810  1.00  0.00     0.067 A 
ENDBRANCH  17  20
ENDBRANCH   9  12
BRANCH   1  26
HETATM   26  N1  UNL     1      17.174   4.487  50.820  1.00  0.00     0.086 N 
HETATM   27  H1  UNL     1      18.005   4.905  51.290  1.00  0.00     0.313 HD
HETATM   28  H2  UNL     1      16.935   5.004  49.936  1.00  0.00     0.313 HD
ENDBRANCH   1  26
TORSDOF 3
ENDMDL
MODEL 6
REMARK VINA RESULT:      -7.7      3.740      7.578
REMARK  3 active torsions:
REMARK  status: ('A' for Active; 'I' for Inactive)
REMARK    1  A    between atoms: N1_1  and  C1_2 
REMARK    2  A    between atoms: N3_10  and  C8_11 
REMARK    3  A    between atoms: C12_16  and  C13_17 
ROOT
HETATM    1  C1  UNL     1      27.894   0.693  54.305  1.00  0.00     0.255 C 
HETATM    2  C2  UNL     1      29.258   0.780  53.706  1.00  0.00     0.184 C 
HETATM    3  N2  UNL     1      29.817  -0.472  53.356  1.00  0.00    -0.303 NA
HETATM    4  C3  UNL     1      29.076  -1.473  53.152  1.00  0.00     0.085 C 
HETATM    5  C4  UNL     1      27.595  -1.525  53.232  1.00  0.00     0.067 C 
HETATM    6  C5  UNL     1      26.991  -0.154  53.448  1.00  0.00     0.051 A 
HETATM    7  C6  UNL     1      26.757   0.560  52.168  1.00  0.00     0.010 A 
HETATM    8  C7  UNL     1      25.617   0.963  51.630  1.00  0.00     0.115 A 
HETATM    9  N3  UNL     1      24.461   0.660  52.402  1.00  0.00    -0.248 N 
HETATM   10  N4  UNL     1      24.535  -0.010  53.628  1.00  0.00    -0.183 NA
HETATM   11  C19 UNL     1      25.677  -0.379  54.104  1.00  0.00     0.128 A 
ENDROOT
BRANCH   9  12
HETATM   12  C8  UNL     1      23.197   1.062  51.889  1.00  0.00     0.057 C 
HETATM   13  C9  UNL     1      22.302   0.115  52.124  1.00  0.00     0.031 C 
HETATM   14  C10 UNL     1      20.899   0.196  51.733  1.00  0.00     0.026 C 
HETATM   15  C11 UNL     1      20.243   1.193  51.157  1.00  0.00     0.135 C 
HETATM   16  O1  UNL     1      20.794   2.414  50.796  1.00  0.00    -0.351 OA
HETATM   17  C12 UNL     1      21.864   3.086  51.436  1.00  0.00     0.181 C 
HETATM   18  C18 UNL     1      23.197   2.400  51.240  1.00  0.00     0.167 C 
HETATM   19 CL1  UNL     1      24.391   3.372  52.172  1.00  0.00    -0.115 Cl
BRANCH  17  20
HETATM   20  C13 UNL     1      21.920   4.514  51.030  1.00  0.00    -0.043 A 
HETATM   21  C14 UNL     1      21.780   5.720  51.521  1.00  0.00     0.047 A 
HETATM   22  C15 UNL     1      21.985   6.737  50.510  1.00  0.00     0.113 A 
HETATM   23  F1  UNL     1      21.897   8.049  50.748  1.00  0.00    -0.206 F 
HETATM   24  C16 UNL     1      22.260   6.142  49.360  1.00  0.00     0.020 A 
HETATM   25  C17 UNL     1      22.247   4.678  49.576  1.00  0.00     0.067 A 
ENDBRANCH  17  20
ENDBRANCH   9  12
BRANCH   1  26
HETATM   26  N1  UNL     1      27.951   0.079  55.630  1.00  0.00     0.086 N 
HETATM   27  H1  UNL     1      27.500   0.705  56.331  1.00  0.00     0.313 HD
HETATM   28  H2  UNL     1      27.467  -0.854  55.586  1.00  0.00     0.313 HD
ENDBRANCH   1  26
TORSDOF 3
ENDMDL
MODEL 7
REMARK VINA RESULT:      -7.7      3.170      4.511
REMARK  3 active torsions:
REMARK  status: ('A' for Active; 'I' for Inactive)
REMARK    1  A    between atoms: N1_1  and  C1_2 
REMARK    2  A    between atoms: N3_10  and  C8_11 
REMARK    3  A    between atoms: C12_16  and  C13_17 
ROOT
HETATM    1  C1  UNL     1      18.754   3.500  49.153  1.00  0.00     0.255 C 
HETATM    2  C2  UNL     1      17.761   4.476  49.691  1.00  0.00     0.184 C 
HETATM    3  N2  UNL     1      17.080   4.028  50.847  1.00  0.00    -0.303 NA
HETATM    4  C3  UNL     1      17.579   3.130  51.581  1.00  0.00     0.085 C 
HETATM    5  C4  UNL     1      18.873   2.429  51.388  1.00  0.00     0.067 C 
HETATM    6  C5  UNL     1      19.671   3.019  50.246  1.00  0.00     0.051 A 
HETATM    7  C6  UNL     1      20.514   4.158  50.685  1.00  0.00     0.010 A 
HETATM    8  C7  UNL     1      21.833   4.275  50.683  1.00  0.00     0.115 A 
HETATM    9  N3  UNL     1      22.524   3.136  50.185  1.00  0.00    -0.248 N 
HETATM   10  N4  UNL     1      21.856   1.991  49.738  1.00  0.00    -0.183 NA
HETATM   11  C19 UNL     1      20.567   1.935  49.764  1.00  0.00     0.128 A 
ENDROOT
BRANCH   9  12
HETATM   12  C8  UNL     1      23.946   3.186  50.151  1.00  0.00     0.057 C 
HETATM   13  C9  UNL     1      24.335   4.206  49.402  1.00  0.00     0.031 C 
HETATM   14  C10 UNL     1      25.729   4.554  49.150  1.00  0.00     0.026 C 
HETATM   15  C11 UNL     1      26.833   4.006  49.635  1.00  0.00     0.135 C 
HETATM   16  O1  UNL     1      26.877   2.940  50.523  1.00  0.00    -0.351 OA
HETATM   17  C12 UNL     1      25.920   2.620  51.514  1.00  0.00     0.181 C 
HETATM   18  C18 UNL     1      24.615   2.117  50.939  1.00  0.00     0.167 C 
HETATM   19 CL1  UNL     1      23.534   1.830  52.350  1.00  0.00    -0.115 Cl
BRANCH  17  20
HETATM   20  C13 UNL     1      26.477   1.670  52.512  1.00  0.00    -0.043 A 
HETATM   21  C14 UNL     1      26.869   1.616  53.760  1.00  0.00     0.047 A 
HETATM   22  C15 UNL     1      27.333   0.291  54.119  1.00  0.00     0.113 A 
HETATM   23  F1  UNL     1      27.788  -0.033  55.334  1.00  0.00    -0.206 F 
HETATM   24  C16 UNL     1      27.224  -0.497  53.062  1.00  0.00     0.020 A 
HETATM   25  C17 UNL     1      26.672   0.297  51.942  1.00  0.00     0.067 A 
ENDBRANCH  17  20
ENDBRANCH   9  12
BRANCH   1  26
HETATM   26  N1  UNL     1      18.080   2.331  48.593  1.00  0.00     0.086 N 
HETATM   27  H1  UNL     1      17.729   2.547  47.636  1.00  0.00     0.313 HD
HETATM   28  H2  UNL     1      18.761   1.530  48.578  1.00  0.00     0.313 HD
ENDBRANCH   1  26
TORSDOF 3
ENDMDL
MODEL 8
REMARK VINA RESULT:      -7.7      3.733      7.382
REMARK  3 active torsions:
REMARK  status: ('A' for Active; 'I' for Inactive)
REMARK    1  A    between atoms: N1_1  and  C1_2 
REMARK    2  A    between atoms: N3_10  and  C8_11 
REMARK    3  A    between atoms: C12_16  and  C13_17 
ROOT
HETATM    1  C1  UNL     1      27.866   1.612  53.017  1.00  0.00     0.255 C 
HETATM    2  C2  UNL     1      28.819   0.464  52.998  1.00  0.00     0.184 C 
HETATM    3  N2  UNL     1      28.971  -0.182  54.248  1.00  0.00    -0.303 NA
HETATM    4  C3  UNL     1      28.076  -0.090  55.133  1.00  0.00     0.085 C 
HETATM    5  C4  UNL     1      26.794   0.653  55.039  1.00  0.00     0.067 C 
HETATM    6  C5  UNL     1      26.561   1.208  53.651  1.00  0.00     0.051 A 
HETATM    7  C6  UNL     1      25.894   0.225  52.762  1.00  0.00     0.010 A 
HETATM    8  C7  UNL     1      24.709   0.292  52.178  1.00  0.00     0.115 A 
HETATM    9  N3  UNL     1      23.984   1.485  52.453  1.00  0.00    -0.248 N 
HETATM   10  N4  UNL     1      24.491   2.496  53.275  1.00  0.00    -0.183 NA
HETATM   11  C19 UNL     1      25.656   2.375  53.817  1.00  0.00     0.128 A 
ENDROOT
BRANCH   9  12
HETATM   12  C8  UNL     1      22.699   1.631  51.860  1.00  0.00     0.057 C 
HETATM   13  C9  UNL     1      21.765   1.522  52.793  1.00  0.00     0.031 C 
HETATM   14  C10 UNL     1      20.333   1.622  52.537  1.00  0.00     0.026 C 
HETATM   15  C11 UNL     1      19.698   1.891  51.406  1.00  0.00     0.135 C 
HETATM   16  O1  UNL     1      20.306   2.144  50.184  1.00  0.00    -0.351 OA
HETATM   17  C12 UNL     1      21.570   2.745  49.973  1.00  0.00     0.181 C 
HETATM   18  C18 UNL     1      22.725   1.863  50.391  1.00  0.00     0.167 C 
HETATM   19 CL1  UNL     1      24.214   2.830  50.097  1.00  0.00    -0.115 Cl
BRANCH  17  20
HETATM   20  C13 UNL     1      21.717   3.205  48.567  1.00  0.00    -0.043 A 
HETATM   21  C14 UNL     1      21.884   2.740  47.354  1.00  0.00     0.047 A 
HETATM   22  C15 UNL     1      21.950   3.807  46.377  1.00  0.00     0.113 A 
HETATM   23  F1  UNL     1      22.117   3.603  45.066  1.00  0.00    -0.206 F 
HETATM   24  C16 UNL     1      21.821   4.965  47.003  1.00  0.00     0.020 A 
HETATM   25  C17 UNL     1      21.660   4.699  48.450  1.00  0.00     0.067 A 
ENDBRANCH  17  20
ENDBRANCH   9  12
BRANCH   1  26
HETATM   26  N1  UNL     1      28.411   2.723  53.794  1.00  0.00     0.086 N 
HETATM   27  H1  UNL     1      27.714   3.497  53.844  1.00  0.00     0.313 HD
HETATM   28  H2  UNL     1      28.658   2.369  54.753  1.00  0.00     0.313 HD
ENDBRANCH   1  26
TORSDOF 3
ENDMDL
MODEL 9
REMARK VINA RESULT:      -7.3      3.679      6.948
REMARK  3 active torsions:
REMARK  status: ('A' for Active; 'I' for Inactive)
REMARK    1  A    between atoms: N1_1  and  C1_2 
REMARK    2  A    between atoms: N3_10  and  C8_11 
REMARK    3  A    between atoms: C12_16  and  C13_17 
ROOT
HETATM    1  C1  UNL     1      21.185   1.033  52.429  1.00  0.00     0.255 C 
HETATM    2  C2  UNL     1      21.063   0.724  53.884  1.00  0.00     0.184 C 
HETATM    3  N2  UNL     1      22.017  -0.206  54.359  1.00  0.00    -0.303 NA
HETATM    4  C3  UNL     1      23.103  -0.387  53.742  1.00  0.00     0.085 C 
HETATM    5  C4  UNL     1      23.552   0.289  52.499  1.00  0.00     0.067 C 
HETATM    6  C5  UNL     1      22.605   1.393  52.081  1.00  0.00     0.051 A 
HETATM    7  C6  UNL     1      22.934   2.684  52.735  1.00  0.00     0.010 A 
HETATM    8  C7  UNL     1      23.320   3.827  52.188  1.00  0.00     0.115 A 
HETATM    9  N3  UNL     1      23.431   3.792  50.769  1.00  0.00    -0.248 N 
HETATM   10  N4  UNL     1      23.153   2.641  50.025  1.00  0.00    -0.183 NA
HETATM   11  C19 UNL     1      22.779   1.556  50.615  1.00  0.00     0.128 A 
ENDROOT
BRANCH   9  12
HETATM   12  C8  UNL     1      23.841   4.983  50.108  1.00  0.00     0.057 C 
HETATM   13  C9  UNL     1      22.993   5.960  50.387  1.00  0.00     0.031 C 
HETATM   14  C10 UNL     1      23.111   7.321  49.876  1.00  0.00     0.026 C 
HETATM   15  C11 UNL     1      24.062   7.858  49.128  1.00  0.00     0.135 C 
HETATM   16  O1  UNL     1      25.188   7.194  48.662  1.00  0.00    -0.351 OA
HETATM   17  C12 UNL     1      25.869   6.127  49.297  1.00  0.00     0.181 C 
HETATM   18  C18 UNL     1      25.080   4.837  49.298  1.00  0.00     0.167 C 
HETATM   19 CL1  UNL     1      26.088   3.646  50.194  1.00  0.00    -0.115 Cl
BRANCH  17  20
HETATM   20  C13 UNL     1      27.225   5.937  48.720  1.00  0.00    -0.043 A 
HETATM   21  C14 UNL     1      28.151   5.023  48.572  1.00  0.00     0.047 A 
HETATM   22  C15 UNL     1      29.305   5.539  47.866  1.00  0.00     0.113 A 
HETATM   23  F1  UNL     1      30.391   4.812  47.586  1.00  0.00    -0.206 F 
HETATM   24  C16 UNL     1      29.087   6.810  47.569  1.00  0.00     0.020 A 
HETATM   25  C17 UNL     1      27.750   7.187  48.079  1.00  0.00     0.067 A 
ENDBRANCH  17  20
ENDBRANCH   9  12
BRANCH   1  26
HETATM   26  N1  UNL     1      20.811  -0.125  51.621  1.00  0.00     0.086 N 
HETATM   27  H1  UNL     1      20.369   0.190  50.731  1.00  0.00     0.313 HD
HETATM   28  H2  UNL     1      21.676  -0.695  51.436  1.00  0.00     0.313 HD
ENDBRANCH   1  26
TORSDOF 3
ENDMDL
