MODEL 1
REMARK VINA RESULT:      -6.7      0.000      0.000
REMARK  2 active torsions:
REMARK  status: ('A' for Active; 'I' for Inactive)
REMARK    1  A    between atoms: C7_10  and  C8_11 
REMARK    2  A    between atoms: C8_11  and  C9_12 
ROOT
HETATM    1  C1  UNL     1      25.648   6.205  49.932  1.00  0.00     0.091 C 
HETATM    2  C2  UNL     1      24.716   5.128  50.379  1.00  0.00     0.102 C 
HETATM    3  N1  UNL     1      24.771   4.028  49.652  1.00  0.00    -0.217 NA
HETATM    4  C3  UNL     1      23.982   2.875  49.889  1.00  0.00     0.146 C 
HETATM    5  N2  UNL     1      22.873   2.931  49.034  1.00  0.00    -0.261 NA
HETATM    6  C4  UNL     1      22.152   1.670  49.358  1.00  0.00     0.166 A 
HETATM    7  C5  UNL     1      21.491   0.911  50.188  1.00  0.00     0.113 A 
HETATM    8  C6  UNL     1      21.718   2.013  50.939  1.00  0.00     0.109 A 
HETATM    9  S1  UNL     1      21.367   0.849  52.082  1.00  0.00    -0.148 SA
HETATM   10  C7  UNL     1      22.925   0.523  52.773  1.00  0.00    -0.022 C 
HETATM   11  C10 UNL     1      23.977   1.284  52.101  1.00  0.00     0.018 C 
HETATM   12  C11 UNL     1      24.373   2.095  51.130  1.00  0.00     0.053 C 
HETATM   13  N3  UNL     1      21.927   3.184  51.560  1.00  0.00    -0.399 N 
HETATM   14  C12 UNL     1      22.150   4.417  52.226  1.00  0.00     0.144 C 
HETATM   15  C13 UNL     1      21.860   5.648  51.458  1.00  0.00     0.009 C 
HETATM   16  C14 UNL     1      22.861   6.413  51.087  1.00  0.00     0.087 C 
HETATM   17  N4  UNL     1      24.128   5.864  51.516  1.00  0.00    -0.355 N 
HETATM   18  H11 UNL     1      21.480   3.440  50.653  1.00  0.00     0.155 HD
HETATM   19  H16 UNL     1      24.668   5.890  52.400  1.00  0.00     0.166 HD
ENDROOT
BRANCH  10  20
HETATM   20  C8  UNL     1      23.093  -0.403  53.868  1.00  0.00     0.114 C 
BRANCH  20  21
HETATM   21  C9  UNL     1      21.834  -1.047  54.345  1.00  0.00     0.236 C 
HETATM   22  O1  UNL     1      21.882  -1.866  55.254  1.00  0.00    -0.307 OA
ENDBRANCH  20  21
ENDBRANCH  10  20
TORSDOF 2
ENDMDL
MODEL 2
REMARK VINA RESULT:      -6.6      1.096      1.257
REMARK  2 active torsions:
REMARK  status: ('A' for Active; 'I' for Inactive)
REMARK    1  A    between atoms: C7_10  and  C8_11 
REMARK    2  A    between atoms: C8_11  and  C9_12 
ROOT
HETATM    1  C1  UNL     1      25.815   6.270  49.516  1.00  0.00     0.091 C 
HETATM    2  C2  UNL     1      24.959   5.197  50.105  1.00  0.00     0.102 C 
HETATM    3  N1  UNL     1      24.908   4.091  49.387  1.00  0.00    -0.217 NA
HETATM    4  C3  UNL     1      24.162   2.941  49.748  1.00  0.00     0.146 C 
HETATM    5  N2  UNL     1      22.941   2.989  49.063  1.00  0.00    -0.261 NA
HETATM    6  C4  UNL     1      22.275   1.732  49.500  1.00  0.00     0.166 A 
HETATM    7  C5  UNL     1      21.743   0.981  50.425  1.00  0.00     0.113 A 
HETATM    8  C6  UNL     1      22.077   2.091  51.125  1.00  0.00     0.109 A 
HETATM    9  S1  UNL     1      21.896   0.938  52.317  1.00  0.00    -0.148 SA
HETATM   10  C7  UNL     1      23.538   0.617  52.777  1.00  0.00    -0.022 C 
HETATM   11  C10 UNL     1      24.480   1.371  51.953  1.00  0.00     0.018 C 
HETATM   12  C11 UNL     1      24.730   2.172  50.927  1.00  0.00     0.053 C 
HETATM   13  N3  UNL     1      22.373   3.268  51.697  1.00  0.00    -0.399 N 
HETATM   14  C12 UNL     1      22.689   4.507  52.312  1.00  0.00     0.144 C 
HETATM   15  C13 UNL     1      22.291   5.730  51.583  1.00  0.00     0.009 C 
HETATM   16  C14 UNL     1      23.226   6.491  51.063  1.00  0.00     0.087 C 
HETATM   17  N4  UNL     1      24.543   5.945  51.308  1.00  0.00    -0.355 N 
HETATM   18  H11 UNL     1      21.798   3.515  50.862  1.00  0.00     0.155 HD
HETATM   19  H16 UNL     1      25.205   5.979  52.103  1.00  0.00     0.166 HD
ENDROOT
BRANCH  10  20
HETATM   20  C8  UNL     1      23.864  -0.298  53.845  1.00  0.00     0.114 C 
BRANCH  20  21
HETATM   21  C9  UNL     1      25.317  -0.389  54.174  1.00  0.00     0.236 C 
HETATM   22  O1  UNL     1      25.666  -0.892  55.234  1.00  0.00    -0.307 OA
ENDBRANCH  20  21
ENDBRANCH  10  20
TORSDOF 2
ENDMDL
MODEL 3
REMARK VINA RESULT:      -6.4      1.935      3.519
REMARK  2 active torsions:
REMARK  status: ('A' for Active; 'I' for Inactive)
REMARK    1  A    between atoms: C7_10  and  C8_11 
REMARK    2  A    between atoms: C8_11  and  C9_12 
ROOT
HETATM    1  C1  UNL     1      19.372   5.362  49.348  1.00  0.00     0.091 C 
HETATM    2  C2  UNL     1      20.402   4.465  49.953  1.00  0.00     0.102 C 
HETATM    3  N1  UNL     1      20.691   4.744  51.210  1.00  0.00    -0.217 NA
HETATM    4  C3  UNL     1      21.634   4.028  51.989  1.00  0.00     0.146 C 
HETATM    5  N2  UNL     1      22.844   4.735  51.953  1.00  0.00    -0.261 NA
HETATM    6  C4  UNL     1      23.728   3.907  52.817  1.00  0.00     0.166 A 
HETATM    7  C5  UNL     1      24.367   2.798  53.071  1.00  0.00     0.113 A 
HETATM    8  C6  UNL     1      23.802   2.526  51.871  1.00  0.00     0.109 A 
HETATM    9  S1  UNL     1      24.166   1.010  52.466  1.00  0.00    -0.148 SA
HETATM   10  C7  UNL     1      22.604   0.399  52.912  1.00  0.00    -0.022 C 
HETATM   11  C10 UNL     1      21.560   1.398  52.699  1.00  0.00     0.018 C 
HETATM   12  C11 UNL     1      21.191   2.631  52.380  1.00  0.00     0.053 C 
HETATM   13  N3  UNL     1      23.264   2.398  50.649  1.00  0.00    -0.399 N 
HETATM   14  C12 UNL     1      22.693   2.252  49.358  1.00  0.00     0.144 C 
HETATM   15  C13 UNL     1      22.868   3.384  48.423  1.00  0.00     0.009 C 
HETATM   16  C14 UNL     1      21.819   4.102  48.094  1.00  0.00     0.087 C 
HETATM   17  N4  UNL     1      20.627   3.625  48.760  1.00  0.00    -0.355 N 
HETATM   18  H11 UNL     1      23.805   3.289  50.610  1.00  0.00     0.155 HD
HETATM   19  H16 UNL     1      19.946   2.867  48.573  1.00  0.00     0.166 HD
ENDROOT
BRANCH  10  20
HETATM   20  C8  UNL     1      22.430  -0.937  53.431  1.00  0.00     0.114 C 
BRANCH  20  21
HETATM   21  C9  UNL     1      22.033  -1.006  54.867  1.00  0.00     0.236 C 
HETATM   22  O1  UNL     1      22.645  -1.746  55.628  1.00  0.00    -0.307 OA
ENDBRANCH  20  21
ENDBRANCH  10  20
TORSDOF 2
ENDMDL
MODEL 4
REMARK VINA RESULT:      -6.3      3.211      3.919
REMARK  2 active torsions:
REMARK  status: ('A' for Active; 'I' for Inactive)
REMARK    1  A    between atoms: C7_10  and  C8_11 
REMARK    2  A    between atoms: C8_11  and  C9_12 
ROOT
HETATM    1  C1  UNL     1      23.045   5.252  48.586  1.00  0.00     0.091 C 
HETATM    2  C2  UNL     1      23.616   4.528  49.760  1.00  0.00     0.102 C 
HETATM    3  N1  UNL     1      23.919   3.265  49.522  1.00  0.00    -0.217 NA
HETATM    4  C3  UNL     1      24.475   2.384  50.483  1.00  0.00     0.146 C 
HETATM    5  N2  UNL     1      23.426   1.633  51.032  1.00  0.00    -0.261 NA
HETATM    6  C4  UNL     1      24.136   0.742  51.990  1.00  0.00     0.166 A 
HETATM    7  C5  UNL     1      24.851   0.556  53.066  1.00  0.00     0.113 A 
HETATM    8  C6  UNL     1      24.686   1.900  53.069  1.00  0.00     0.109 A 
HETATM    9  S1  UNL     1      25.995   1.682  54.081  1.00  0.00    -0.148 SA
HETATM   10  C7  UNL     1      27.318   2.231  53.101  1.00  0.00    -0.022 C 
HETATM   11  C10 UNL     1      26.870   2.606  51.762  1.00  0.00     0.018 C 
HETATM   12  C11 UNL     1      25.918   2.681  50.842  1.00  0.00     0.053 C 
HETATM   13  N3  UNL     1      24.387   3.207  53.017  1.00  0.00    -0.399 N 
HETATM   14  C12 UNL     1      24.081   4.591  52.966  1.00  0.00     0.144 C 
HETATM   15  C13 UNL     1      22.676   4.951  52.680  1.00  0.00     0.009 C 
HETATM   16  C14 UNL     1      22.387   5.508  51.526  1.00  0.00     0.087 C 
HETATM   17  N4  UNL     1      23.568   5.660  50.707  1.00  0.00    -0.355 N 
HETATM   18  H11 UNL     1      23.467   2.721  52.939  1.00  0.00     0.155 HD
HETATM   19  H16 UNL     1      24.329   6.361  50.653  1.00  0.00     0.166 HD
ENDROOT
BRANCH  10  20
HETATM   20  C8  UNL     1      28.670   2.277  53.606  1.00  0.00     0.114 C 
BRANCH  20  21
HETATM   21  C9  UNL     1      29.132   1.029  54.281  1.00  0.00     0.236 C 
HETATM   22  O1  UNL     1      29.711   0.168  53.629  1.00  0.00    -0.307 OA
ENDBRANCH  20  21
ENDBRANCH  10  20
TORSDOF 2
ENDMDL
MODEL 5
REMARK VINA RESULT:      -6.2      9.112     11.469
REMARK  2 active torsions:
REMARK  status: ('A' for Active; 'I' for Inactive)
REMARK    1  A    between atoms: C7_10  and  C8_11 
REMARK    2  A    between atoms: C8_11  and  C9_12 
ROOT
HETATM    1  C1  UNL     1      35.133   5.327  48.810  1.00  0.00     0.091 C 
HETATM    2  C2  UNL     1      33.848   5.970  48.406  1.00  0.00     0.102 C 
HETATM    3  N1  UNL     1      32.839   5.721  49.220  1.00  0.00    -0.217 NA
HETATM    4  C3  UNL     1      31.526   6.225  49.040  1.00  0.00     0.146 C 
HETATM    5  N2  UNL     1      30.767   5.230  48.410  1.00  0.00    -0.261 NA
HETATM    6  C4  UNL     1      29.425   5.864  48.306  1.00  0.00     0.166 A 
HETATM    7  C5  UNL     1      28.629   6.786  47.841  1.00  0.00     0.113 A 
HETATM    8  C6  UNL     1      29.802   7.106  47.246  1.00  0.00     0.109 A 
HETATM    9  S1  UNL     1      28.921   8.517  47.114  1.00  0.00    -0.148 SA
HETATM   10  C7  UNL     1      29.678   9.540  48.294  1.00  0.00    -0.022 C 
HETATM   11  C10 UNL     1      30.728   8.830  49.021  1.00  0.00     0.018 C 
HETATM   12  C11 UNL     1      31.389   7.714  49.296  1.00  0.00     0.053 C 
HETATM   13  N3  UNL     1      30.991   7.277  46.650  1.00  0.00    -0.399 N 
HETATM   14  C12 UNL     1      32.248   7.469  46.019  1.00  0.00     0.144 C 
HETATM   15  C13 UNL     1      32.906   6.264  45.470  1.00  0.00     0.009 C 
HETATM   16  C14 UNL     1      33.997   5.818  46.051  1.00  0.00     0.087 C 
HETATM   17  N4  UNL     1      34.356   6.634  47.189  1.00  0.00    -0.355 N 
HETATM   18  H11 UNL     1      30.751   6.276  46.480  1.00  0.00     0.155 HD
HETATM   19  H16 UNL     1      34.870   7.525  47.309  1.00  0.00     0.166 HD
ENDROOT
BRANCH  10  20
HETATM   20  C8  UNL     1      29.267  10.911  48.487  1.00  0.00     0.114 C 
BRANCH  20  21
HETATM   21  C9  UNL     1      30.380  11.906  48.488  1.00  0.00     0.236 C 
HETATM   22  O1  UNL     1      30.504  12.671  49.437  1.00  0.00    -0.307 OA
ENDBRANCH  20  21
ENDBRANCH  10  20
TORSDOF 2
ENDMDL
MODEL 6
REMARK VINA RESULT:      -6.2      1.935      3.251
REMARK  2 active torsions:
REMARK  status: ('A' for Active; 'I' for Inactive)
REMARK    1  A    between atoms: C7_10  and  C8_11 
REMARK    2  A    between atoms: C8_11  and  C9_12 
ROOT
HETATM    1  C1  UNL     1      20.989   6.128  48.989  1.00  0.00     0.091 C 
HETATM    2  C2  UNL     1      21.425   4.888  49.698  1.00  0.00     0.102 C 
HETATM    3  N1  UNL     1      21.892   5.096  50.914  1.00  0.00    -0.217 NA
HETATM    4  C3  UNL     1      22.361   4.072  51.775  1.00  0.00     0.146 C 
HETATM    5  N2  UNL     1      23.757   4.022  51.659  1.00  0.00    -0.261 NA
HETATM    6  C4  UNL     1      24.121   2.943  52.618  1.00  0.00     0.166 A 
HETATM    7  C5  UNL     1      24.094   1.697  53.002  1.00  0.00     0.113 A 
HETATM    8  C6  UNL     1      23.399   1.646  51.841  1.00  0.00     0.109 A 
HETATM    9  S1  UNL     1      22.944   0.237  52.610  1.00  0.00    -0.148 SA
HETATM   10  C7  UNL     1      21.325   0.597  53.121  1.00  0.00    -0.022 C 
HETATM   11  C10 UNL     1      20.954   1.971  52.789  1.00  0.00     0.018 C 
HETATM   12  C11 UNL     1      21.272   3.172  52.326  1.00  0.00     0.053 C 
HETATM   13  N3  UNL     1      22.803   1.700  50.641  1.00  0.00    -0.399 N 
HETATM   14  C12 UNL     1      22.164   1.749  49.374  1.00  0.00     0.144 C 
HETATM   15  C13 UNL     1      22.853   2.514  48.313  1.00  0.00     0.009 C 
HETATM   16  C14 UNL     1      22.323   3.642  47.899  1.00  0.00     0.087 C 
HETATM   17  N4  UNL     1      21.101   3.941  48.613  1.00  0.00    -0.355 N 
HETATM   18  H11 UNL     1      23.729   2.159  50.498  1.00  0.00     0.155 HD
HETATM   19  H16 UNL     1      20.113   3.646  48.514  1.00  0.00     0.166 HD
ENDROOT
BRANCH  10  20
HETATM   20  C8  UNL     1      20.503  -0.382  53.793  1.00  0.00     0.114 C 
BRANCH  20  21
HETATM   21  C9  UNL     1      21.235  -1.589  54.278  1.00  0.00     0.236 C 
HETATM   22  O1  UNL     1      21.844  -1.540  55.339  1.00  0.00    -0.307 OA
ENDBRANCH  20  21
ENDBRANCH  10  20
TORSDOF 2
ENDMDL
MODEL 7
REMARK VINA RESULT:      -6.1      3.281      5.781
REMARK  2 active torsions:
REMARK  status: ('A' for Active; 'I' for Inactive)
REMARK    1  A    between atoms: C7_10  and  C8_11 
REMARK    2  A    between atoms: C8_11  and  C9_12 
ROOT
HETATM    1  C1  UNL     1      23.654  -0.493  54.330  1.00  0.00     0.091 C 
HETATM    2  C2  UNL     1      23.902   0.587  53.329  1.00  0.00     0.102 C 
HETATM    3  N1  UNL     1      22.824   0.978  52.676  1.00  0.00    -0.217 NA
HETATM    4  C3  UNL     1      22.816   1.989  51.682  1.00  0.00     0.146 C 
HETATM    5  N2  UNL     1      22.883   1.361  50.431  1.00  0.00    -0.261 NA
HETATM    6  C4  UNL     1      22.840   2.513  49.490  1.00  0.00     0.166 A 
HETATM    7  C5  UNL     1      23.358   3.600  48.987  1.00  0.00     0.113 A 
HETATM    8  C6  UNL     1      24.300   3.233  49.888  1.00  0.00     0.109 A 
HETATM    9  S1  UNL     1      24.646   4.843  49.620  1.00  0.00    -0.148 SA
HETATM   10  C7  UNL     1      24.086   5.593  51.082  1.00  0.00    -0.022 C 
HETATM   11  C10 UNL     1      23.462   4.620  51.975  1.00  0.00     0.018 C 
HETATM   12  C11 UNL     1      23.022   3.393  52.218  1.00  0.00     0.053 C 
HETATM   13  N3  UNL     1      25.200   2.730  50.746  1.00  0.00    -0.399 N 
HETATM   14  C12 UNL     1      26.155   2.208  51.656  1.00  0.00     0.144 C 
HETATM   15  C13 UNL     1      26.439   0.760  51.562  1.00  0.00     0.009 C 
HETATM   16  C14 UNL     1      26.043  -0.028  52.535  1.00  0.00     0.087 C 
HETATM   17  N4  UNL     1      25.353   0.717  53.565  1.00  0.00    -0.355 N 
HETATM   18  H11 UNL     1      24.975   1.940  50.102  1.00  0.00     0.155 HD
HETATM   19  H16 UNL     1      25.658   1.277  54.382  1.00  0.00     0.166 HD
ENDROOT
BRANCH  10  20
HETATM   20  C8  UNL     1      24.242   7.009  51.318  1.00  0.00     0.114 C 
BRANCH  20  21
HETATM   21  C9  UNL     1      23.334   7.883  50.519  1.00  0.00     0.236 C 
HETATM   22  O1  UNL     1      22.121   7.745  50.619  1.00  0.00    -0.307 OA
ENDBRANCH  20  21
ENDBRANCH  10  20
TORSDOF 2
ENDMDL
MODEL 8
REMARK VINA RESULT:      -6.0      3.281      5.574
REMARK  2 active torsions:
REMARK  status: ('A' for Active; 'I' for Inactive)
REMARK    1  A    between atoms: C7_10  and  C8_11 
REMARK    2  A    between atoms: C8_11  and  C9_12 
ROOT
HETATM    1  C1  UNL     1      25.627  -0.552  53.921  1.00  0.00     0.091 C 
HETATM    2  C2  UNL     1      24.723   0.410  53.224  1.00  0.00     0.102 C 
HETATM    3  N1  UNL     1      25.242   1.611  53.048  1.00  0.00    -0.217 NA
HETATM    4  C3  UNL     1      24.571   2.684  52.410  1.00  0.00     0.146 C 
HETATM    5  N2  UNL     1      24.007   3.490  53.408  1.00  0.00    -0.261 NA
HETATM    6  C4  UNL     1      23.366   4.578  52.620  1.00  0.00     0.166 A 
HETATM    7  C5  UNL     1      22.479   4.998  51.760  1.00  0.00     0.113 A 
HETATM    8  C6  UNL     1      22.194   3.676  51.832  1.00  0.00     0.109 A 
HETATM    9  S1  UNL     1      21.474   4.136  50.398  1.00  0.00    -0.148 SA
HETATM   10  C7  UNL     1      22.538   3.453  49.210  1.00  0.00    -0.022 C 
HETATM   11  C10 UNL     1      23.689   2.804  49.835  1.00  0.00     0.018 C 
HETATM   12  C11 UNL     1      24.407   2.515  50.912  1.00  0.00     0.053 C 
HETATM   13  N3  UNL     1      21.948   2.375  52.046  1.00  0.00    -0.399 N 
HETATM   14  C12 UNL     1      21.685   0.998  52.261  1.00  0.00     0.144 C 
HETATM   15  C13 UNL     1      21.661   0.539  53.667  1.00  0.00     0.009 C 
HETATM   16  C14 UNL     1      22.624  -0.246  54.094  1.00  0.00     0.087 C 
HETATM   17  N4  UNL     1      23.585  -0.514  53.047  1.00  0.00    -0.355 N 
HETATM   18  H11 UNL     1      21.963   2.803  52.997  1.00  0.00     0.155 HD
HETATM   19  H16 UNL     1      23.630  -1.184  52.259  1.00  0.00     0.166 HD
ENDROOT
BRANCH  10  20
HETATM   20  C8  UNL     1      22.266   3.556  47.796  1.00  0.00     0.114 C 
BRANCH  20  21
HETATM   21  C9  UNL     1      22.343   4.939  47.240  1.00  0.00     0.236 C 
HETATM   22  O1  UNL     1      23.175   5.722  47.682  1.00  0.00    -0.307 OA
ENDBRANCH  20  21
ENDBRANCH  10  20
TORSDOF 2
ENDMDL
MODEL 9
REMARK VINA RESULT:      -5.7      8.863     11.898
REMARK  2 active torsions:
REMARK  status: ('A' for Active; 'I' for Inactive)
REMARK    1  A    between atoms: C7_10  and  C8_11 
REMARK    2  A    between atoms: C8_11  and  C9_12 
ROOT
HETATM    1  C1  UNL     1      27.759   5.313  48.469  1.00  0.00     0.091 C 
HETATM    2  C2  UNL     1      29.059   5.974  48.152  1.00  0.00     0.102 C 
HETATM    3  N1  UNL     1      30.120   5.226  48.391  1.00  0.00    -0.217 NA
HETATM    4  C3  UNL     1      31.456   5.641  48.165  1.00  0.00     0.146 C 
HETATM    5  N2  UNL     1      31.975   6.095  49.385  1.00  0.00    -0.261 NA
HETATM    6  C4  UNL     1      33.369   6.470  49.023  1.00  0.00     0.166 A 
HETATM    7  C5  UNL     1      34.222   7.209  48.369  1.00  0.00     0.113 A 
HETATM    8  C6  UNL     1      33.039   7.746  47.989  1.00  0.00     0.109 A 
HETATM    9  S1  UNL     1      34.088   8.282  46.807  1.00  0.00    -0.148 SA
HETATM   10  C7  UNL     1      33.647   7.303  45.444  1.00  0.00    -0.022 C 
HETATM   11  C10 UNL     1      32.610   6.335  45.796  1.00  0.00     0.018 C 
HETATM   12  C11 UNL     1      31.838   5.749  46.701  1.00  0.00     0.053 C 
HETATM   13  N3  UNL     1      31.818   8.249  47.750  1.00  0.00    -0.399 N 
HETATM   14  C12 UNL     1      30.531   8.784  47.486  1.00  0.00     0.144 C 
HETATM   15  C13 UNL     1      29.640   8.975  48.651  1.00  0.00     0.009 C 
HETATM   16  C14 UNL     1      28.583   8.206  48.772  1.00  0.00     0.087 C 
HETATM   17  N4  UNL     1      28.496   7.257  47.685  1.00  0.00    -0.355 N 
HETATM   18  H11 UNL     1      31.889   8.206  48.789  1.00  0.00     0.155 HD
HETATM   19  H16 UNL     1      28.136   7.296  46.715  1.00  0.00     0.166 HD
ENDROOT
BRANCH  10  20
HETATM   20  C8  UNL     1      34.272   7.470  44.153  1.00  0.00     0.114 C 
BRANCH  20  21
HETATM   21  C9  UNL     1      34.076   6.332  43.209  1.00  0.00     0.236 C 
HETATM   22  O1  UNL     1      35.023   5.606  42.933  1.00  0.00    -0.307 OA
ENDBRANCH  20  21
ENDBRANCH  10  20
TORSDOF 2
ENDMDL
