MODEL 1
REMARK VINA RESULT:      -7.9      0.000      0.000
REMARK  3 active torsions:
REMARK  status: ('A' for Active; 'I' for Inactive)
REMARK    1  A    between atoms: C9_11  and  N2_12 
REMARK    2  A    between atoms: N2_12  and  C10_13 
REMARK    3  A    between atoms: C10_13  and  C11_14 
ROOT
HETATM    1  C1  UNL     1      29.004   1.474  54.000  1.00  0.00     0.117 A 
HETATM    2  N1  UNL     1      28.381   2.118  53.073  1.00  0.00    -0.252 NA
HETATM    3  C2  UNL     1      27.212   1.380  52.756  1.00  0.00     0.234 A 
HETATM    4  O1  UNL     1      26.935   1.152  51.402  1.00  0.00    -0.307 OA
HETATM    5  C3  UNL     1      25.743   1.845  51.575  1.00  0.00     0.084 A 
HETATM    6  C4  UNL     1      24.614   2.267  50.896  1.00  0.00     0.037 A 
HETATM    7  C5  UNL     1      23.624   2.987  51.559  1.00  0.00     0.003 A 
HETATM    8  C6  UNL     1      23.827   3.252  52.903  1.00  0.00     0.001 A 
HETATM    9  C7  UNL     1      24.964   2.828  53.586  1.00  0.00     0.015 A 
HETATM   10  C8  UNL     1      25.929   2.115  52.900  1.00  0.00     0.039 A 
HETATM   11  C9  UNL     1      27.269   0.222  53.647  1.00  0.00     0.070 A 
HETATM   12  C16 UNL     1      28.345   0.245  54.417  1.00  0.00     0.049 A 
ENDROOT
BRANCH  11  13
HETATM   13  N2  UNL     1      26.285  -0.826  53.693  1.00  0.00    -0.385 N 
HETATM   14  H6  UNL     1      26.153  -1.653  53.041  1.00  0.00     0.159 HD
BRANCH  13  15
HETATM   15  C10 UNL     1      25.357  -0.709  54.796  1.00  0.00     0.159 C 
BRANCH  15  16
HETATM   16  C11 UNL     1      23.944  -0.837  54.393  1.00  0.00    -0.023 A 
HETATM   17  C12 UNL     1      23.380  -0.488  53.173  1.00  0.00     0.012 A 
HETATM   18  C13 UNL     1      22.014  -0.695  53.006  1.00  0.00     0.020 A 
HETATM   19  C14 UNL     1      21.235  -1.231  54.021  1.00  0.00     0.116 A 
HETATM   20  N3  UNL     1      21.787  -1.572  55.216  1.00  0.00    -0.273 NA
HETATM   21  C15 UNL     1      23.115  -1.363  55.358  1.00  0.00     0.124 A 
ENDBRANCH  15  16
ENDBRANCH  13  15
ENDBRANCH  11  13
TORSDOF 3
ENDMDL
MODEL 2
REMARK VINA RESULT:      -7.2      2.833      5.168
REMARK  3 active torsions:
REMARK  status: ('A' for Active; 'I' for Inactive)
REMARK    1  A    between atoms: C9_11  and  N2_12 
REMARK    2  A    between atoms: N2_12  and  C10_13 
REMARK    3  A    between atoms: C10_13  and  C11_14 
ROOT
HETATM    1  C1  UNL     1      22.856   1.544  50.753  1.00  0.00     0.117 A 
HETATM    2  N1  UNL     1      23.108   2.553  49.991  1.00  0.00    -0.252 NA
HETATM    3  C2  UNL     1      24.008   3.397  50.689  1.00  0.00     0.234 A 
HETATM    4  O1  UNL     1      23.718   4.768  50.727  1.00  0.00    -0.307 OA
HETATM    5  C3  UNL     1      24.926   4.995  50.078  1.00  0.00     0.084 A 
HETATM    6  C4  UNL     1      25.725   6.008  49.578  1.00  0.00     0.037 A 
HETATM    7  C5  UNL     1      26.941   5.707  48.970  1.00  0.00     0.003 A 
HETATM    8  C6  UNL     1      27.298   4.370  48.896  1.00  0.00     0.001 A 
HETATM    9  C7  UNL     1      26.493   3.351  49.400  1.00  0.00     0.015 A 
HETATM   10  C8  UNL     1      25.291   3.684  49.998  1.00  0.00     0.039 A 
HETATM   11  C9  UNL     1      24.227   2.711  51.962  1.00  0.00     0.070 A 
HETATM   12  C16 UNL     1      23.542   1.581  52.036  1.00  0.00     0.049 A 
ENDROOT
BRANCH  11  13
HETATM   13  N2  UNL     1      25.079   3.190  53.017  1.00  0.00    -0.385 N 
HETATM   14  H6  UNL     1      25.538   4.141  53.129  1.00  0.00     0.159 HD
BRANCH  13  15
HETATM   15  C10 UNL     1      25.326   2.217  54.058  1.00  0.00     0.159 C 
BRANCH  15  16
HETATM   16  C11 UNL     1      26.679   1.632  54.008  1.00  0.00    -0.023 A 
HETATM   17  C12 UNL     1      27.795   2.142  53.358  1.00  0.00     0.012 A 
HETATM   18  C13 UNL     1      28.982   1.420  53.442  1.00  0.00     0.020 A 
HETATM   19  C14 UNL     1      29.054   0.229  54.151  1.00  0.00     0.116 A 
HETATM   20  N3  UNL     1      27.961  -0.270  54.787  1.00  0.00    -0.273 NA
HETATM   21  C15 UNL     1      26.819   0.446  54.693  1.00  0.00     0.124 A 
ENDBRANCH  15  16
ENDBRANCH  13  15
ENDBRANCH  11  13
TORSDOF 3
ENDMDL
MODEL 3
REMARK VINA RESULT:      -7.1      2.609      6.093
REMARK  3 active torsions:
REMARK  status: ('A' for Active; 'I' for Inactive)
REMARK    1  A    between atoms: C9_11  and  N2_12 
REMARK    2  A    between atoms: N2_12  and  C10_13 
REMARK    3  A    between atoms: C10_13  and  C11_14 
ROOT
HETATM    1  C1  UNL     1      23.272  -0.086  53.564  1.00  0.00     0.117 A 
HETATM    2  N1  UNL     1      24.281  -0.868  53.742  1.00  0.00    -0.252 NA
HETATM    3  C2  UNL     1      25.371  -0.325  53.015  1.00  0.00     0.234 A 
HETATM    4  O1  UNL     1      26.108  -1.195  52.202  1.00  0.00    -0.307 OA
HETATM    5  C3  UNL     1      27.227  -0.892  52.968  1.00  0.00     0.084 A 
HETATM    6  C4  UNL     1      28.576  -1.174  53.095  1.00  0.00     0.037 A 
HETATM    7  C5  UNL     1      29.327  -0.571  54.101  1.00  0.00     0.003 A 
HETATM    8  C6  UNL     1      28.667   0.305  54.946  1.00  0.00     0.001 A 
HETATM    9  C7  UNL     1      27.309   0.588  54.818  1.00  0.00     0.015 A 
HETATM   10  C8  UNL     1      26.591  -0.027  53.809  1.00  0.00     0.039 A 
HETATM   11  C9  UNL     1      24.823   0.884  52.401  1.00  0.00     0.070 A 
HETATM   12  C16 UNL     1      23.550   1.061  52.712  1.00  0.00     0.049 A 
ENDROOT
BRANCH  11  13
HETATM   13  N2  UNL     1      25.564   1.783  51.557  1.00  0.00    -0.385 N 
HETATM   14  H6  UNL     1      26.557   1.697  51.193  1.00  0.00     0.159 HD
BRANCH  13  15
HETATM   15  C10 UNL     1      24.824   2.962  51.165  1.00  0.00     0.159 C 
BRANCH  15  16
HETATM   16  C11 UNL     1      25.591   3.880  50.302  1.00  0.00    -0.023 A 
HETATM   17  C12 UNL     1      26.719   3.584  49.548  1.00  0.00     0.012 A 
HETATM   18  C13 UNL     1      27.288   4.610  48.800  1.00  0.00     0.020 A 
HETATM   19  C14 UNL     1      26.751   5.889  48.803  1.00  0.00     0.116 A 
HETATM   20  N3  UNL     1      25.646   6.179  49.541  1.00  0.00    -0.273 NA
HETATM   21  C15 UNL     1      25.110   5.169  50.261  1.00  0.00     0.124 A 
ENDBRANCH  15  16
ENDBRANCH  13  15
ENDBRANCH  11  13
TORSDOF 3
ENDMDL
MODEL 4
REMARK VINA RESULT:      -7.1      1.754      3.733
REMARK  3 active torsions:
REMARK  status: ('A' for Active; 'I' for Inactive)
REMARK    1  A    between atoms: C9_11  and  N2_12 
REMARK    2  A    between atoms: N2_12  and  C10_13 
REMARK    3  A    between atoms: C10_13  and  C11_14 
ROOT
HETATM    1  C1  UNL     1      25.905   3.240  49.898  1.00  0.00     0.117 A 
HETATM    2  N1  UNL     1      26.937   2.705  50.456  1.00  0.00    -0.252 NA
HETATM    3  C2  UNL     1      26.551   2.293  51.756  1.00  0.00     0.234 A 
HETATM    4  O1  UNL     1      27.392   2.635  52.823  1.00  0.00    -0.307 OA
HETATM    5  C3  UNL     1      27.549   1.277  53.076  1.00  0.00     0.084 A 
HETATM    6  C4  UNL     1      28.185   0.388  53.925  1.00  0.00     0.037 A 
HETATM    7  C5  UNL     1      28.015  -0.984  53.759  1.00  0.00     0.003 A 
HETATM    8  C6  UNL     1      27.194  -1.400  52.724  1.00  0.00     0.001 A 
HETATM    9  C7  UNL     1      26.555  -0.504  51.869  1.00  0.00     0.015 A 
HETATM   10  C8  UNL     1      26.744   0.852  52.060  1.00  0.00     0.039 A 
HETATM   11  C9  UNL     1      25.142   2.676  51.848  1.00  0.00     0.070 A 
HETATM   12  C16 UNL     1      24.716   3.254  50.737  1.00  0.00     0.049 A 
ENDROOT
BRANCH  11  13
HETATM   13  N2  UNL     1      24.307   2.458  52.998  1.00  0.00    -0.385 N 
HETATM   14  H6  UNL     1      24.556   2.510  54.029  1.00  0.00     0.159 HD
BRANCH  13  15
HETATM   15  C10 UNL     1      22.938   2.123  52.673  1.00  0.00     0.159 C 
BRANCH  15  16
HETATM   16  C11 UNL     1      22.478   0.864  53.287  1.00  0.00    -0.023 A 
HETATM   17  C12 UNL     1      23.260  -0.194  53.730  1.00  0.00     0.012 A 
HETATM   18  C13 UNL     1      22.612  -1.296  54.282  1.00  0.00     0.020 A 
HETATM   19  C14 UNL     1      21.230  -1.341  54.389  1.00  0.00     0.116 A 
HETATM   20  N3  UNL     1      20.463  -0.305  53.955  1.00  0.00    -0.273 NA
HETATM   21  C15 UNL     1      21.112   0.754  53.422  1.00  0.00     0.124 A 
ENDBRANCH  15  16
ENDBRANCH  13  15
ENDBRANCH  11  13
TORSDOF 3
ENDMDL
MODEL 5
REMARK VINA RESULT:      -7.0      1.918      4.324
REMARK  3 active torsions:
REMARK  status: ('A' for Active; 'I' for Inactive)
REMARK    1  A    between atoms: C9_11  and  N2_12 
REMARK    2  A    between atoms: N2_12  and  C10_13 
REMARK    3  A    between atoms: C10_13  and  C11_14 
ROOT
HETATM    1  C1  UNL     1      27.534  -1.408  52.769  1.00  0.00     0.117 A 
HETATM    2  N1  UNL     1      26.474  -1.947  53.266  1.00  0.00    -0.252 NA
HETATM    3  C2  UNL     1      25.802  -0.950  54.017  1.00  0.00     0.234 A 
HETATM    4  O1  UNL     1      25.371  -1.287  55.307  1.00  0.00    -0.307 OA
HETATM    5  C3  UNL     1      24.071  -1.021  54.893  1.00  0.00     0.084 A 
HETATM    6  C4  UNL     1      22.761  -1.011  55.339  1.00  0.00     0.037 A 
HETATM    7  C5  UNL     1      21.730  -0.642  54.479  1.00  0.00     0.003 A 
HETATM    8  C6  UNL     1      22.079  -0.293  53.185  1.00  0.00     0.001 A 
HETATM    9  C7  UNL     1      23.398  -0.305  52.736  1.00  0.00     0.015 A 
HETATM   10  C8  UNL     1      24.399  -0.676  53.614  1.00  0.00     0.039 A 
HETATM   11  C9  UNL     1      26.644   0.237  53.867  1.00  0.00     0.070 A 
HETATM   12  C16 UNL     1      27.705  -0.005  53.115  1.00  0.00     0.049 A 
ENDROOT
BRANCH  11  13
HETATM   13  N2  UNL     1      26.368   1.519  54.458  1.00  0.00    -0.385 N 
HETATM   14  H6  UNL     1      26.111   1.754  55.460  1.00  0.00     0.159 HD
BRANCH  13  15
HETATM   15  C10 UNL     1      26.461   2.624  53.530  1.00  0.00     0.159 C 
BRANCH  15  16
HETATM   16  C11 UNL     1      25.237   2.829  52.733  1.00  0.00    -0.023 A 
HETATM   17  C12 UNL     1      23.998   3.261  53.187  1.00  0.00     0.012 A 
HETATM   18  C13 UNL     1      22.972   3.386  52.255  1.00  0.00     0.020 A 
HETATM   19  C14 UNL     1      23.173   3.089  50.914  1.00  0.00     0.116 A 
HETATM   20  N3  UNL     1      24.387   2.666  50.470  1.00  0.00    -0.273 NA
HETATM   21  C15 UNL     1      25.369   2.551  51.392  1.00  0.00     0.124 A 
ENDBRANCH  15  16
ENDBRANCH  13  15
ENDBRANCH  11  13
TORSDOF 3
ENDMDL
MODEL 6
REMARK VINA RESULT:      -6.8      2.641      5.572
REMARK  3 active torsions:
REMARK  status: ('A' for Active; 'I' for Inactive)
REMARK    1  A    between atoms: C9_11  and  N2_12 
REMARK    2  A    between atoms: N2_12  and  C10_13 
REMARK    3  A    between atoms: C10_13  and  C11_14 
ROOT
HETATM    1  C1  UNL     1      18.579  -0.150  52.352  1.00  0.00     0.117 A 
HETATM    2  N1  UNL     1      18.923   1.012  51.911  1.00  0.00    -0.252 NA
HETATM    3  C2  UNL     1      20.157   1.349  52.524  1.00  0.00     0.234 A 
HETATM    4  O1  UNL     1      20.277   2.628  53.083  1.00  0.00    -0.307 OA
HETATM    5  C3  UNL     1      21.322   2.868  52.198  1.00  0.00     0.084 A 
HETATM    6  C4  UNL     1      22.237   3.835  51.822  1.00  0.00     0.037 A 
HETATM    7  C5  UNL     1      23.150   3.578  50.803  1.00  0.00     0.003 A 
HETATM    8  C6  UNL     1      23.094   2.332  50.201  1.00  0.00     0.001 A 
HETATM    9  C7  UNL     1      22.171   1.359  50.579  1.00  0.00     0.015 A 
HETATM   10  C8  UNL     1      21.278   1.645  51.595  1.00  0.00     0.039 A 
HETATM   11  C9  UNL     1      20.457   0.199  53.377  1.00  0.00     0.070 A 
HETATM   12  C16 UNL     1      19.519  -0.731  53.298  1.00  0.00     0.049 A 
ENDROOT
BRANCH  11  13
HETATM   13  N2  UNL     1      21.624   0.078  54.208  1.00  0.00    -0.385 N 
HETATM   14  H6  UNL     1      21.840   0.547  55.136  1.00  0.00     0.159 HD
BRANCH  13  15
HETATM   15  C10 UNL     1      22.630  -0.818  53.679  1.00  0.00     0.159 C 
BRANCH  15  16
HETATM   16  C11 UNL     1      24.007  -0.314  53.833  1.00  0.00    -0.023 A 
HETATM   17  C12 UNL     1      24.639   0.658  53.069  1.00  0.00     0.012 A 
HETATM   18  C13 UNL     1      25.954   0.984  53.390  1.00  0.00     0.020 A 
HETATM   19  C14 UNL     1      26.617   0.361  54.438  1.00  0.00     0.116 A 
HETATM   20  N3  UNL     1      25.997  -0.591  55.186  1.00  0.00    -0.273 NA
HETATM   21  C15 UNL     1      24.721  -0.892  54.857  1.00  0.00     0.124 A 
ENDBRANCH  15  16
ENDBRANCH  13  15
ENDBRANCH  11  13
TORSDOF 3
ENDMDL
MODEL 7
REMARK VINA RESULT:      -6.7      2.581      4.911
REMARK  3 active torsions:
REMARK  status: ('A' for Active; 'I' for Inactive)
REMARK    1  A    between atoms: C9_11  and  N2_12 
REMARK    2  A    between atoms: N2_12  and  C10_13 
REMARK    3  A    between atoms: C10_13  and  C11_14 
ROOT
HETATM    1  C1  UNL     1      23.424   5.542  51.181  1.00  0.00     0.117 A 
HETATM    2  N1  UNL     1      22.481   4.664  51.218  1.00  0.00    -0.252 NA
HETATM    3  C2  UNL     1      23.049   3.416  50.859  1.00  0.00     0.234 A 
HETATM    4  O1  UNL     1      22.373   2.644  49.905  1.00  0.00    -0.307 OA
HETATM    5  C3  UNL     1      22.247   1.648  50.867  1.00  0.00     0.084 A 
HETATM    6  C4  UNL     1      21.736   0.377  51.066  1.00  0.00     0.037 A 
HETATM    7  C5  UNL     1      21.872  -0.248  52.302  1.00  0.00     0.003 A 
HETATM    8  C6  UNL     1      22.532   0.454  53.297  1.00  0.00     0.001 A 
HETATM    9  C7  UNL     1      23.046   1.733  53.096  1.00  0.00     0.015 A 
HETATM   10  C8  UNL     1      22.894   2.327  51.857  1.00  0.00     0.039 A 
HETATM   11  C9  UNL     1      24.458   3.722  50.615  1.00  0.00     0.070 A 
HETATM   12  C16 UNL     1      24.722   5.005  50.801  1.00  0.00     0.049 A 
ENDROOT
BRANCH  11  13
HETATM   13  N2  UNL     1      25.450   2.759  50.220  1.00  0.00    -0.385 N 
HETATM   14  H6  UNL     1      25.447   2.092  49.394  1.00  0.00     0.159 HD
BRANCH  13  15
HETATM   15  C10 UNL     1      26.605   2.716  51.091  1.00  0.00     0.159 C 
BRANCH  15  16
HETATM   16  C11 UNL     1      26.520   1.673  52.130  1.00  0.00    -0.023 A 
HETATM   17  C12 UNL     1      26.301   0.315  51.945  1.00  0.00     0.012 A 
HETATM   18  C13 UNL     1      26.258  -0.496  53.076  1.00  0.00     0.020 A 
HETATM   19  C14 UNL     1      26.429   0.030  54.349  1.00  0.00     0.116 A 
HETATM   20  N3  UNL     1      26.644   1.360  54.529  1.00  0.00    -0.273 NA
HETATM   21  C15 UNL     1      26.681   2.130  53.418  1.00  0.00     0.124 A 
ENDBRANCH  15  16
ENDBRANCH  13  15
ENDBRANCH  11  13
TORSDOF 3
ENDMDL
MODEL 8
REMARK VINA RESULT:      -6.7      2.022      5.015
REMARK  3 active torsions:
REMARK  status: ('A' for Active; 'I' for Inactive)
REMARK    1  A    between atoms: C9_11  and  N2_12 
REMARK    2  A    between atoms: N2_12  and  C10_13 
REMARK    3  A    between atoms: C10_13  and  C11_14 
ROOT
HETATM    1  C1  UNL     1      21.625   0.216  53.565  1.00  0.00     0.117 A 
HETATM    2  N1  UNL     1      21.565   1.398  53.054  1.00  0.00    -0.252 NA
HETATM    3  C2  UNL     1      22.839   1.686  52.503  1.00  0.00     0.234 A 
HETATM    4  O1  UNL     1      23.412   2.929  52.805  1.00  0.00    -0.307 OA
HETATM    5  C3  UNL     1      23.408   3.211  51.443  1.00  0.00     0.084 A 
HETATM    6  C4  UNL     1      23.751   4.190  50.528  1.00  0.00     0.037 A 
HETATM    7  C5  UNL     1      23.534   3.986  49.168  1.00  0.00     0.003 A 
HETATM    8  C6  UNL     1      22.971   2.778  48.791  1.00  0.00     0.001 A 
HETATM    9  C7  UNL     1      22.625   1.793  49.713  1.00  0.00     0.015 A 
HETATM   10  C8  UNL     1      22.853   2.026  51.056  1.00  0.00     0.039 A 
HETATM   11  C9  UNL     1      23.627   0.486  52.779  1.00  0.00     0.070 A 
HETATM   12  C16 UNL     1      22.922  -0.429  53.423  1.00  0.00     0.049 A 
ENDROOT
BRANCH  11  13
HETATM   13  N2  UNL     1      25.004   0.305  52.403  1.00  0.00    -0.385 N 
HETATM   14  H6  UNL     1      25.568   0.806  51.656  1.00  0.00     0.159 HD
BRANCH  13  15
HETATM   15  C10 UNL     1      25.691  -0.711  53.169  1.00  0.00     0.159 C 
BRANCH  15  16
HETATM   16  C11 UNL     1      27.093  -0.369  53.477  1.00  0.00    -0.023 A 
HETATM   17  C12 UNL     1      28.229  -1.095  53.148  1.00  0.00     0.012 A 
HETATM   18  C13 UNL     1      29.463  -0.584  53.540  1.00  0.00     0.020 A 
HETATM   19  C14 UNL     1      29.561   0.611  54.237  1.00  0.00     0.116 A 
HETATM   20  N3  UNL     1      28.447   1.322  54.560  1.00  0.00    -0.273 NA
HETATM   21  C15 UNL     1      27.259   0.808  54.170  1.00  0.00     0.124 A 
ENDBRANCH  15  16
ENDBRANCH  13  15
ENDBRANCH  11  13
TORSDOF 3
ENDMDL
MODEL 9
REMARK VINA RESULT:      -6.6      2.502      5.590
REMARK  3 active torsions:
REMARK  status: ('A' for Active; 'I' for Inactive)
REMARK    1  A    between atoms: C9_11  and  N2_12 
REMARK    2  A    between atoms: N2_12  and  C10_13 
REMARK    3  A    between atoms: C10_13  and  C11_14 
ROOT
HETATM    1  C1  UNL     1      20.433   3.682  51.198  1.00  0.00     0.117 A 
HETATM    2  N1  UNL     1      20.427   2.393  51.204  1.00  0.00    -0.252 NA
HETATM    3  C2  UNL     1      21.622   1.966  51.836  1.00  0.00     0.234 A 
HETATM    4  O1  UNL     1      22.371   0.966  51.201  1.00  0.00    -0.307 OA
HETATM    5  C3  UNL     1      22.185   0.175  52.329  1.00  0.00     0.084 A 
HETATM    6  C4  UNL     1      22.488  -1.069  52.855  1.00  0.00     0.037 A 
HETATM    7  C5  UNL     1      22.038  -1.422  54.124  1.00  0.00     0.003 A 
HETATM    8  C6  UNL     1      21.291  -0.482  54.815  1.00  0.00     0.001 A 
HETATM    9  C7  UNL     1      20.986   0.769  54.285  1.00  0.00     0.015 A 
HETATM   10  C8  UNL     1      21.447   1.089  53.022  1.00  0.00     0.039 A 
HETATM   11  C9  UNL     1      22.305   3.212  52.186  1.00  0.00     0.070 A 
HETATM   12  C16 UNL     1      21.611   4.275  51.813  1.00  0.00     0.049 A 
ENDROOT
BRANCH  11  13
HETATM   13  N2  UNL     1      23.576   3.290  52.854  1.00  0.00    -0.385 N 
HETATM   14  H6  UNL     1      23.792   3.567  53.856  1.00  0.00     0.159 HD
BRANCH  13  15
HETATM   15  C10 UNL     1      24.700   2.935  52.017  1.00  0.00     0.159 C 
BRANCH  15  16
HETATM   16  C11 UNL     1      25.547   1.871  52.588  1.00  0.00    -0.023 A 
HETATM   17  C12 UNL     1      25.916   0.674  51.989  1.00  0.00     0.012 A 
HETATM   18  C13 UNL     1      26.728  -0.193  52.714  1.00  0.00     0.020 A 
HETATM   19  C14 UNL     1      27.158   0.122  53.995  1.00  0.00     0.116 A 
HETATM   20  N3  UNL     1      26.796   1.295  54.582  1.00  0.00    -0.273 NA
HETATM   21  C15 UNL     1      26.007   2.121  53.861  1.00  0.00     0.124 A 
ENDBRANCH  15  16
ENDBRANCH  13  15
ENDBRANCH  11  13
TORSDOF 3
ENDMDL
