MODEL 1
REMARK VINA RESULT:      -6.9      0.000      0.000
REMARK  6 active torsions:
REMARK  status: ('A' for Active; 'I' for Inactive)
REMARK    1  A    between atoms: N1_2  and  C3_4 
REMARK    2  A    between atoms: C4_5  and  C5_6 
REMARK       I    between atoms: C5_6  and  N2_8 
REMARK    3  A    between atoms: C12_18  and  N5_19 
REMARK    4  A    between atoms: N5_19  and  C13_20 
REMARK    5  A    between atoms: C13_20  and  C14_21 
REMARK    6  A    between atoms: C14_21  and  O2_22 
ROOT
HETATM    1  C5  UNL     1      19.400  -0.477  53.081  1.00  0.00     0.244 C 
HETATM    2  O1  UNL     1      19.699  -1.571  53.623  1.00  0.00    -0.268 OA
HETATM    3  N2  UNL     1      20.365   0.412  53.585  1.00  0.00    -0.344 N 
HETATM    4  C6  UNL     1      21.375  -0.018  54.494  1.00  0.00     0.131 C 
HETATM    5  C7  UNL     1      22.736  -0.127  53.917  1.00  0.00     0.060 C 
HETATM    6  C8  UNL     1      23.014   1.015  53.012  1.00  0.00    -0.025 A 
HETATM    7  C9  UNL     1      21.976   1.901  52.825  1.00  0.00     0.010 A 
HETATM    8  S1  UNL     1      22.604   3.143  51.752  1.00  0.00    -0.072 SA
HETATM    9  C10 UNL     1      24.246   2.420  51.594  1.00  0.00     0.114 A 
HETATM   10  N3  UNL     1      25.264   2.904  50.870  1.00  0.00    -0.234 NA
HETATM   11  C11 UNL     1      26.423   2.231  50.860  1.00  0.00     0.236 A 
HETATM   12  N4  UNL     1      26.399   1.148  51.589  1.00  0.00    -0.224 NA
HETATM   13  C12 UNL     1      25.398   0.646  52.319  1.00  0.00     0.138 A 
HETATM   14  C15 UNL     1      24.188   1.303  52.360  1.00  0.00     0.053 A 
HETATM   15  C16 UNL     1      20.614   1.831  53.380  1.00  0.00     0.172 C 
ENDROOT
BRANCH   1  16
HETATM   16  C4  UNL     1      18.294  -0.278  52.160  1.00  0.00     0.091 C 
HETATM   17  C3  UNL     1      18.183   0.007  50.874  1.00  0.00     0.090 C 
BRANCH  17  18
HETATM   18  N1  UNL     1      16.975   0.165  50.141  1.00  0.00    -0.398 N 
HETATM   19  C1  UNL     1      16.283  -0.778  49.272  1.00  0.00     0.148 C 
HETATM   20  C2  UNL     1      16.403   1.482  50.331  1.00  0.00     0.148 C 
ENDBRANCH  17  18
ENDBRANCH   1  16
BRANCH  13  21
HETATM   21  N5  UNL     1      25.708  -0.562  52.990  1.00  0.00    -0.372 N 
HETATM   22  H14 UNL     1      25.111  -1.243  53.498  1.00  0.00     0.161 HD
BRANCH  21  23
HETATM   23  C13 UNL     1      27.033  -1.135  53.093  1.00  0.00     0.147 C 
BRANCH  23  24
HETATM   24  C14 UNL     1      27.198  -2.460  52.425  1.00  0.00     0.183 C 
BRANCH  24  25
HETATM   25  O2  UNL     1      28.237  -3.236  52.902  1.00  0.00    -0.399 OA
HETATM   26  H19 UNL     1      27.952  -3.724  53.731  1.00  0.00     0.209 HD
ENDBRANCH  24  25
ENDBRANCH  23  24
ENDBRANCH  21  23
ENDBRANCH  13  21
TORSDOF 6
ENDMDL
MODEL 2
REMARK VINA RESULT:      -6.7      4.176      5.489
REMARK  6 active torsions:
REMARK  status: ('A' for Active; 'I' for Inactive)
REMARK    1  A    between atoms: N1_2  and  C3_4 
REMARK    2  A    between atoms: C4_5  and  C5_6 
REMARK       I    between atoms: C5_6  and  N2_8 
REMARK    3  A    between atoms: C12_18  and  N5_19 
REMARK    4  A    between atoms: N5_19  and  C13_20 
REMARK    5  A    between atoms: C13_20  and  C14_21 
REMARK    6  A    between atoms: C14_21  and  O2_22 
ROOT
HETATM    1  C5  UNL     1      24.098   4.920  50.422  1.00  0.00     0.244 C 
HETATM    2  O1  UNL     1      25.255   5.404  50.494  1.00  0.00    -0.268 OA
HETATM    3  N2  UNL     1      24.327   3.536  50.333  1.00  0.00    -0.344 N 
HETATM    4  C6  UNL     1      25.645   2.995  50.339  1.00  0.00     0.131 C 
HETATM    5  C7  UNL     1      26.039   2.310  51.594  1.00  0.00     0.060 C 
HETATM    6  C8  UNL     1      24.917   1.492  52.117  1.00  0.00    -0.025 A 
HETATM    7  C9  UNL     1      23.737   1.565  51.410  1.00  0.00     0.010 A 
HETATM    8  S1  UNL     1      22.626   0.483  52.235  1.00  0.00    -0.072 SA
HETATM    9  C10 UNL     1      23.794  -0.029  53.507  1.00  0.00     0.114 A 
HETATM   10  N3  UNL     1      23.559  -0.889  54.506  1.00  0.00    -0.234 NA
HETATM   11  C11 UNL     1      24.546  -1.153  55.372  1.00  0.00     0.236 A 
HETATM   12  N4  UNL     1      25.651  -0.507  55.111  1.00  0.00    -0.224 NA
HETATM   13  C12 UNL     1      25.909   0.354  54.123  1.00  0.00     0.138 A 
HETATM   14  C15 UNL     1      24.925   0.657  53.207  1.00  0.00     0.053 A 
HETATM   15  C16 UNL     1      23.442   2.386  50.223  1.00  0.00     0.172 C 
ENDROOT
BRANCH   1  16
HETATM   16  C4  UNL     1      22.868   5.695  50.437  1.00  0.00     0.091 C 
HETATM   17  C3  UNL     1      21.934   5.989  49.550  1.00  0.00     0.090 C 
BRANCH  17  18
HETATM   18  N1  UNL     1      20.777   6.787  49.769  1.00  0.00    -0.398 N 
HETATM   19  C1  UNL     1      20.670   8.203  50.091  1.00  0.00     0.148 C 
HETATM   20  C2  UNL     1      19.560   6.011  49.636  1.00  0.00     0.148 C 
ENDBRANCH  17  18
ENDBRANCH   1  16
BRANCH  13  21
HETATM   21  N5  UNL     1      27.222   0.886  54.135  1.00  0.00    -0.372 N 
HETATM   22  H14 UNL     1      27.610   1.774  53.762  1.00  0.00     0.161 HD
BRANCH  21  23
HETATM   23  C13 UNL     1      28.370   0.242  54.734  1.00  0.00     0.147 C 
BRANCH  23  24
HETATM   24  C14 UNL     1      29.276  -0.449  53.769  1.00  0.00     0.183 C 
BRANCH  24  25
HETATM   25  O2  UNL     1      30.384   0.279  53.376  1.00  0.00    -0.399 OA
HETATM   26  H19 UNL     1      30.848   0.663  54.178  1.00  0.00     0.209 HD
ENDBRANCH  24  25
ENDBRANCH  23  24
ENDBRANCH  21  23
ENDBRANCH  13  21
TORSDOF 6
ENDMDL
MODEL 3
REMARK VINA RESULT:      -6.5      3.007      4.352
REMARK  6 active torsions:
REMARK  status: ('A' for Active; 'I' for Inactive)
REMARK    1  A    between atoms: N1_2  and  C3_4 
REMARK    2  A    between atoms: C4_5  and  C5_6 
REMARK       I    between atoms: C5_6  and  N2_8 
REMARK    3  A    between atoms: C12_18  and  N5_19 
REMARK    4  A    between atoms: N5_19  and  C13_20 
REMARK    5  A    between atoms: C13_20  and  C14_21 
REMARK    6  A    between atoms: C14_21  and  O2_22 
ROOT
HETATM    1  C5  UNL     1      19.079   2.873  50.540  1.00  0.00     0.244 C 
HETATM    2  O1  UNL     1      19.959   3.492  49.891  1.00  0.00    -0.268 OA
HETATM    3  N2  UNL     1      19.580   1.561  50.600  1.00  0.00    -0.344 N 
HETATM    4  C6  UNL     1      20.823   1.208  50.001  1.00  0.00     0.131 C 
HETATM    5  C7  UNL     1      21.936   0.970  50.952  1.00  0.00     0.060 C 
HETATM    6  C8  UNL     1      21.459   0.211  52.134  1.00  0.00    -0.025 A 
HETATM    7  C9  UNL     1      20.111  -0.067  52.168  1.00  0.00     0.010 A 
HETATM    8  S1  UNL     1      19.856  -0.987  53.643  1.00  0.00    -0.072 SA
HETATM    9  C10 UNL     1      21.581  -0.963  54.162  1.00  0.00     0.114 A 
HETATM   10  N3  UNL     1      22.087  -1.517  55.271  1.00  0.00    -0.234 NA
HETATM   11  C11 UNL     1      23.401  -1.397  55.506  1.00  0.00     0.236 A 
HETATM   12  N4  UNL     1      24.034  -0.728  54.581  1.00  0.00    -0.224 NA
HETATM   13  C12 UNL     1      23.552  -0.166  53.469  1.00  0.00     0.138 A 
HETATM   14  C15 UNL     1      22.208  -0.264  53.184  1.00  0.00     0.053 A 
HETATM   15  C16 UNL     1      19.079   0.332  51.195  1.00  0.00     0.172 C 
ENDROOT
BRANCH   1  16
HETATM   16  C4  UNL     1      17.861   3.465  51.066  1.00  0.00     0.091 C 
HETATM   17  C3  UNL     1      16.594   3.097  51.136  1.00  0.00     0.090 C 
BRANCH  17  18
HETATM   18  N1  UNL     1      15.524   3.842  51.705  1.00  0.00    -0.398 N 
HETATM   19  C1  UNL     1      15.264   4.185  53.097  1.00  0.00     0.148 C 
HETATM   20  C2  UNL     1      14.591   4.295  50.693  1.00  0.00     0.148 C 
ENDBRANCH  17  18
ENDBRANCH   1  16
BRANCH  13  21
HETATM   21  N5  UNL     1      24.520   0.500  52.678  1.00  0.00    -0.372 N 
HETATM   22  H14 UNL     1      24.942   0.265  51.760  1.00  0.00     0.161 HD
BRANCH  21  23
HETATM   23  C13 UNL     1      25.153   1.753  53.028  1.00  0.00     0.147 C 
BRANCH  23  24
HETATM   24  C14 UNL     1      26.522   1.625  53.608  1.00  0.00     0.183 C 
BRANCH  24  25
HETATM   25  O2  UNL     1      26.574   1.109  54.890  1.00  0.00    -0.399 OA
HETATM   26  H19 UNL     1      26.382   1.830  55.561  1.00  0.00     0.209 HD
ENDBRANCH  24  25
ENDBRANCH  23  24
ENDBRANCH  21  23
ENDBRANCH  13  21
TORSDOF 6
ENDMDL
MODEL 4
REMARK VINA RESULT:      -6.4      6.422     10.578
REMARK  6 active torsions:
REMARK  status: ('A' for Active; 'I' for Inactive)
REMARK    1  A    between atoms: N1_2  and  C3_4 
REMARK    2  A    between atoms: C4_5  and  C5_6 
REMARK       I    between atoms: C5_6  and  N2_8 
REMARK    3  A    between atoms: C12_18  and  N5_19 
REMARK    4  A    between atoms: N5_19  and  C13_20 
REMARK    5  A    between atoms: C13_20  and  C14_21 
REMARK    6  A    between atoms: C14_21  and  O2_22 
ROOT
HETATM    1  C5  UNL     1      29.754   8.176  48.706  1.00  0.00     0.244 C 
HETATM    2  O1  UNL     1      30.648   7.368  49.063  1.00  0.00    -0.268 OA
HETATM    3  N2  UNL     1      28.826   7.360  48.036  1.00  0.00    -0.344 N 
HETATM    4  C6  UNL     1      29.028   5.956  47.897  1.00  0.00     0.131 C 
HETATM    5  C7  UNL     1      28.162   5.108  48.749  1.00  0.00     0.060 C 
HETATM    6  C8  UNL     1      26.778   5.641  48.781  1.00  0.00    -0.025 A 
HETATM    7  C9  UNL     1      26.569   6.818  48.097  1.00  0.00     0.010 A 
HETATM    8  S1  UNL     1      24.859   7.176  48.285  1.00  0.00    -0.072 SA
HETATM    9  C10 UNL     1      24.487   5.723  49.282  1.00  0.00     0.114 A 
HETATM   10  N3  UNL     1      23.292   5.386  49.785  1.00  0.00    -0.234 NA
HETATM   11  C11 UNL     1      23.194   4.266  50.514  1.00  0.00     0.236 A 
HETATM   12  N4  UNL     1      24.327   3.630  50.640  1.00  0.00    -0.224 NA
HETATM   13  C12 UNL     1      25.530   3.946  50.150  1.00  0.00     0.138 A 
HETATM   14  C15 UNL     1      25.679   5.087  49.393  1.00  0.00     0.053 A 
HETATM   15  C16 UNL     1      27.560   7.631  47.372  1.00  0.00     0.172 C 
ENDROOT
BRANCH   1  16
HETATM   16  C4  UNL     1      29.766   9.604  48.972  1.00  0.00     0.091 C 
HETATM   17  C3  UNL     1      29.198  10.665  48.427  1.00  0.00     0.090 C 
BRANCH  17  18
HETATM   18  N1  UNL     1      29.342  12.016  48.848  1.00  0.00    -0.398 N 
HETATM   19  C1  UNL     1      28.337  13.061  48.986  1.00  0.00     0.148 C 
HETATM   20  C2  UNL     1      30.720  12.331  49.170  1.00  0.00     0.148 C 
ENDBRANCH  17  18
ENDBRANCH   1  16
BRANCH  13  21
HETATM   21  N5  UNL     1      26.560   3.033  50.486  1.00  0.00    -0.372 N 
HETATM   22  H14 UNL     1      27.556   2.980  50.197  1.00  0.00     0.161 HD
BRANCH  21  23
HETATM   23  C13 UNL     1      26.409   1.910  51.385  1.00  0.00     0.147 C 
BRANCH  23  24
HETATM   24  C14 UNL     1      27.485   1.779  52.412  1.00  0.00     0.183 C 
BRANCH  24  25
HETATM   25  O2  UNL     1      28.213   2.929  52.654  1.00  0.00    -0.399 OA
HETATM   26  H19 UNL     1      27.732   3.511  53.314  1.00  0.00     0.209 HD
ENDBRANCH  24  25
ENDBRANCH  23  24
ENDBRANCH  21  23
ENDBRANCH  13  21
TORSDOF 6
ENDMDL
MODEL 5
REMARK VINA RESULT:      -6.3     22.635     26.088
REMARK  6 active torsions:
REMARK  status: ('A' for Active; 'I' for Inactive)
REMARK    1  A    between atoms: N1_2  and  C3_4 
REMARK    2  A    between atoms: C4_5  and  C5_6 
REMARK       I    between atoms: C5_6  and  N2_8 
REMARK    3  A    between atoms: C12_18  and  N5_19 
REMARK    4  A    between atoms: N5_19  and  C13_20 
REMARK    5  A    between atoms: C13_20  and  C14_21 
REMARK    6  A    between atoms: C14_21  and  O2_22 
ROOT
HETATM    1  C5  UNL     1      42.139   0.338  68.188  1.00  0.00     0.244 C 
HETATM    2  O1  UNL     1      43.046  -0.182  67.492  1.00  0.00    -0.268 OA
HETATM    3  N2  UNL     1      42.830   1.265  68.988  1.00  0.00    -0.344 N 
HETATM    4  C6  UNL     1      44.241   1.433  68.886  1.00  0.00     0.131 C 
HETATM    5  C7  UNL     1      44.679   2.682  68.217  1.00  0.00     0.060 C 
HETATM    6  C8  UNL     1      43.842   3.828  68.649  1.00  0.00    -0.025 A 
HETATM    7  C9  UNL     1      42.807   3.528  69.507  1.00  0.00     0.010 A 
HETATM    8  S1  UNL     1      42.029   5.062  69.863  1.00  0.00    -0.072 SA
HETATM    9  C10 UNL     1      43.130   6.055  68.839  1.00  0.00     0.114 A 
HETATM   10  N3  UNL     1      43.073   7.381  68.661  1.00  0.00    -0.234 NA
HETATM   11  C11 UNL     1      43.973   7.961  67.855  1.00  0.00     0.236 A 
HETATM   12  N4  UNL     1      44.818   7.116  67.331  1.00  0.00    -0.224 NA
HETATM   13  C12 UNL     1      44.895   5.791  67.493  1.00  0.00     0.138 A 
HETATM   14  C15 UNL     1      43.992   5.151  68.313  1.00  0.00     0.053 A 
HETATM   15  C16 UNL     1      42.406   2.204  70.014  1.00  0.00     0.172 C 
ENDROOT
BRANCH   1  16
HETATM   16  C4  UNL     1      40.729  -0.006  68.111  1.00  0.00     0.091 C 
HETATM   17  C3  UNL     1      39.935  -0.509  67.182  1.00  0.00     0.090 C 
BRANCH  17  18
HETATM   18  N1  UNL     1      38.544  -0.777  67.308  1.00  0.00    -0.398 N 
HETATM   19  C1  UNL     1      37.529  -0.083  68.089  1.00  0.00     0.148 C 
HETATM   20  C2  UNL     1      38.147  -1.922  66.515  1.00  0.00     0.148 C 
ENDBRANCH  17  18
ENDBRANCH   1  16
BRANCH  13  21
HETATM   21  N5  UNL     1      45.939   5.169  66.765  1.00  0.00    -0.372 N 
HETATM   22  H14 UNL     1      46.766   4.624  67.074  1.00  0.00     0.161 HD
BRANCH  21  23
HETATM   23  C13 UNL     1      46.053   5.166  65.322  1.00  0.00     0.147 C 
BRANCH  23  24
HETATM   24  C14 UNL     1      44.755   5.078  64.590  1.00  0.00     0.183 C 
BRANCH  24  25
HETATM   25  O2  UNL     1      44.119   3.853  64.661  1.00  0.00    -0.399 OA
HETATM   26  H19 UNL     1      43.395   3.798  63.969  1.00  0.00     0.209 HD
ENDBRANCH  24  25
ENDBRANCH  23  24
ENDBRANCH  21  23
ENDBRANCH  13  21
TORSDOF 6
ENDMDL
MODEL 6
REMARK VINA RESULT:      -6.3      5.463      8.787
REMARK  6 active torsions:
REMARK  status: ('A' for Active; 'I' for Inactive)
REMARK    1  A    between atoms: N1_2  and  C3_4 
REMARK    2  A    between atoms: C4_5  and  C5_6 
REMARK       I    between atoms: C5_6  and  N2_8 
REMARK    3  A    between atoms: C12_18  and  N5_19 
REMARK    4  A    between atoms: N5_19  and  C13_20 
REMARK    5  A    between atoms: C13_20  and  C14_21 
REMARK    6  A    between atoms: C14_21  and  O2_22 
ROOT
HETATM    1  C5  UNL     1      25.271   2.642  51.559  1.00  0.00     0.244 C 
HETATM    2  O1  UNL     1      24.032   2.782  51.717  1.00  0.00    -0.268 OA
HETATM    3  N2  UNL     1      25.475   3.016  50.220  1.00  0.00    -0.344 N 
HETATM    4  C6  UNL     1      24.395   3.432  49.388  1.00  0.00     0.131 C 
HETATM    5  C7  UNL     1      24.349   4.884  49.095  1.00  0.00     0.060 C 
HETATM    6  C8  UNL     1      25.712   5.407  48.830  1.00  0.00    -0.025 A 
HETATM    7  C9  UNL     1      26.742   4.502  48.964  1.00  0.00     0.010 A 
HETATM    8  S1  UNL     1      28.204   5.387  48.560  1.00  0.00    -0.072 SA
HETATM    9  C10 UNL     1      27.373   6.950  48.226  1.00  0.00     0.114 A 
HETATM   10  N3  UNL     1      27.954   8.098  47.853  1.00  0.00    -0.234 NA
HETATM   11  C11 UNL     1      27.181   9.173  47.651  1.00  0.00     0.236 A 
HETATM   12  N4  UNL     1      25.912   8.944  47.855  1.00  0.00    -0.224 NA
HETATM   13  C12 UNL     1      25.310   7.811  48.228  1.00  0.00     0.138 A 
HETATM   14  C15 UNL     1      26.063   6.679  48.446  1.00  0.00     0.053 A 
HETATM   15  C16 UNL     1      26.657   3.090  49.377  1.00  0.00     0.172 C 
ENDROOT
BRANCH   1  16
HETATM   16  C4  UNL     1      26.196   2.192  52.586  1.00  0.00     0.091 C 
HETATM   17  C3  UNL     1      26.923   1.106  52.784  1.00  0.00     0.090 C 
BRANCH  17  18
HETATM   18  N1  UNL     1      27.787   0.852  53.884  1.00  0.00    -0.398 N 
HETATM   19  C1  UNL     1      29.205   1.146  54.042  1.00  0.00     0.148 C 
HETATM   20  C2  UNL     1      27.087   0.201  54.973  1.00  0.00     0.148 C 
ENDBRANCH  17  18
ENDBRANCH   1  16
BRANCH  13  21
HETATM   21  N5  UNL     1      23.904   7.910  48.368  1.00  0.00    -0.372 N 
HETATM   22  H14 UNL     1      23.125   7.524  47.801  1.00  0.00     0.161 HD
BRANCH  21  23
HETATM   23  C13 UNL     1      23.226   8.620  49.431  1.00  0.00     0.147 C 
BRANCH  23  24
HETATM   24  C14 UNL     1      22.966   7.812  50.659  1.00  0.00     0.183 C 
BRANCH  24  25
HETATM   25  O2  UNL     1      24.002   7.778  51.574  1.00  0.00    -0.399 OA
HETATM   26  H19 UNL     1      23.650   7.563  52.488  1.00  0.00     0.209 HD
ENDBRANCH  24  25
ENDBRANCH  23  24
ENDBRANCH  21  23
ENDBRANCH  13  21
TORSDOF 6
ENDMDL
MODEL 7
REMARK VINA RESULT:      -6.2      3.165      4.860
REMARK  6 active torsions:
REMARK  status: ('A' for Active; 'I' for Inactive)
REMARK    1  A    between atoms: N1_2  and  C3_4 
REMARK    2  A    between atoms: C4_5  and  C5_6 
REMARK       I    between atoms: C5_6  and  N2_8 
REMARK    3  A    between atoms: C12_18  and  N5_19 
REMARK    4  A    between atoms: N5_19  and  C13_20 
REMARK    5  A    between atoms: C13_20  and  C14_21 
REMARK    6  A    between atoms: C14_21  and  O2_22 
ROOT
HETATM    1  C5  UNL     1      17.348   2.750  51.177  1.00  0.00     0.244 C 
HETATM    2  O1  UNL     1      18.054   3.550  50.513  1.00  0.00    -0.268 OA
HETATM    3  N2  UNL     1      18.007   1.519  51.012  1.00  0.00    -0.344 N 
HETATM    4  C6  UNL     1      19.194   1.405  50.232  1.00  0.00     0.131 C 
HETATM    5  C7  UNL     1      20.442   1.217  51.009  1.00  0.00     0.060 C 
HETATM    6  C8  UNL     1      20.220   0.275  52.134  1.00  0.00    -0.025 A 
HETATM    7  C9  UNL     1      18.931  -0.185  52.290  1.00  0.00     0.010 A 
HETATM    8  S1  UNL     1      18.986  -1.289  53.656  1.00  0.00    -0.072 SA
HETATM    9  C10 UNL     1      20.749  -1.089  53.969  1.00  0.00     0.114 A 
HETATM   10  N3  UNL     1      21.460  -1.688  54.932  1.00  0.00    -0.234 NA
HETATM   11  C11 UNL     1      22.769  -1.419  55.027  1.00  0.00     0.236 A 
HETATM   12  N4  UNL     1      23.190  -0.572  54.126  1.00  0.00    -0.224 NA
HETATM   13  C12 UNL     1      22.501   0.039  53.157  1.00  0.00     0.138 A 
HETATM   14  C15 UNL     1      21.152  -0.208  53.021  1.00  0.00     0.053 A 
HETATM   15  C16 UNL     1      17.740   0.175  51.501  1.00  0.00     0.172 C 
ENDROOT
BRANCH   1  16
HETATM   16  C4  UNL     1      16.147   3.110  51.912  1.00  0.00     0.091 C 
HETATM   17  C3  UNL     1      15.070   2.465  52.322  1.00  0.00     0.090 C 
BRANCH  17  18
HETATM   18  N1  UNL     1      13.976   3.014  53.047  1.00  0.00    -0.398 N 
HETATM   19  C1  UNL     1      13.798   4.354  53.591  1.00  0.00     0.148 C 
HETATM   20  C2  UNL     1      12.918   2.042  53.235  1.00  0.00     0.148 C 
ENDBRANCH  17  18
ENDBRANCH   1  16
BRANCH  13  21
HETATM   21  N5  UNL     1      23.269   0.913  52.350  1.00  0.00    -0.372 N 
HETATM   22  H14 UNL     1      23.585   0.842  51.364  1.00  0.00     0.161 HD
BRANCH  21  23
HETATM   23  C13 UNL     1      23.796   2.189  52.781  1.00  0.00     0.147 C 
BRANCH  23  24
HETATM   24  C14 UNL     1      25.265   2.205  53.046  1.00  0.00     0.183 C 
BRANCH  24  25
HETATM   25  O2  UNL     1      25.720   1.225  53.909  1.00  0.00    -0.399 OA
HETATM   26  H19 UNL     1      25.455   0.318  53.573  1.00  0.00     0.209 HD
ENDBRANCH  24  25
ENDBRANCH  23  24
ENDBRANCH  21  23
ENDBRANCH  13  21
TORSDOF 6
ENDMDL
MODEL 8
REMARK VINA RESULT:      -6.2      3.477      7.473
REMARK  6 active torsions:
REMARK  status: ('A' for Active; 'I' for Inactive)
REMARK    1  A    between atoms: N1_2  and  C3_4 
REMARK    2  A    between atoms: C4_5  and  C5_6 
REMARK       I    between atoms: C5_6  and  N2_8 
REMARK    3  A    between atoms: C12_18  and  N5_19 
REMARK    4  A    between atoms: N5_19  and  C13_20 
REMARK    5  A    between atoms: C13_20  and  C14_21 
REMARK    6  A    between atoms: C14_21  and  O2_22 
ROOT
HETATM    1  C5  UNL     1      23.314   5.779  49.330  1.00  0.00     0.244 C 
HETATM    2  O1  UNL     1      22.239   5.757  48.681  1.00  0.00    -0.268 OA
HETATM    3  N2  UNL     1      22.927   5.371  50.618  1.00  0.00    -0.344 N 
HETATM    4  C6  UNL     1      21.574   5.046  50.924  1.00  0.00     0.131 C 
HETATM    5  C7  UNL     1      21.298   3.601  51.101  1.00  0.00     0.060 C 
HETATM    6  C8  UNL     1      22.390   2.950  51.866  1.00  0.00    -0.025 A 
HETATM    7  C9  UNL     1      23.454   3.758  52.203  1.00  0.00     0.010 A 
HETATM    8  S1  UNL     1      24.552   2.735  53.117  1.00  0.00    -0.072 SA
HETATM    9  C10 UNL     1      23.536   1.252  53.011  1.00  0.00     0.114 A 
HETATM   10  N3  UNL     1      23.822   0.051  53.529  1.00  0.00    -0.234 NA
HETATM   11  C11 UNL     1      22.950  -0.951  53.349  1.00  0.00     0.236 A 
HETATM   12  N4  UNL     1      21.895  -0.602  52.663  1.00  0.00    -0.224 NA
HETATM   13  C12 UNL     1      21.588   0.587  52.136  1.00  0.00     0.138 A 
HETATM   14  C15 UNL     1      22.453   1.647  52.296  1.00  0.00     0.053 A 
HETATM   15  C16 UNL     1      23.657   5.176  51.861  1.00  0.00     0.172 C 
ENDROOT
BRANCH   1  16
HETATM   16  C4  UNL     1      24.608   6.155  48.786  1.00  0.00     0.091 C 
HETATM   17  C3  UNL     1      25.864   5.837  49.048  1.00  0.00     0.090 C 
BRANCH  17  18
HETATM   18  N1  UNL     1      27.021   6.329  48.383  1.00  0.00    -0.398 N 
HETATM   19  C1  UNL     1      27.232   7.595  47.694  1.00  0.00     0.148 C 
HETATM   20  C2  UNL     1      28.113   5.378  48.436  1.00  0.00     0.148 C 
ENDBRANCH  17  18
ENDBRANCH   1  16
BRANCH  13  21
HETATM   21  N5  UNL     1      20.356   0.620  51.438  1.00  0.00    -0.372 N 
HETATM   22  H14 UNL     1      20.135   0.550  50.426  1.00  0.00     0.161 HD
BRANCH  21  23
HETATM   23  C13 UNL     1      19.057   0.756  52.059  1.00  0.00     0.147 C 
BRANCH  23  24
HETATM   24  C14 UNL     1      18.455  -0.522  52.541  1.00  0.00     0.183 C 
BRANCH  24  25
HETATM   25  O2  UNL     1      18.914  -0.965  53.767  1.00  0.00    -0.399 OA
HETATM   26  H19 UNL     1      19.902  -1.130  53.728  1.00  0.00     0.209 HD
ENDBRANCH  24  25
ENDBRANCH  23  24
ENDBRANCH  21  23
ENDBRANCH  13  21
TORSDOF 6
ENDMDL
MODEL 9
REMARK VINA RESULT:      -6.1      4.480      6.366
REMARK  6 active torsions:
REMARK  status: ('A' for Active; 'I' for Inactive)
REMARK    1  A    between atoms: N1_2  and  C3_4 
REMARK    2  A    between atoms: C4_5  and  C5_6 
REMARK       I    between atoms: C5_6  and  N2_8 
REMARK    3  A    between atoms: C12_18  and  N5_19 
REMARK    4  A    between atoms: N5_19  and  C13_20 
REMARK    5  A    between atoms: C13_20  and  C14_21 
REMARK    6  A    between atoms: C14_21  and  O2_22 
ROOT
HETATM    1  C5  UNL     1      23.865   6.413  49.869  1.00  0.00     0.244 C 
HETATM    2  O1  UNL     1      24.978   6.757  50.341  1.00  0.00    -0.268 OA
HETATM    3  N2  UNL     1      24.059   5.066  49.522  1.00  0.00    -0.344 N 
HETATM    4  C6  UNL     1      25.307   4.412  49.734  1.00  0.00     0.131 C 
HETATM    5  C7  UNL     1      25.326   3.439  50.852  1.00  0.00     0.060 C 
HETATM    6  C8  UNL     1      24.077   2.640  50.871  1.00  0.00    -0.025 A 
HETATM    7  C9  UNL     1      23.132   2.976  49.926  1.00  0.00     0.010 A 
HETATM    8  S1  UNL     1      21.802   1.854  50.169  1.00  0.00    -0.072 SA
HETATM    9  C10 UNL     1      22.569   0.970  51.539  1.00  0.00     0.114 A 
HETATM   10  N3  UNL     1      22.044  -0.057  52.218  1.00  0.00    -0.234 NA
HETATM   11  C11 UNL     1      22.754  -0.596  53.219  1.00  0.00     0.236 A 
HETATM   12  N4  UNL     1      23.910  -0.018  53.403  1.00  0.00    -0.224 NA
HETATM   13  C12 UNL     1      24.454   1.007  52.740  1.00  0.00     0.138 A 
HETATM   14  C15 UNL     1      23.763   1.592  51.703  1.00  0.00     0.053 A 
HETATM   15  C16 UNL     1      23.195   4.057  48.928  1.00  0.00     0.172 C 
ENDROOT
BRANCH   1  16
HETATM   16  C4  UNL     1      22.705   7.281  49.754  1.00  0.00     0.091 C 
HETATM   17  C3  UNL     1      22.501   8.528  49.365  1.00  0.00     0.090 C 
BRANCH  17  18
HETATM   18  N1  UNL     1      21.255   9.212  49.326  1.00  0.00    -0.398 N 
HETATM   19  C1  UNL     1      19.975   8.852  49.922  1.00  0.00     0.148 C 
HETATM   20  C2  UNL     1      21.343  10.440  48.563  1.00  0.00     0.148 C 
ENDBRANCH  17  18
ENDBRANCH   1  16
BRANCH  13  21
HETATM   21  N5  UNL     1      25.735   1.395  53.206  1.00  0.00    -0.372 N 
HETATM   22  H14 UNL     1      26.090   2.298  53.575  1.00  0.00     0.161 HD
BRANCH  21  23
HETATM   23  C13 UNL     1      26.889   0.526  53.274  1.00  0.00     0.147 C 
BRANCH  23  24
HETATM   24  C14 UNL     1      27.297   0.131  54.655  1.00  0.00     0.183 C 
BRANCH  24  25
HETATM   25  O2  UNL     1      26.306  -0.459  55.418  1.00  0.00    -0.399 OA
HETATM   26  H19 UNL     1      26.450  -0.256  56.389  1.00  0.00     0.209 HD
ENDBRANCH  24  25
ENDBRANCH  23  24
ENDBRANCH  21  23
ENDBRANCH  13  21
TORSDOF 6
ENDMDL
