MODEL 1
REMARK VINA RESULT:      -9.5      0.000      0.000
REMARK  1 active torsions:
REMARK  status: ('A' for Active; 'I' for Inactive)
REMARK    1  A    between atoms: C2_2  and  C3_3 
ROOT
HETATM    1  C3  UNL     1      26.563  -1.250  53.530  1.00  0.00     0.011 C 
HETATM    2  C4  UNL     1      25.661  -0.405  52.986  1.00  0.00     0.080 C 
HETATM    3  C5  UNL     1      24.233  -0.394  53.418  1.00  0.00    -0.049 C 
HETATM    4  C6  UNL     1      23.130  -0.370  53.736  1.00  0.00    -0.097 C 
HETATM    5  C7  UNL     1      21.710  -0.365  54.142  1.00  0.00     0.139 C 
HETATM    6  C8  UNL     1      20.844   0.216  53.038  1.00  0.00     0.214 C 
HETATM    7  C9  UNL     1      21.750   0.812  52.446  1.00  0.00     0.030 A 
HETATM    8  C10 UNL     1      21.636   1.623  51.191  1.00  0.00     0.037 A 
HETATM    9  C11 UNL     1      23.014   1.936  51.276  1.00  0.00    -0.067 A 
HETATM   10  C12 UNL     1      24.340   2.603  50.779  1.00  0.00     0.088 A 
HETATM   11  C13 UNL     1      25.253   1.787  51.687  1.00  0.00     0.149 A 
HETATM   12  N1  UNL     1      25.416   2.627  52.603  1.00  0.00    -0.186 NA
HETATM   13  C14 UNL     1      24.136   3.076  53.195  1.00  0.00     0.094 A 
HETATM   14  N2  UNL     1      24.081   2.151  52.177  1.00  0.00     0.000 N 
HETATM   15  N3  UNL     1      25.911   0.524  51.932  1.00  0.00    -0.356 N 
HETATM   16  O1  UNL     1      20.520   0.930  51.873  1.00  0.00     0.000 OA
HETATM   17  C15 UNL     1      19.822   0.535  50.789  1.00  0.00     0.088 C 
HETATM   18  C16 UNL     1      18.311   0.896  50.910  1.00  0.00     0.162 C 
HETATM   19  O2  UNL     1      18.797   1.551  51.846  1.00  0.00    -0.296 OA
HETATM   20  C17 UNL     1      16.845   1.024  50.740  1.00  0.00     0.315 C 
HETATM   21  C18 UNL     1      16.296   2.186  51.532  1.00  0.00     0.211 C 
HETATM   22  O3  UNL     1      15.167   1.782  52.279  1.00  0.00    -0.387 OA
HETATM   23  C19 UNL     1      14.246   1.130  51.471  1.00  0.00     0.198 C 
HETATM   24  C20 UNL     1      14.842  -0.212  51.130  1.00  0.00     0.299 C 
HETATM   25  N4  UNL     1      16.247  -0.233  51.224  1.00  0.00     0.104 N 
HETATM   26  C21 UNL     1      16.791  -0.370  52.575  1.00  0.00     0.275 C 
HETATM   27  C22 UNL     1      17.685  -1.561  52.688  1.00  0.00     0.060 C 
HETATM   28  C23 UNL     1      18.712  -1.441  53.828  1.00  0.00     0.272 C 
HETATM   29  N5  UNL     1      19.688  -0.451  53.654  1.00  0.00     0.097 N 
HETATM   30  H13 UNL     1      26.565   0.534  51.168  1.00  0.00     0.162 HD
HETATM   31  H29 UNL     1      19.968  -0.992  52.770  1.00  0.00     0.317 HD
ENDROOT
BRANCH   1  32
HETATM   32  C2  UNL     1      27.853  -0.987  52.858  1.00  0.00     0.025 C 
HETATM   33  C1  UNL     1      28.900  -0.514  53.874  1.00  0.00     0.009 C 
ENDBRANCH   1  32
TORSDOF 1
ENDMDL
MODEL 2
REMARK VINA RESULT:      -9.2      6.389     10.436
REMARK  1 active torsions:
REMARK  status: ('A' for Active; 'I' for Inactive)
REMARK    1  A    between atoms: C2_2  and  C3_3 
ROOT
HETATM    1  C3  UNL     1      25.614   0.935  52.184  1.00  0.00     0.011 C 
HETATM    2  C4  UNL     1      25.160   2.147  51.800  1.00  0.00     0.080 C 
HETATM    3  C5  UNL     1      25.850   2.948  50.747  1.00  0.00    -0.049 C 
HETATM    4  C6  UNL     1      26.367   3.580  49.940  1.00  0.00    -0.097 C 
HETATM    5  C7  UNL     1      27.054   4.390  48.915  1.00  0.00     0.139 C 
HETATM    6  C8  UNL     1      26.713   5.861  49.082  1.00  0.00     0.214 C 
HETATM    7  C9  UNL     1      25.685   5.693  49.745  1.00  0.00     0.030 A 
HETATM    8  C10 UNL     1      24.786   6.749  50.311  1.00  0.00     0.037 A 
HETATM    9  C11 UNL     1      23.927   5.741  50.812  1.00  0.00    -0.067 A 
HETATM   10  C12 UNL     1      22.671   5.217  51.585  1.00  0.00     0.088 A 
HETATM   11  C13 UNL     1      23.163   3.778  51.687  1.00  0.00     0.149 A 
HETATM   12  N1  UNL     1      22.522   3.286  50.729  1.00  0.00    -0.186 NA
HETATM   13  C14 UNL     1      22.792   3.981  49.450  1.00  0.00     0.094 A 
HETATM   14  N2  UNL     1      23.442   4.435  50.575  1.00  0.00     0.000 N 
HETATM   15  N3  UNL     1      24.036   2.834  52.348  1.00  0.00    -0.356 N 
HETATM   16  O1  UNL     1      26.007   6.995  49.514  1.00  0.00     0.000 OA
HETATM   17  C15 UNL     1      26.456   8.097  50.149  1.00  0.00     0.088 C 
HETATM   18  C16 UNL     1      26.817   9.236  49.149  1.00  0.00     0.162 C 
HETATM   19  O2  UNL     1      26.203   8.447  48.413  1.00  0.00    -0.296 OA
HETATM   20  C17 UNL     1      27.308  10.467  48.488  1.00  0.00     0.315 C 
HETATM   21  C18 UNL     1      26.670  10.661  47.134  1.00  0.00     0.211 C 
HETATM   22  O3  UNL     1      27.656  10.944  46.162  1.00  0.00    -0.387 OA
HETATM   23  C19 UNL     1      28.480  11.980  46.580  1.00  0.00     0.198 C 
HETATM   24  C20 UNL     1      29.340  11.429  47.688  1.00  0.00     0.299 C 
HETATM   25  N4  UNL     1      28.767  10.315  48.332  1.00  0.00     0.104 N 
HETATM   26  C21 UNL     1      28.902   9.038  47.634  1.00  0.00     0.275 C 
HETATM   27  C22 UNL     1      29.585   8.017  48.485  1.00  0.00     0.060 C 
HETATM   28  C23 UNL     1      29.246   6.570  48.084  1.00  0.00     0.272 C 
HETATM   29  N5  UNL     1      27.917   6.184  48.304  1.00  0.00     0.097 N 
HETATM   30  H13 UNL     1      23.601   2.823  53.255  1.00  0.00     0.162 HD
HETATM   31  H29 UNL     1      28.108   6.396  49.338  1.00  0.00     0.317 HD
ENDROOT
BRANCH   1  32
HETATM   32  C2  UNL     1      24.697   0.451  53.238  1.00  0.00     0.025 C 
HETATM   33  C1  UNL     1      25.409  -0.560  54.145  1.00  0.00     0.009 C 
ENDBRANCH   1  32
TORSDOF 1
ENDMDL
MODEL 3
REMARK VINA RESULT:      -9.0      4.820      8.407
REMARK  1 active torsions:
REMARK  status: ('A' for Active; 'I' for Inactive)
REMARK    1  A    between atoms: C2_2  and  C3_3 
ROOT
HETATM    1  C3  UNL     1      21.619   0.313  53.468  1.00  0.00     0.011 C 
HETATM    2  C4  UNL     1      22.733   0.872  52.947  1.00  0.00     0.080 C 
HETATM    3  C5  UNL     1      22.838   2.342  52.713  1.00  0.00    -0.049 C 
HETATM    4  C6  UNL     1      22.939   3.470  52.525  1.00  0.00    -0.097 C 
HETATM    5  C7  UNL     1      23.047   4.921  52.270  1.00  0.00     0.139 C 
HETATM    6  C8  UNL     1      24.091   5.197  51.202  1.00  0.00     0.214 C 
HETATM    7  C9  UNL     1      24.688   4.121  51.306  1.00  0.00     0.030 A 
HETATM    8  C10 UNL     1      25.870   3.657  50.511  1.00  0.00     0.037 A 
HETATM    9  C11 UNL     1      25.906   2.464  51.272  1.00  0.00    -0.067 A 
HETATM   10  C12 UNL     1      26.470   1.056  51.658  1.00  0.00     0.088 A 
HETATM   11  C13 UNL     1      25.264   0.649  52.497  1.00  0.00     0.149 A 
HETATM   12  N1  UNL     1      25.720   0.914  53.633  1.00  0.00    -0.186 NA
HETATM   13  C14 UNL     1      26.157   2.324  53.755  1.00  0.00     0.094 A 
HETATM   14  N2  UNL     1      25.637   1.916  52.547  1.00  0.00     0.000 N 
HETATM   15  N3  UNL     1      23.899   0.173  52.515  1.00  0.00    -0.356 N 
HETATM   16  O1  UNL     1      25.188   4.961  50.358  1.00  0.00     0.000 OA
HETATM   17  C15 UNL     1      25.289   5.097  49.020  1.00  0.00     0.088 C 
HETATM   18  C16 UNL     1      25.836   6.501  48.620  1.00  0.00     0.162 C 
HETATM   19  O2  UNL     1      26.060   6.487  49.841  1.00  0.00    -0.296 OA
HETATM   20  C17 UNL     1      26.253   7.733  47.913  1.00  0.00     0.315 C 
HETATM   21  C18 UNL     1      27.167   8.578  48.766  1.00  0.00     0.211 C 
HETATM   22  O3  UNL     1      26.734   9.923  48.767  1.00  0.00    -0.387 OA
HETATM   23  C19 UNL     1      26.543  10.383  47.472  1.00  0.00     0.198 C 
HETATM   24  C20 UNL     1      25.307   9.699  46.947  1.00  0.00     0.299 C 
HETATM   25  N4  UNL     1      25.023   8.487  47.606  1.00  0.00     0.104 N 
HETATM   26  C21 UNL     1      24.366   8.609  48.907  1.00  0.00     0.275 C 
HETATM   27  C22 UNL     1      23.073   7.862  48.939  1.00  0.00     0.060 C 
HETATM   28  C23 UNL     1      22.644   7.458  50.362  1.00  0.00     0.272 C 
HETATM   29  N5  UNL     1      23.460   6.507  50.986  1.00  0.00     0.097 N 
HETATM   30  H13 UNL     1      24.049  -0.754  52.157  1.00  0.00     0.162 HD
HETATM   31  H29 UNL     1      23.198   5.860  50.171  1.00  0.00     0.317 HD
ENDROOT
BRANCH   1  32
HETATM   32  C2  UNL     1      21.870  -1.142  53.545  1.00  0.00     0.025 C 
HETATM   33  C1  UNL     1      22.104  -1.569  54.999  1.00  0.00     0.009 C 
ENDBRANCH   1  32
TORSDOF 1
ENDMDL
MODEL 4
REMARK VINA RESULT:      -8.8      7.870     12.250
REMARK  1 active torsions:
REMARK  status: ('A' for Active; 'I' for Inactive)
REMARK    1  A    between atoms: C2_2  and  C3_3 
ROOT
HETATM    1  C3  UNL     1      25.414   2.346  51.362  1.00  0.00     0.011 C 
HETATM    2  C4  UNL     1      25.379   3.625  50.927  1.00  0.00     0.080 C 
HETATM    3  C5  UNL     1      26.368   4.147  49.940  1.00  0.00    -0.049 C 
HETATM    4  C6  UNL     1      27.120   4.567  49.181  1.00  0.00    -0.097 C 
HETATM    5  C7  UNL     1      28.107   5.100  48.220  1.00  0.00     0.139 C 
HETATM    6  C8  UNL     1      28.208   6.611  48.344  1.00  0.00     0.214 C 
HETATM    7  C9  UNL     1      27.122   6.779  48.907  1.00  0.00     0.030 A 
HETATM    8  C10 UNL     1      26.534   8.075  49.378  1.00  0.00     0.037 A 
HETATM    9  C11 UNL     1      25.371   7.386  49.802  1.00  0.00    -0.067 A 
HETATM   10  C12 UNL     1      23.953   7.286  50.455  1.00  0.00     0.088 A 
HETATM   11  C13 UNL     1      23.980   5.770  50.613  1.00  0.00     0.149 A 
HETATM   12  N1  UNL     1      23.309   5.458  49.602  1.00  0.00    -0.186 NA
HETATM   13  C14 UNL     1      23.888   5.995  48.349  1.00  0.00     0.094 A 
HETATM   14  N2  UNL     1      24.541   6.276  49.529  1.00  0.00     0.000 N 
HETATM   15  N3  UNL     1      24.468   4.634  51.361  1.00  0.00    -0.356 N 
HETATM   16  O1  UNL     1      27.839   7.918  48.699  1.00  0.00     0.000 OA
HETATM   17  C15 UNL     1      28.539   8.858  49.367  1.00  0.00     0.088 C 
HETATM   18  C16 UNL     1      29.311   9.802  48.397  1.00  0.00     0.162 C 
HETATM   19  O2  UNL     1      28.557   9.206  47.612  1.00  0.00    -0.296 OA
HETATM   20  C17 UNL     1      30.205  10.807  47.778  1.00  0.00     0.315 C 
HETATM   21  C18 UNL     1      29.777  11.134  46.368  1.00  0.00     0.211 C 
HETATM   22  O3  UNL     1      30.885  11.078  45.493  1.00  0.00    -0.387 OA
HETATM   23  C19 UNL     1      31.941  11.836  45.980  1.00  0.00     0.198 C 
HETATM   24  C20 UNL     1      32.494  11.093  47.169  1.00  0.00     0.299 C 
HETATM   25  N4  UNL     1      31.559  10.224  47.763  1.00  0.00     0.104 N 
HETATM   26  C21 UNL     1      31.368   8.940  47.089  1.00  0.00     0.275 C 
HETATM   27  C22 UNL     1      31.635   7.793  48.009  1.00  0.00     0.060 C 
HETATM   28  C23 UNL     1      30.915   6.499  47.587  1.00  0.00     0.272 C 
HETATM   29  N5  UNL     1      29.518   6.533  47.682  1.00  0.00     0.097 N 
HETATM   30  H13 UNL     1      23.971   4.784  52.222  1.00  0.00     0.162 HD
HETATM   31  H29 UNL     1      29.671   6.715  48.729  1.00  0.00     0.317 HD
ENDROOT
BRANCH   1  32
HETATM   32  C2  UNL     1      24.304   2.194  52.326  1.00  0.00     0.025 C 
HETATM   33  C1  UNL     1      24.325   0.794  52.951  1.00  0.00     0.009 C 
ENDBRANCH   1  32
TORSDOF 1
ENDMDL
MODEL 5
REMARK VINA RESULT:      -8.8      2.920      8.270
REMARK  1 active torsions:
REMARK  status: ('A' for Active; 'I' for Inactive)
REMARK    1  A    between atoms: C2_2  and  C3_3 
ROOT
HETATM    1  C3  UNL     1      16.586   2.334  51.610  1.00  0.00     0.011 C 
HETATM    2  C4  UNL     1      17.851   2.768  51.422  1.00  0.00     0.080 C 
HETATM    3  C5  UNL     1      19.024   1.856  51.558  1.00  0.00    -0.049 C 
HETATM    4  C6  UNL     1      19.939   1.171  51.659  1.00  0.00    -0.097 C 
HETATM    5  C7  UNL     1      21.108   0.281  51.812  1.00  0.00     0.139 C 
HETATM    6  C8  UNL     1      22.357   1.092  52.115  1.00  0.00     0.214 C 
HETATM    7  C9  UNL     1      21.930   2.172  51.694  1.00  0.00     0.030 A 
HETATM    8  C10 UNL     1      22.641   3.491  51.692  1.00  0.00     0.037 A 
HETATM    9  C11 UNL     1      21.531   4.080  51.039  1.00  0.00    -0.067 A 
HETATM   10  C12 UNL     1      20.741   5.273  50.403  1.00  0.00     0.088 A 
HETATM   11  C13 UNL     1      19.398   4.552  50.381  1.00  0.00     0.149 A 
HETATM   12  N1  UNL     1      19.397   4.182  49.183  1.00  0.00    -0.186 NA
HETATM   13  C14 UNL     1      20.583   3.366  48.840  1.00  0.00     0.094 A 
HETATM   14  N2  UNL     1      20.477   3.830  50.132  1.00  0.00     0.000 N 
HETATM   15  N3  UNL     1      18.243   4.108  51.127  1.00  0.00    -0.356 N 
HETATM   16  O1  UNL     1      23.193   2.216  52.201  1.00  0.00     0.000 OA
HETATM   17  C15 UNL     1      23.887   2.693  53.254  1.00  0.00     0.088 C 
HETATM   18  C16 UNL     1      25.346   2.144  53.282  1.00  0.00     0.162 C 
HETATM   19  O2  UNL     1      24.979   1.811  52.144  1.00  0.00    -0.296 OA
HETATM   20  C17 UNL     1      26.733   1.765  53.637  1.00  0.00     0.315 C 
HETATM   21  C18 UNL     1      27.521   1.348  52.420  1.00  0.00     0.211 C 
HETATM   22  O3  UNL     1      28.190   0.127  52.662  1.00  0.00    -0.387 OA
HETATM   23  C19 UNL     1      28.915   0.185  53.843  1.00  0.00     0.198 C 
HETATM   24  C20 UNL     1      27.912   0.175  54.969  1.00  0.00     0.299 C 
HETATM   25  N4  UNL     1      26.639   0.635  54.579  1.00  0.00     0.104 N 
HETATM   26  C21 UNL     1      25.804  -0.331  53.868  1.00  0.00     0.275 C 
HETATM   27  C22 UNL     1      24.499  -0.545  54.562  1.00  0.00     0.060 C 
HETATM   28  C23 UNL     1      23.388  -1.048  53.622  1.00  0.00     0.272 C 
HETATM   29  N5  UNL     1      22.969  -0.133  52.647  1.00  0.00     0.097 N 
HETATM   30  H13 UNL     1      17.837   5.003  51.339  1.00  0.00     0.162 HD
HETATM   31  H29 UNL     1      22.695   0.500  53.469  1.00  0.00     0.317 HD
ENDROOT
BRANCH   1  32
HETATM   32  C2  UNL     1      15.701   3.500  51.405  1.00  0.00     0.025 C 
HETATM   33  C1  UNL     1      15.055   3.923  52.731  1.00  0.00     0.009 C 
ENDBRANCH   1  32
TORSDOF 1
ENDMDL
MODEL 6
REMARK VINA RESULT:      -8.2      4.869      7.049
REMARK  1 active torsions:
REMARK  status: ('A' for Active; 'I' for Inactive)
REMARK    1  A    between atoms: C2_2  and  C3_3 
ROOT
HETATM    1  C3  UNL     1      25.930   0.434  52.504  1.00  0.00     0.011 C 
HETATM    2  C4  UNL     1      24.746   1.055  52.316  1.00  0.00     0.080 C 
HETATM    3  C5  UNL     1      24.555   2.079  51.248  1.00  0.00    -0.049 C 
HETATM    4  C6  UNL     1      24.388   2.869  50.432  1.00  0.00    -0.097 C 
HETATM    5  C7  UNL     1      24.195   3.899  49.391  1.00  0.00     0.139 C 
HETATM    6  C8  UNL     1      23.032   4.807  49.752  1.00  0.00     0.214 C 
HETATM    7  C9  UNL     1      22.494   4.037  50.554  1.00  0.00     0.030 A 
HETATM    8  C10 UNL     1      21.253   4.282  51.357  1.00  0.00     0.037 A 
HETATM    9  C11 UNL     1      21.348   2.974  51.891  1.00  0.00    -0.067 A 
HETATM   10  C12 UNL     1      20.887   1.789  52.803  1.00  0.00     0.088 A 
HETATM   11  C13 UNL     1      22.192   1.010  52.685  1.00  0.00     0.149 A 
HETATM   12  N1  UNL     1      21.850   0.191  51.801  1.00  0.00    -0.186 NA
HETATM   13  C14 UNL     1      21.371   0.855  50.567  1.00  0.00     0.094 A 
HETATM   14  N2  UNL     1      21.775   1.657  51.611  1.00  0.00     0.000 N 
HETATM   15  N3  UNL     1      23.569   0.873  53.102  1.00  0.00    -0.356 N 
HETATM   16  O1  UNL     1      21.861   5.233  50.399  1.00  0.00     0.000 OA
HETATM   17  C15 UNL     1      21.612   6.384  51.057  1.00  0.00     0.088 C 
HETATM   18  C16 UNL     1      20.968   7.455  50.125  1.00  0.00     0.162 C 
HETATM   19  O2  UNL     1      20.877   6.433  49.426  1.00  0.00    -0.296 OA
HETATM   20  C17 UNL     1      20.428   8.691  49.515  1.00  0.00     0.315 C 
HETATM   21  C18 UNL     1      19.576   8.385  48.307  1.00  0.00     0.211 C 
HETATM   22  O3  UNL     1      19.951   9.206  47.221  1.00  0.00    -0.387 OA
HETATM   23  C19 UNL     1      19.983  10.542  47.597  1.00  0.00     0.198 C 
HETATM   24  C20 UNL     1      21.183  10.710  48.494  1.00  0.00     0.299 C 
HETATM   25  N4  UNL     1      21.585   9.510  49.111  1.00  0.00     0.104 N 
HETATM   26  C21 UNL     1      22.372   8.600  48.281  1.00  0.00     0.275 C 
HETATM   27  C22 UNL     1      23.691   8.287  48.908  1.00  0.00     0.060 C 
HETATM   28  C23 UNL     1      24.287   6.950  48.430  1.00  0.00     0.272 C 
HETATM   29  N5  UNL     1      23.582   5.806  48.824  1.00  0.00     0.097 N 
HETATM   30  H13 UNL     1      23.420   0.612  54.062  1.00  0.00     0.162 HD
HETATM   31  H29 UNL     1      23.781   6.124  49.830  1.00  0.00     0.317 HD
ENDROOT
BRANCH   1  32
HETATM   32  C2  UNL     1      25.750  -0.493  53.640  1.00  0.00     0.025 C 
HETATM   33  C1  UNL     1      26.523   0.005  54.867  1.00  0.00     0.009 C 
ENDBRANCH   1  32
TORSDOF 1
ENDMDL
MODEL 7
REMARK VINA RESULT:      -8.2      4.911      8.446
REMARK  1 active torsions:
REMARK  status: ('A' for Active; 'I' for Inactive)
REMARK    1  A    between atoms: C2_2  and  C3_3 
ROOT
HETATM    1  C3  UNL     1      23.147  -0.029  53.381  1.00  0.00     0.011 C 
HETATM    2  C4  UNL     1      22.565   1.014  52.750  1.00  0.00     0.080 C 
HETATM    3  C5  UNL     1      23.276   1.786  51.689  1.00  0.00    -0.049 C 
HETATM    4  C6  UNL     1      23.805   2.393  50.871  1.00  0.00    -0.097 C 
HETATM    5  C7  UNL     1      24.507   3.177  49.835  1.00  0.00     0.139 C 
HETATM    6  C8  UNL     1      23.901   4.565  49.717  1.00  0.00     0.214 C 
HETATM    7  C9  UNL     1      22.820   4.293  50.250  1.00  0.00     0.030 A 
HETATM    8  C10 UNL     1      21.676   5.225  50.511  1.00  0.00     0.037 A 
HETATM    9  C11 UNL     1      20.928   4.147  51.042  1.00  0.00    -0.067 A 
HETATM   10  C12 UNL     1      19.668   3.500  51.708  1.00  0.00     0.088 A 
HETATM   11  C13 UNL     1      20.370   2.206  52.104  1.00  0.00     0.149 A 
HETATM   12  N1  UNL     1      19.987   1.480  51.157  1.00  0.00    -0.186 NA
HETATM   13  C14 UNL     1      20.345   2.039  49.833  1.00  0.00     0.094 A 
HETATM   14  N2  UNL     1      20.714   2.753  50.951  1.00  0.00     0.000 N 
HETATM   15  N3  UNL     1      21.268   1.541  53.021  1.00  0.00    -0.356 N 
HETATM   16  O1  UNL     1      22.954   5.591  49.861  1.00  0.00     0.000 OA
HETATM   17  C15 UNL     1      23.101   6.832  50.369  1.00  0.00     0.088 C 
HETATM   18  C16 UNL     1      23.426   7.877  49.260  1.00  0.00     0.162 C 
HETATM   19  O2  UNL     1      23.083   6.896  48.581  1.00  0.00    -0.296 OA
HETATM   20  C17 UNL     1      23.807   9.081  48.486  1.00  0.00     0.315 C 
HETATM   21  C18 UNL     1      23.377   8.970  47.044  1.00  0.00     0.211 C 
HETATM   22  O3  UNL     1      24.447   9.306  46.185  1.00  0.00    -0.387 OA
HETATM   23  C19 UNL     1      25.006  10.525  46.542  1.00  0.00     0.198 C 
HETATM   24  C20 UNL     1      25.752  10.298  47.833  1.00  0.00     0.299 C 
HETATM   25  N4  UNL     1      25.275   9.190  48.560  1.00  0.00     0.104 N 
HETATM   26  C21 UNL     1      25.736   7.881  48.099  1.00  0.00     0.275 C 
HETATM   27  C22 UNL     1      26.430   7.130  49.188  1.00  0.00     0.060 C 
HETATM   28  C23 UNL     1      26.409   5.605  48.979  1.00  0.00     0.272 C 
HETATM   29  N5  UNL     1      25.146   5.006  49.072  1.00  0.00     0.097 N 
HETATM   30  H13 UNL     1      20.697   1.566  53.849  1.00  0.00     0.162 HD
HETATM   31  H29 UNL     1      25.125   5.384  50.076  1.00  0.00     0.317 HD
ENDROOT
BRANCH   1  32
HETATM   32  C2  UNL     1      22.163  -0.535  54.361  1.00  0.00     0.025 C 
HETATM   33  C1  UNL     1      22.828  -1.527  55.324  1.00  0.00     0.009 C 
ENDBRANCH   1  32
TORSDOF 1
ENDMDL
MODEL 8
REMARK VINA RESULT:      -8.0      5.678      7.330
REMARK  1 active torsions:
REMARK  status: ('A' for Active; 'I' for Inactive)
REMARK    1  A    between atoms: C2_2  and  C3_3 
ROOT
HETATM    1  C3  UNL     1      30.140   5.483  47.895  1.00  0.00     0.011 C 
HETATM    2  C4  UNL     1      28.946   6.111  47.956  1.00  0.00     0.080 C 
HETATM    3  C5  UNL     1      27.741   5.453  48.539  1.00  0.00    -0.049 C 
HETATM    4  C6  UNL     1      26.802   4.964  48.983  1.00  0.00    -0.097 C 
HETATM    5  C7  UNL     1      25.597   4.315  49.539  1.00  0.00     0.139 C 
HETATM    6  C8  UNL     1      24.340   4.962  48.984  1.00  0.00     0.214 C 
HETATM    7  C9  UNL     1      24.870   6.019  48.627  1.00  0.00     0.030 A 
HETATM    8  C10 UNL     1      24.214   7.180  47.945  1.00  0.00     0.037 A 
HETATM    9  C11 UNL     1      25.443   7.883  47.972  1.00  0.00    -0.067 A 
HETATM   10  C12 UNL     1      26.373   9.105  47.673  1.00  0.00     0.088 A 
HETATM   11  C13 UNL     1      27.674   8.356  47.939  1.00  0.00     0.149 A 
HETATM   12  N1  UNL     1      27.886   8.746  49.111  1.00  0.00    -0.186 NA
HETATM   13  C14 UNL     1      26.758   8.442  50.022  1.00  0.00     0.094 A 
HETATM   14  N2  UNL     1      26.638   8.061  48.705  1.00  0.00     0.000 N 
HETATM   15  N3  UNL     1      28.657   7.414  47.453  1.00  0.00    -0.356 N 
HETATM   16  O1  UNL     1      23.537   5.932  48.363  1.00  0.00     0.000 OA
HETATM   17  C15 UNL     1      22.675   5.804  47.333  1.00  0.00     0.088 C 
HETATM   18  C16 UNL     1      21.220   5.541  47.826  1.00  0.00     0.162 C 
HETATM   19  O2  UNL     1      21.782   5.876  48.882  1.00  0.00    -0.296 OA
HETATM   20  C17 UNL     1      19.781   5.216  47.949  1.00  0.00     0.315 C 
HETATM   21  C18 UNL     1      19.219   5.684  49.269  1.00  0.00     0.211 C 
HETATM   22  O3  UNL     1      18.479   4.648  49.883  1.00  0.00    -0.387 OA
HETATM   23  C19 UNL     1      17.550   4.113  49.002  1.00  0.00     0.198 C 
HETATM   24  C20 UNL     1      18.327   3.325  47.979  1.00  0.00     0.299 C 
HETATM   25  N4  UNL     1      19.663   3.749  47.851  1.00  0.00     0.104 N 
HETATM   26  C21 UNL     1      20.585   3.266  48.878  1.00  0.00     0.275 C 
HETATM   27  C22 UNL     1      21.732   2.520  48.278  1.00  0.00     0.060 C 
HETATM   28  C23 UNL     1      22.981   2.506  49.178  1.00  0.00     0.272 C 
HETATM   29  N5  UNL     1      23.601   3.748  49.362  1.00  0.00     0.097 N 
HETATM   30  H13 UNL     1      29.044   7.961  46.703  1.00  0.00     0.162 HD
HETATM   31  H29 UNL     1      23.739   3.751  48.298  1.00  0.00     0.317 HD
ENDROOT
BRANCH   1  32
HETATM   32  C2  UNL     1      31.084   6.424  47.255  1.00  0.00     0.025 C 
HETATM   33  C1  UNL     1      32.356   5.689  46.813  1.00  0.00     0.009 C 
ENDBRANCH   1  32
TORSDOF 1
ENDMDL
MODEL 9
REMARK VINA RESULT:      -8.0      4.274      5.822
REMARK  1 active torsions:
REMARK  status: ('A' for Active; 'I' for Inactive)
REMARK    1  A    between atoms: C2_2  and  C3_3 
ROOT
HETATM    1  C3  UNL     1      28.667   5.590  48.335  1.00  0.00     0.011 C 
HETATM    2  C4  UNL     1      27.362   5.921  48.445  1.00  0.00     0.080 C 
HETATM    3  C5  UNL     1      26.407   5.098  49.242  1.00  0.00    -0.049 C 
HETATM    4  C6  UNL     1      25.656   4.479  49.850  1.00  0.00    -0.097 C 
HETATM    5  C7  UNL     1      24.697   3.660  50.620  1.00  0.00     0.139 C 
HETATM    6  C8  UNL     1      23.280   3.897  50.128  1.00  0.00     0.214 C 
HETATM    7  C9  UNL     1      23.501   4.979  49.575  1.00  0.00     0.030 A 
HETATM    8  C10 UNL     1      22.526   5.831  48.821  1.00  0.00     0.037 A 
HETATM    9  C11 UNL     1      23.540   6.799  48.616  1.00  0.00    -0.067 A 
HETATM   10  C12 UNL     1      24.110   8.142  48.053  1.00  0.00     0.088 A 
HETATM   11  C13 UNL     1      25.573   7.772  48.269  1.00  0.00     0.149 A 
HETATM   12  N1  UNL     1      25.770   8.381  49.347  1.00  0.00    -0.186 NA
HETATM   13  C14 UNL     1      24.826   7.968  50.411  1.00  0.00     0.094 A 
HETATM   14  N2  UNL     1      24.705   7.366  49.179  1.00  0.00     0.000 N 
HETATM   15  N3  UNL     1      26.720   7.024  47.807  1.00  0.00    -0.356 N 
HETATM   16  O1  UNL     1      22.216   4.541  49.476  1.00  0.00     0.000 OA
HETATM   17  C15 UNL     1      21.337   4.054  48.576  1.00  0.00     0.088 C 
HETATM   18  C16 UNL     1      20.036   3.536  49.260  1.00  0.00     0.162 C 
HETATM   19  O2  UNL     1      20.574   4.156  50.191  1.00  0.00    -0.296 OA
HETATM   20  C17 UNL     1      18.736   2.905  49.586  1.00  0.00     0.315 C 
HETATM   21  C18 UNL     1      18.177   3.430  50.886  1.00  0.00     0.211 C 
HETATM   22  O3  UNL     1      17.768   2.359  51.712  1.00  0.00    -0.387 OA
HETATM   23  C19 UNL     1      16.938   1.489  51.021  1.00  0.00     0.198 C 
HETATM   24  C20 UNL     1      17.806   0.754  50.033  1.00  0.00     0.299 C 
HETATM   25  N4  UNL     1      18.981   1.456  49.700  1.00  0.00     0.104 N 
HETATM   26  C21 UNL     1      20.070   1.371  50.672  1.00  0.00     0.275 C 
HETATM   27  C22 UNL     1      21.317   0.831  50.053  1.00  0.00     0.060 C 
HETATM   28  C23 UNL     1      22.595   1.253  50.801  1.00  0.00     0.272 C 
HETATM   29  N5  UNL     1      22.898   2.619  50.746  1.00  0.00     0.097 N 
HETATM   30  H13 UNL     1      26.901   7.521  46.952  1.00  0.00     0.162 HD
HETATM   31  H29 UNL     1      22.949   2.486  49.682  1.00  0.00     0.317 HD
ENDROOT
BRANCH   1  32
HETATM   32  C2  UNL     1      29.295   6.613  47.473  1.00  0.00     0.025 C 
HETATM   33  C1  UNL     1      30.820   6.447  47.467  1.00  0.00     0.009 C 
ENDBRANCH   1  32
TORSDOF 1
ENDMDL
