MODEL 1
REMARK VINA RESULT:      -8.0      0.000      0.000
REMARK  1 active torsions:
REMARK  status: ('A' for Active; 'I' for Inactive)
REMARK    1  A    between atoms: C2_2  and  C3_3 
ROOT
HETATM    1  C3  UNL     1      25.139   3.998  49.888  1.00  0.00     0.057 C 
HETATM    2  C4  UNL     1      24.214   3.704  49.007  1.00  0.00     0.034 C 
HETATM    3  C5  UNL     1      23.017   2.952  48.707  1.00  0.00     0.048 C 
HETATM    4  C6  UNL     1      22.163   2.099  49.187  1.00  0.00     0.156 C 
HETATM    5  F1  UNL     1      21.135   1.719  48.359  1.00  0.00    -0.203 F 
HETATM    6  C7  UNL     1      21.856   1.272  50.374  1.00  0.00     0.166 C 
HETATM    7 CL1  UNL     1      20.502   0.206  50.607  1.00  0.00    -0.059 Cl
HETATM    8  N1  UNL     1      22.549   1.229  51.400  1.00  0.00    -0.216 NA
HETATM    9  C8  UNL     1      22.461   0.541  52.612  1.00  0.00     0.150 A 
HETATM   10  N2  UNL     1      21.276   0.805  53.054  1.00  0.00    -0.244 NA
HETATM   11  C9  UNL     1      20.893   0.233  54.295  1.00  0.00     0.115 A 
HETATM   12  C10 UNL     1      21.747  -0.544  54.962  1.00  0.00    -0.005 A 
HETATM   13  C11 UNL     1      23.104  -0.886  54.530  1.00  0.00     0.061 A 
HETATM   14  C12 UNL     1      23.541  -0.317  53.231  1.00  0.00     0.157 A 
HETATM   15  N3  UNL     1      24.708   0.575  53.408  1.00  0.00    -0.345 N 
HETATM   16  C13 UNL     1      25.651   1.659  53.224  1.00  0.00     0.473 A 
HETATM   17  O1  UNL     1      24.769   1.799  52.347  1.00  0.00    -0.103 OA
HETATM   18  N4  UNL     1      25.735   2.765  52.290  1.00  0.00     0.201 N 
HETATM   19  N5  UNL     1      25.292   3.539  51.210  1.00  0.00    -0.187 N 
HETATM   20  H11 UNL     1      25.326   0.252  54.217  1.00  0.00     0.159 HD
HETATM   21  H12 UNL     1      26.633   3.261  52.604  1.00  0.00     0.356 HD
HETATM   22  H13 UNL     1      24.641   4.280  51.608  1.00  0.00     0.196 HD
ENDROOT
BRANCH   1  23
HETATM   23  C2  UNL     1      26.222   4.926  49.601  1.00  0.00     0.021 C 
HETATM   24  C1  UNL     1      27.242   4.668  48.864  1.00  0.00     0.013 C 
ENDBRANCH   1  23
TORSDOF 1
ENDMDL
MODEL 2
REMARK VINA RESULT:      -7.9      2.520      3.908
REMARK  1 active torsions:
REMARK  status: ('A' for Active; 'I' for Inactive)
REMARK    1  A    between atoms: C2_2  and  C3_3 
ROOT
HETATM    1  C3  UNL     1      27.665   1.009  53.719  1.00  0.00     0.057 C 
HETATM    2  C4  UNL     1      27.592   1.645  52.575  1.00  0.00     0.034 C 
HETATM    3  C5  UNL     1      26.750   2.133  51.507  1.00  0.00     0.048 C 
HETATM    4  C6  UNL     1      25.525   2.199  51.082  1.00  0.00     0.156 C 
HETATM    5  F1  UNL     1      25.316   2.853  49.892  1.00  0.00    -0.203 F 
HETATM    6  C7  UNL     1      24.141   1.776  51.387  1.00  0.00     0.166 C 
HETATM    7 CL1  UNL     1      22.696   2.124  50.483  1.00  0.00    -0.059 Cl
HETATM    8  N1  UNL     1      23.815   1.091  52.368  1.00  0.00    -0.216 NA
HETATM    9  C8  UNL     1      22.606   0.583  52.847  1.00  0.00     0.150 A 
HETATM   10  N2  UNL     1      21.822   1.608  52.916  1.00  0.00    -0.244 NA
HETATM   11  C9  UNL     1      20.499   1.396  53.380  1.00  0.00     0.115 A 
HETATM   12  C10 UNL     1      20.104   0.171  53.730  1.00  0.00    -0.005 A 
HETATM   13  C11 UNL     1      20.931  -1.037  53.684  1.00  0.00     0.061 A 
HETATM   14  C12 UNL     1      22.320  -0.862  53.193  1.00  0.00     0.157 A 
HETATM   15  N3  UNL     1      23.303  -1.224  54.238  1.00  0.00    -0.345 N 
HETATM   16  C13 UNL     1      24.504  -1.250  55.046  1.00  0.00     0.473 A 
HETATM   17  O1  UNL     1      24.683  -0.377  54.167  1.00  0.00    -0.103 OA
HETATM   18  N4  UNL     1      25.750  -0.511  55.011  1.00  0.00     0.201 N 
HETATM   19  N5  UNL     1      26.635   0.445  54.495  1.00  0.00    -0.187 N 
HETATM   20  H11 UNL     1      22.930  -2.000  54.871  1.00  0.00     0.159 HD
HETATM   21  H12 UNL     1      26.288  -0.930  55.839  1.00  0.00     0.356 HD
HETATM   22  H13 UNL     1      26.420   1.363  54.988  1.00  0.00     0.196 HD
ENDROOT
BRANCH   1  23
HETATM   23  C2  UNL     1      28.926   0.790  54.410  1.00  0.00     0.021 C 
HETATM   24  C1  UNL     1      29.825  -0.059  54.060  1.00  0.00     0.013 C 
ENDBRANCH   1  23
TORSDOF 1
ENDMDL
MODEL 3
REMARK VINA RESULT:      -7.7      2.170      5.034
REMARK  1 active torsions:
REMARK  status: ('A' for Active; 'I' for Inactive)
REMARK    1  A    between atoms: C2_2  and  C3_3 
ROOT
HETATM    1  C3  UNL     1      26.642   0.044  53.395  1.00  0.00     0.057 C 
HETATM    2  C4  UNL     1      25.567  -0.429  53.976  1.00  0.00     0.034 C 
HETATM    3  C5  UNL     1      24.125  -0.525  53.972  1.00  0.00     0.048 C 
HETATM    4  C6  UNL     1      23.050  -0.157  53.344  1.00  0.00     0.156 C 
HETATM    5  F1  UNL     1      21.853  -0.601  53.852  1.00  0.00    -0.203 F 
HETATM    6  C7  UNL     1      22.559   0.658  52.211  1.00  0.00     0.166 C 
HETATM    7 CL1  UNL     1      20.915   0.873  51.686  1.00  0.00    -0.059 Cl
HETATM    8  N1  UNL     1      23.285   1.321  51.456  1.00  0.00    -0.216 NA
HETATM    9  C8  UNL     1      23.055   2.145  50.353  1.00  0.00     0.150 A 
HETATM   10  N2  UNL     1      22.350   1.422  49.545  1.00  0.00    -0.244 NA
HETATM   11  C9  UNL     1      21.958   2.005  48.312  1.00  0.00     0.115 A 
HETATM   12  C10 UNL     1      22.320   3.256  48.021  1.00  0.00    -0.005 A 
HETATM   13  C11 UNL     1      23.117   4.134  48.880  1.00  0.00     0.061 A 
HETATM   14  C12 UNL     1      23.539   3.567  50.185  1.00  0.00     0.157 A 
HETATM   15  N3  UNL     1      25.014   3.501  50.282  1.00  0.00    -0.345 N 
HETATM   16  C13 UNL     1      26.351   3.069  50.633  1.00  0.00     0.473 A 
HETATM   17  O1  UNL     1      25.561   2.267  51.180  1.00  0.00    -0.103 OA
HETATM   18  N4  UNL     1      26.873   1.975  51.429  1.00  0.00     0.201 N 
HETATM   19  N5  UNL     1      26.757   0.837  52.238  1.00  0.00    -0.187 N 
HETATM   20  H11 UNL     1      25.477   4.296  49.738  1.00  0.00     0.159 HD
HETATM   21  H12 UNL     1      27.932   2.125  51.356  1.00  0.00     0.356 HD
HETATM   22  H13 UNL     1      26.743  -0.004  51.586  1.00  0.00     0.196 HD
ENDROOT
BRANCH   1  23
HETATM   23  C2  UNL     1      27.980  -0.215  53.903  1.00  0.00     0.021 C 
HETATM   24  C1  UNL     1      28.858  -0.958  53.331  1.00  0.00     0.013 C 
ENDBRANCH   1  23
TORSDOF 1
ENDMDL
MODEL 4
REMARK VINA RESULT:      -7.5      2.777      3.806
REMARK  1 active torsions:
REMARK  status: ('A' for Active; 'I' for Inactive)
REMARK    1  A    between atoms: C2_2  and  C3_3 
ROOT
HETATM    1  C3  UNL     1      25.773   3.114  50.387  1.00  0.00     0.057 C 
HETATM    2  C4  UNL     1      26.707   2.661  51.188  1.00  0.00     0.034 C 
HETATM    3  C5  UNL     1      27.042   1.811  52.307  1.00  0.00     0.048 C 
HETATM    4  C6  UNL     1      26.554   0.986  53.183  1.00  0.00     0.156 C 
HETATM    5  F1  UNL     1      27.440   0.434  54.075  1.00  0.00    -0.203 F 
HETATM    6  C7  UNL     1      25.294   0.380  53.665  1.00  0.00     0.166 C 
HETATM    7 CL1  UNL     1      25.090  -0.770  54.954  1.00  0.00    -0.059 Cl
HETATM    8  N1  UNL     1      24.173   0.619  53.194  1.00  0.00    -0.216 NA
HETATM    9  C8  UNL     1      22.879   0.180  53.478  1.00  0.00     0.150 A 
HETATM   10  N2  UNL     1      22.955  -1.110  53.447  1.00  0.00    -0.244 NA
HETATM   11  C9  UNL     1      21.770  -1.846  53.702  1.00  0.00     0.115 A 
HETATM   12  C10 UNL     1      20.629  -1.205  53.960  1.00  0.00    -0.005 A 
HETATM   13  C11 UNL     1      20.461   0.249  54.010  1.00  0.00     0.061 A 
HETATM   14  C12 UNL     1      21.680   1.058  53.759  1.00  0.00     0.157 A 
HETATM   15  N3  UNL     1      21.516   1.907  52.558  1.00  0.00    -0.345 N 
HETATM   16  C13 UNL     1      21.808   2.661  51.357  1.00  0.00     0.473 A 
HETATM   17  O1  UNL     1      22.895   2.177  51.749  1.00  0.00    -0.103 OA
HETATM   18  N4  UNL     1      23.023   2.922  50.610  1.00  0.00     0.201 N 
HETATM   19  N5  UNL     1      24.398   2.815  50.361  1.00  0.00    -0.187 N 
HETATM   20  H11 UNL     1      20.499   2.206  52.429  1.00  0.00     0.159 HD
HETATM   21  H12 UNL     1      22.669   3.537  49.806  1.00  0.00     0.356 HD
HETATM   22  H13 UNL     1      24.535   1.951  49.755  1.00  0.00     0.196 HD
ENDROOT
BRANCH   1  23
HETATM   23  C2  UNL     1      26.053   4.060  49.319  1.00  0.00     0.021 C 
HETATM   24  C1  UNL     1      27.221   4.480  48.989  1.00  0.00     0.013 C 
ENDBRANCH   1  23
TORSDOF 1
ENDMDL
MODEL 5
REMARK VINA RESULT:      -7.3      2.713      6.237
REMARK  1 active torsions:
REMARK  status: ('A' for Active; 'I' for Inactive)
REMARK    1  A    between atoms: C2_2  and  C3_3 
ROOT
HETATM    1  C3  UNL     1      23.335   0.168  53.191  1.00  0.00     0.057 C 
HETATM    2  C4  UNL     1      24.579   0.580  53.246  1.00  0.00     0.034 C 
HETATM    3  C5  UNL     1      25.612   1.409  52.668  1.00  0.00     0.048 C 
HETATM    4  C6  UNL     1      25.874   2.243  51.709  1.00  0.00     0.156 C 
HETATM    5  F1  UNL     1      27.148   2.756  51.666  1.00  0.00    -0.203 F 
HETATM    6  C7  UNL     1      25.297   2.891  50.511  1.00  0.00     0.166 C 
HETATM    7 CL1  UNL     1      26.060   4.036  49.447  1.00  0.00    -0.059 Cl
HETATM    8  N1  UNL     1      24.148   2.696  50.091  1.00  0.00    -0.216 NA
HETATM    9  C8  UNL     1      23.406   3.178  49.012  1.00  0.00     0.150 A 
HETATM   10  N2  UNL     1      23.481   4.465  49.110  1.00  0.00    -0.244 NA
HETATM   11  C9  UNL     1      22.809   5.241  48.131  1.00  0.00     0.115 A 
HETATM   12  C10 UNL     1      22.127   4.639  47.155  1.00  0.00    -0.005 A 
HETATM   13  C11 UNL     1      21.992   3.191  46.978  1.00  0.00     0.061 A 
HETATM   14  C12 UNL     1      22.690   2.341  47.975  1.00  0.00     0.157 A 
HETATM   15  N3  UNL     1      21.727   1.509  48.730  1.00  0.00    -0.345 N 
HETATM   16  C13 UNL     1      21.101   0.754  49.795  1.00  0.00     0.473 A 
HETATM   17  O1  UNL     1      22.180   1.196  50.254  1.00  0.00    -0.103 OA
HETATM   18  N4  UNL     1      21.477   0.456  51.164  1.00  0.00     0.201 N 
HETATM   19  N5  UNL     1      22.319   0.516  52.282  1.00  0.00    -0.187 N 
HETATM   20  H11 UNL     1      20.884   1.247  48.128  1.00  0.00     0.159 HD
HETATM   21  H12 UNL     1      20.651  -0.139  51.502  1.00  0.00     0.356 HD
HETATM   22  H13 UNL     1      22.035   1.379  52.835  1.00  0.00     0.196 HD
ENDROOT
BRANCH   1  23
HETATM   23  C2  UNL     1      22.785  -0.779  54.148  1.00  0.00     0.021 C 
HETATM   24  C1  UNL     1      21.558  -0.820  54.527  1.00  0.00     0.013 C 
ENDBRANCH   1  23
TORSDOF 1
ENDMDL
MODEL 6
REMARK VINA RESULT:      -7.3      2.656      3.788
REMARK  1 active torsions:
REMARK  status: ('A' for Active; 'I' for Inactive)
REMARK    1  A    between atoms: C2_2  and  C3_3 
ROOT
HETATM    1  C3  UNL     1      26.162   3.310  49.950  1.00  0.00     0.057 C 
HETATM    2  C4  UNL     1      26.618   2.430  50.808  1.00  0.00     0.034 C 
HETATM    3  C5  UNL     1      26.308   1.420  51.794  1.00  0.00     0.048 C 
HETATM    4  C6  UNL     1      25.338   0.806  52.400  1.00  0.00     0.156 C 
HETATM    5  F1  UNL     1      25.689  -0.151  53.320  1.00  0.00    -0.203 F 
HETATM    6  C7  UNL     1      23.865   0.755  52.528  1.00  0.00     0.166 C 
HETATM    7 CL1  UNL     1      22.918  -0.309  53.525  1.00  0.00    -0.059 Cl
HETATM    8  N1  UNL     1      23.080   1.493  51.915  1.00  0.00    -0.216 NA
HETATM    9  C8  UNL     1      21.691   1.626  51.876  1.00  0.00     0.150 A 
HETATM   10  N2  UNL     1      21.254   0.436  51.622  1.00  0.00    -0.244 NA
HETATM   11  C9  UNL     1      19.851   0.257  51.520  1.00  0.00     0.115 A 
HETATM   12  C10 UNL     1      19.033   1.298  51.682  1.00  0.00    -0.005 A 
HETATM   13  C11 UNL     1      19.449   2.673  51.968  1.00  0.00     0.061 A 
HETATM   14  C12 UNL     1      20.910   2.903  52.094  1.00  0.00     0.157 A 
HETATM   15  N3  UNL     1      21.390   3.846  51.060  1.00  0.00    -0.345 N 
HETATM   16  C13 UNL     1      22.237   4.509  50.091  1.00  0.00     0.473 A 
HETATM   17  O1  UNL     1      22.913   3.573  50.576  1.00  0.00    -0.103 OA
HETATM   18  N4  UNL     1      23.597   4.292  49.635  1.00  0.00     0.201 N 
HETATM   19  N5  UNL     1      24.832   3.631  49.622  1.00  0.00    -0.187 N 
HETATM   20  H11 UNL     1      20.639   4.562  50.807  1.00  0.00     0.159 HD
HETATM   21  H12 UNL     1      23.720   5.071  48.907  1.00  0.00     0.356 HD
HETATM   22  H13 UNL     1      24.756   2.851  48.902  1.00  0.00     0.196 HD
ENDROOT
BRANCH   1  23
HETATM   23  C2  UNL     1      27.043   4.139  49.142  1.00  0.00     0.021 C 
HETATM   24  C1  UNL     1      26.830   5.369  48.839  1.00  0.00     0.013 C 
ENDBRANCH   1  23
TORSDOF 1
ENDMDL
MODEL 7
REMARK VINA RESULT:      -7.3      3.002      4.616
REMARK  1 active torsions:
REMARK  status: ('A' for Active; 'I' for Inactive)
REMARK    1  A    between atoms: C2_2  and  C3_3 
ROOT
HETATM    1  C3  UNL     1      26.565   1.467  53.598  1.00  0.00     0.057 C 
HETATM    2  C4  UNL     1      26.259   0.418  54.321  1.00  0.00     0.034 C 
HETATM    3  C5  UNL     1      25.235  -0.511  54.743  1.00  0.00     0.048 C 
HETATM    4  C6  UNL     1      23.979  -0.816  54.621  1.00  0.00     0.156 C 
HETATM    5  F1  UNL     1      23.536  -1.909  55.326  1.00  0.00    -0.203 F 
HETATM    6  C7  UNL     1      22.711  -0.387  53.993  1.00  0.00     0.166 C 
HETATM    7 CL1  UNL     1      21.155  -1.156  54.098  1.00  0.00    -0.059 Cl
HETATM    8  N1  UNL     1      22.586   0.618  53.278  1.00  0.00    -0.216 NA
HETATM    9  C8  UNL     1      21.519   1.206  52.596  1.00  0.00     0.150 A 
HETATM   10  N2  UNL     1      21.024   0.254  51.876  1.00  0.00    -0.244 NA
HETATM   11  C9  UNL     1      19.906   0.560  51.058  1.00  0.00     0.115 A 
HETATM   12  C10 UNL     1      19.405   1.796  51.049  1.00  0.00    -0.005 A 
HETATM   13  C11 UNL     1      19.909   2.926  51.832  1.00  0.00     0.061 A 
HETATM   14  C12 UNL     1      21.073   2.647  52.711  1.00  0.00     0.157 A 
HETATM   15  N3  UNL     1      22.244   3.460  52.315  1.00  0.00    -0.345 N 
HETATM   16  C13 UNL     1      23.609   3.884  52.085  1.00  0.00     0.473 A 
HETATM   17  O1  UNL     1      23.670   2.740  52.591  1.00  0.00    -0.103 OA
HETATM   18  N4  UNL     1      24.901   3.267  52.319  1.00  0.00     0.201 N 
HETATM   19  N5  UNL     1      25.747   2.238  52.750  1.00  0.00    -0.187 N 
HETATM   20  H11 UNL     1      21.945   4.404  51.913  1.00  0.00     0.159 HD
HETATM   21  H12 UNL     1      25.579   4.019  51.963  1.00  0.00     0.356 HD
HETATM   22  H13 UNL     1      25.893   1.590  51.919  1.00  0.00     0.196 HD
ENDROOT
BRANCH   1  23
HETATM   23  C2  UNL     1      27.909   2.022  53.559  1.00  0.00     0.021 C 
HETATM   24  C1  UNL     1      28.995   1.336  53.595  1.00  0.00     0.013 C 
ENDBRANCH   1  23
TORSDOF 1
ENDMDL
MODEL 8
REMARK VINA RESULT:      -7.3      2.588      4.035
REMARK  1 active torsions:
REMARK  status: ('A' for Active; 'I' for Inactive)
REMARK    1  A    between atoms: C2_2  and  C3_3 
ROOT
HETATM    1  C3  UNL     1      22.555   4.334  51.117  1.00  0.00     0.057 C 
HETATM    2  C4  UNL     1      21.620   3.544  51.587  1.00  0.00     0.034 C 
HETATM    3  C5  UNL     1      21.301   2.338  52.317  1.00  0.00     0.048 C 
HETATM    4  C6  UNL     1      21.813   1.319  52.937  1.00  0.00     0.156 C 
HETATM    5  F1  UNL     1      20.931   0.420  53.485  1.00  0.00    -0.203 F 
HETATM    6  C7  UNL     1      23.094   0.666  53.286  1.00  0.00     0.166 C 
HETATM    7 CL1  UNL     1      23.331  -0.789  54.210  1.00  0.00    -0.059 Cl
HETATM    8  N1  UNL     1      24.211   1.087  52.955  1.00  0.00    -0.216 NA
HETATM    9  C8  UNL     1      25.521   0.652  53.161  1.00  0.00     0.150 A 
HETATM   10  N2  UNL     1      25.619   0.499  54.441  1.00  0.00    -0.244 NA
HETATM   11  C9  UNL     1      26.863   0.056  54.958  1.00  0.00     0.115 A 
HETATM   12  C10 UNL     1      27.882  -0.185  54.131  1.00  0.00    -0.005 A 
HETATM   13  C11 UNL     1      27.851  -0.033  52.674  1.00  0.00     0.061 A 
HETATM   14  C12 UNL     1      26.563   0.418  52.090  1.00  0.00     0.157 A 
HETATM   15  N3  UNL     1      26.721   1.717  51.397  1.00  0.00    -0.345 N 
HETATM   16  C13 UNL     1      26.441   3.032  50.862  1.00  0.00     0.473 A 
HETATM   17  O1  UNL     1      25.397   2.651  51.439  1.00  0.00    -0.103 OA
HETATM   18  N4  UNL     1      25.274   3.893  50.881  1.00  0.00     0.201 N 
HETATM   19  N5  UNL     1      23.954   4.220  51.217  1.00  0.00    -0.187 N 
HETATM   20  H11 UNL     1      27.697   1.816  50.975  1.00  0.00     0.159 HD
HETATM   21  H12 UNL     1      25.615   4.752  50.337  1.00  0.00     0.356 HD
HETATM   22  H13 UNL     1      23.987   4.701  52.166  1.00  0.00     0.196 HD
ENDROOT
BRANCH   1  23
HETATM   23  C2  UNL     1      22.249   5.547  50.374  1.00  0.00     0.021 C 
HETATM   24  C1  UNL     1      21.662   6.582  50.857  1.00  0.00     0.013 C 
ENDBRANCH   1  23
TORSDOF 1
ENDMDL
MODEL 9
REMARK VINA RESULT:      -7.0      3.086      6.336
REMARK  1 active torsions:
REMARK  status: ('A' for Active; 'I' for Inactive)
REMARK    1  A    between atoms: C2_2  and  C3_3 
ROOT
HETATM    1  C3  UNL     1      22.043   0.458  53.445  1.00  0.00     0.057 C 
HETATM    2  C4  UNL     1      23.270   0.181  53.075  1.00  0.00     0.034 C 
HETATM    3  C5  UNL     1      24.467   0.628  52.400  1.00  0.00     0.048 C 
HETATM    4  C6  UNL     1      24.998   1.616  51.747  1.00  0.00     0.156 C 
HETATM    5  F1  UNL     1      26.291   1.450  51.314  1.00  0.00    -0.203 F 
HETATM    6  C7  UNL     1      24.718   2.963  51.205  1.00  0.00     0.166 C 
HETATM    7 CL1  UNL     1      25.806   4.013  50.344  1.00  0.00    -0.059 Cl
HETATM    8  N1  UNL     1      23.628   3.546  51.297  1.00  0.00    -0.216 NA
HETATM    9  C8  UNL     1      23.142   4.785  50.873  1.00  0.00     0.150 A 
HETATM   10  N2  UNL     1      23.990   5.645  51.335  1.00  0.00    -0.244 NA
HETATM   11  C9  UNL     1      23.752   7.016  51.059  1.00  0.00     0.115 A 
HETATM   12  C10 UNL     1      22.683   7.378  50.348  1.00  0.00    -0.005 A 
HETATM   13  C11 UNL     1      21.678   6.466  49.796  1.00  0.00     0.061 A 
HETATM   14  C12 UNL     1      21.895   5.020  50.052  1.00  0.00     0.157 A 
HETATM   15  N3  UNL     1      20.782   4.449  50.843  1.00  0.00    -0.345 N 
HETATM   16  C13 UNL     1      20.036   3.625  51.770  1.00  0.00     0.473 A 
HETATM   17  O1  UNL     1      21.224   3.235  51.821  1.00  0.00    -0.103 OA
HETATM   18  N4  UNL     1      20.398   2.537  52.657  1.00  0.00     0.201 N 
HETATM   19  N5  UNL     1      21.294   1.632  53.242  1.00  0.00    -0.187 N 
HETATM   20  H11 UNL     1      19.858   4.940  50.626  1.00  0.00     0.159 HD
HETATM   21  H12 UNL     1      19.459   2.292  53.114  1.00  0.00     0.356 HD
HETATM   22  H13 UNL     1      21.690   2.108  54.108  1.00  0.00     0.196 HD
ENDROOT
BRANCH   1  23
HETATM   23  C2  UNL     1      21.221  -0.484  54.187  1.00  0.00     0.021 C 
HETATM   24  C1  UNL     1      21.606  -1.637  54.602  1.00  0.00     0.013 C 
ENDBRANCH   1  23
TORSDOF 1
ENDMDL
