MODEL 1
REMARK VINA RESULT:      -6.8      0.000      0.000
REMARK  6 active torsions:
REMARK  status: ('A' for Active; 'I' for Inactive)
REMARK    1  A    between atoms: C2_2  and  N1_3 
REMARK    2  A    between atoms: N1_3  and  C4_5 
REMARK    3  A    between atoms: N2_7  and  C6_8 
REMARK    4  A    between atoms: C13_17  and  N3_18 
REMARK    5  A    between atoms: C17_23  and  O1_24 
REMARK    6  A    between atoms: O1_24  and  C18_25 
ROOT
HETATM    1  C4  UNL     1      22.588   3.082  49.537  1.00  0.00     0.296 C 
HETATM    2  C5  UNL     1      23.923   3.603  49.036  1.00  0.00     0.166 C 
HETATM    3  N2  UNL     1      24.905   3.670  50.094  1.00  0.00    -0.373 N 
HETATM    4  C12 UNL     1      26.002   4.563  49.754  1.00  0.00     0.180 C 
HETATM    5  C13 UNL     1      25.668   6.007  49.914  1.00  0.00     0.030 C 
HETATM    6  C14 UNL     1      24.694   6.810  50.339  1.00  0.00     0.079 C 
HETATM    7  N4  UNL     1      23.535   7.490  50.841  1.00  0.00    -0.291 NA
HETATM    8  C15 UNL     1      22.419   6.783  50.872  1.00  0.00     0.217 C 
HETATM    9  C16 UNL     1      22.327   5.460  50.445  1.00  0.00     0.048 C 
HETATM   10  C17 UNL     1      21.882   4.288  50.178  1.00  0.00     0.091 C 
ENDROOT
BRANCH   3  11
HETATM   11  C6  UNL     1      24.925   2.999  51.344  1.00  0.00     0.032 A 
HETATM   12  C7  UNL     1      24.357   3.212  52.582  1.00  0.00     0.032 A 
HETATM   13  C8  UNL     1      24.581   2.302  53.591  1.00  0.00     0.046 A 
HETATM   14  C9  UNL     1      25.348   1.164  53.453  1.00  0.00     0.138 A 
HETATM   15  F1  UNL     1      25.518   0.308  54.500  1.00  0.00    -0.204 F 
HETATM   16  C10 UNL     1      25.933   0.925  52.209  1.00  0.00     0.074 A 
HETATM   17 CL1  UNL     1      26.887  -0.527  52.097  1.00  0.00    -0.081 Cl
HETATM   18  C11 UNL     1      25.706   1.841  51.205  1.00  0.00     0.056 A 
ENDBRANCH   3  11
BRANCH   1  19
HETATM   19  N1  UNL     1      21.738   2.664  48.439  1.00  0.00     0.096 N 
HETATM   20  C3  UNL     1      21.482   1.252  48.562  1.00  0.00     0.310 C 
BRANCH  19  21
HETATM   21  C2  UNL     1      22.227   2.947  47.137  1.00  0.00     0.268 C 
HETATM   22  C1  UNL     1      21.193   3.877  46.487  1.00  0.00     0.037 C 
ENDBRANCH  19  21
ENDBRANCH   1  19
BRANCH   5  23
HETATM   23  N3  UNL     1      26.847   6.711  49.433  1.00  0.00    -0.400 N 
HETATM   24  H17 UNL     1      27.661   7.239  49.045  1.00  0.00     0.156 HD
HETATM   25  H18 UNL     1      27.822   6.714  49.830  1.00  0.00     0.156 HD
ENDBRANCH   5  23
BRANCH  10  26
HETATM   26  O1  UNL     1      20.585   4.097  50.520  1.00  0.00    -0.257 OA
BRANCH  26  27
HETATM   27  C18 UNL     1      20.153   3.458  51.691  1.00  0.00     0.529 C 
HETATM   28  F2  UNL     1      20.955   3.757  52.777  1.00  0.00    -0.144 F 
HETATM   29  F3  UNL     1      20.102   2.092  51.573  1.00  0.00    -0.144 F 
HETATM   30  F4  UNL     1      18.856   3.887  51.945  1.00  0.00    -0.144 F 
ENDBRANCH  26  27
ENDBRANCH  10  26
TORSDOF 6
ENDMDL
MODEL 2
REMARK VINA RESULT:      -6.7      2.975      5.239
REMARK  6 active torsions:
REMARK  status: ('A' for Active; 'I' for Inactive)
REMARK    1  A    between atoms: C2_2  and  N1_3 
REMARK    2  A    between atoms: N1_3  and  C4_5 
REMARK    3  A    between atoms: N2_7  and  C6_8 
REMARK    4  A    between atoms: C13_17  and  N3_18 
REMARK    5  A    between atoms: C17_23  and  O1_24 
REMARK    6  A    between atoms: O1_24  and  C18_25 
ROOT
HETATM    1  C4  UNL     1      23.239   4.300  50.993  1.00  0.00     0.296 C 
HETATM    2  C5  UNL     1      21.853   3.756  51.291  1.00  0.00     0.166 C 
HETATM    3  N2  UNL     1      21.900   2.384  51.742  1.00  0.00    -0.373 N 
HETATM    4  C12 UNL     1      20.611   1.724  51.595  1.00  0.00     0.180 C 
HETATM    5  C13 UNL     1      20.313   1.301  50.198  1.00  0.00     0.030 C 
HETATM    6  C14 UNL     1      20.861   1.252  48.984  1.00  0.00     0.079 C 
HETATM    7  N4  UNL     1      21.627   1.290  47.772  1.00  0.00    -0.291 NA
HETATM    8  C15 UNL     1      22.647   2.130  47.760  1.00  0.00     0.217 C 
HETATM    9  C16 UNL     1      22.987   2.952  48.831  1.00  0.00     0.048 C 
HETATM   10  C17 UNL     1      23.589   3.801  49.581  1.00  0.00     0.091 C 
ENDROOT
BRANCH   3  11
HETATM   11  C6  UNL     1      22.989   1.653  52.286  1.00  0.00     0.032 A 
HETATM   12  C7  UNL     1      24.361   1.701  52.165  1.00  0.00     0.032 A 
HETATM   13  C8  UNL     1      25.131   0.822  52.893  1.00  0.00     0.046 A 
HETATM   14  C9  UNL     1      24.622  -0.125  53.757  1.00  0.00     0.138 A 
HETATM   15  F1  UNL     1      25.453  -0.957  54.445  1.00  0.00    -0.204 F 
HETATM   16  C10 UNL     1      23.235  -0.193  53.897  1.00  0.00     0.074 A 
HETATM   17 CL1  UNL     1      22.653  -1.406  55.002  1.00  0.00    -0.081 Cl
HETATM   18  C11 UNL     1      22.471   0.689  53.164  1.00  0.00     0.056 A 
ENDBRANCH   3  11
BRANCH   1  19
HETATM   19  N1  UNL     1      23.231   5.747  50.910  1.00  0.00     0.096 N 
HETATM   20  C3  UNL     1      24.126   6.274  51.907  1.00  0.00     0.310 C 
BRANCH  19  21
HETATM   21  C2  UNL     1      21.961   6.367  51.035  1.00  0.00     0.268 C 
HETATM   22  C1  UNL     1      22.022   7.642  50.185  1.00  0.00     0.037 C 
ENDBRANCH  19  21
ENDBRANCH   1  19
BRANCH   5  23
HETATM   23  N3  UNL     1      18.961   0.767  50.258  1.00  0.00    -0.400 N 
HETATM   24  H17 UNL     1      17.997   0.376  50.358  1.00  0.00     0.156 HD
HETATM   25  H18 UNL     1      18.268   0.635  49.477  1.00  0.00     0.156 HD
ENDBRANCH   5  23
BRANCH  10  26
HETATM   26  O1  UNL     1      24.706   4.332  49.030  1.00  0.00    -0.257 OA
BRANCH  26  27
HETATM   27  C18 UNL     1      26.017   3.960  49.364  1.00  0.00     0.529 C 
HETATM   28  F2  UNL     1      26.274   2.633  49.073  1.00  0.00    -0.144 F 
HETATM   29  F3  UNL     1      26.314   4.162  50.687  1.00  0.00    -0.144 F 
HETATM   30  F4  UNL     1      26.878   4.767  48.631  1.00  0.00    -0.144 F 
ENDBRANCH  26  27
ENDBRANCH  10  26
TORSDOF 6
ENDMDL
MODEL 3
REMARK VINA RESULT:      -6.3      3.259      5.746
REMARK  6 active torsions:
REMARK  status: ('A' for Active; 'I' for Inactive)
REMARK    1  A    between atoms: C2_2  and  N1_3 
REMARK    2  A    between atoms: N1_3  and  C4_5 
REMARK    3  A    between atoms: N2_7  and  C6_8 
REMARK    4  A    between atoms: C13_17  and  N3_18 
REMARK    5  A    between atoms: C17_23  and  O1_24 
REMARK    6  A    between atoms: O1_24  and  C18_25 
ROOT
HETATM    1  C4  UNL     1      22.838   3.618  51.873  1.00  0.00     0.296 C 
HETATM    2  C5  UNL     1      21.365   3.851  51.589  1.00  0.00     0.166 C 
HETATM    3  N2  UNL     1      20.580   2.657  51.806  1.00  0.00    -0.373 N 
HETATM    4  C12 UNL     1      19.296   2.725  51.124  1.00  0.00     0.180 C 
HETATM    5  C13 UNL     1      19.382   2.456  49.661  1.00  0.00     0.030 C 
HETATM    6  C14 UNL     1      20.250   2.095  48.716  1.00  0.00     0.079 C 
HETATM    7  N4  UNL     1      21.333   1.699  47.862  1.00  0.00    -0.291 NA
HETATM    8  C15 UNL     1      22.548   1.916  48.334  1.00  0.00     0.217 C 
HETATM    9  C16 UNL     1      22.808   2.497  49.572  1.00  0.00     0.048 C 
HETATM   10  C17 UNL     1      23.409   2.958  50.607  1.00  0.00     0.091 C 
ENDROOT
BRANCH   3  11
HETATM   11  C6  UNL     1      20.895   1.501  52.566  1.00  0.00     0.032 A 
HETATM   12  C7  UNL     1      22.005   1.043  53.243  1.00  0.00     0.032 A 
HETATM   13  C8  UNL     1      21.933  -0.155  53.919  1.00  0.00     0.046 A 
HETATM   14  C9  UNL     1      20.808  -0.951  53.973  1.00  0.00     0.138 A 
HETATM   15  F1  UNL     1      20.817  -2.123  54.667  1.00  0.00    -0.204 F 
HETATM   16  C10 UNL     1      19.671  -0.508  53.295  1.00  0.00     0.074 A 
HETATM   17 CL1  UNL     1      18.282  -1.553  53.402  1.00  0.00    -0.081 Cl
HETATM   18  C11 UNL     1      19.750   0.690  52.621  1.00  0.00     0.056 A 
ENDBRANCH   3  11
BRANCH   1  19
HETATM   19  N1  UNL     1      23.552   4.871  52.023  1.00  0.00     0.096 N 
HETATM   20  C3  UNL     1      23.663   5.177  53.425  1.00  0.00     0.310 C 
BRANCH  19  21
HETATM   21  C2  UNL     1      22.999   5.982  51.335  1.00  0.00     0.268 C 
HETATM   22  C1  UNL     1      24.163   6.949  51.083  1.00  0.00     0.037 C 
ENDBRANCH  19  21
ENDBRANCH   1  19
BRANCH   5  23
HETATM   23  N3  UNL     1      18.030   2.672  49.169  1.00  0.00    -0.400 N 
HETATM   24  H17 UNL     1      17.058   2.771  48.800  1.00  0.00     0.156 HD
HETATM   25  H18 UNL     1      17.461   3.558  49.168  1.00  0.00     0.156 HD
ENDBRANCH   5  23
BRANCH  10  26
HETATM   26  O1  UNL     1      24.757   2.839  50.563  1.00  0.00    -0.257 OA
BRANCH  26  27
HETATM   27  C18 UNL     1      25.515   2.024  51.417  1.00  0.00     0.529 C 
HETATM   28  F2  UNL     1      25.780   2.638  52.627  1.00  0.00    -0.144 F 
HETATM   29  F3  UNL     1      26.714   1.640  50.871  1.00  0.00    -0.144 F 
HETATM   30  F4  UNL     1      24.786   0.863  51.639  1.00  0.00    -0.144 F 
ENDBRANCH  26  27
ENDBRANCH  10  26
TORSDOF 6
ENDMDL
MODEL 4
REMARK VINA RESULT:      -6.1      2.890      4.877
REMARK  6 active torsions:
REMARK  status: ('A' for Active; 'I' for Inactive)
REMARK    1  A    between atoms: C2_2  and  N1_3 
REMARK    2  A    between atoms: N1_3  and  C4_5 
REMARK    3  A    between atoms: N2_7  and  C6_8 
REMARK    4  A    between atoms: C13_17  and  N3_18 
REMARK    5  A    between atoms: C17_23  and  O1_24 
REMARK    6  A    between atoms: O1_24  and  C18_25 
ROOT
HETATM    1  C4  UNL     1      23.236   4.858  50.571  1.00  0.00     0.296 C 
HETATM    2  C5  UNL     1      22.406   4.053  51.555  1.00  0.00     0.166 C 
HETATM    3  N2  UNL     1      23.086   2.848  51.972  1.00  0.00    -0.373 N 
HETATM    4  C12 UNL     1      22.160   1.873  52.528  1.00  0.00     0.180 C 
HETATM    5  C13 UNL     1      21.384   1.130  51.496  1.00  0.00     0.030 C 
HETATM    6  C14 UNL     1      21.274   0.988  50.175  1.00  0.00     0.079 C 
HETATM    7  N4  UNL     1      21.319   0.984  48.741  1.00  0.00    -0.291 NA
HETATM    8  C15 UNL     1      21.892   2.034  48.179  1.00  0.00     0.217 C 
HETATM    9  C16 UNL     1      22.423   3.103  48.894  1.00  0.00     0.048 C 
HETATM   10  C17 UNL     1      23.010   4.202  49.199  1.00  0.00     0.091 C 
ENDROOT
BRANCH   3  11
HETATM   11  C6  UNL     1      24.467   2.530  51.912  1.00  0.00     0.032 A 
HETATM   12  C7  UNL     1      25.486   2.742  51.008  1.00  0.00     0.032 A 
HETATM   13  C8  UNL     1      26.756   2.302  51.310  1.00  0.00     0.046 A 
HETATM   14  C9  UNL     1      27.095   1.651  52.477  1.00  0.00     0.138 A 
HETATM   15  F1  UNL     1      28.377   1.249  52.703  1.00  0.00    -0.204 F 
HETATM   16  C10 UNL     1      26.081   1.425  53.409  1.00  0.00     0.074 A 
HETATM   17 CL1  UNL     1      26.571   0.601  54.863  1.00  0.00    -0.081 Cl
HETATM   18  C11 UNL     1      24.813   1.866  53.100  1.00  0.00     0.056 A 
ENDBRANCH   3  11
BRANCH   1  19
HETATM   19  N1  UNL     1      22.739   6.215  50.447  1.00  0.00     0.096 N 
HETATM   20  C3  UNL     1      23.704   7.116  51.022  1.00  0.00     0.310 C 
BRANCH  19  21
HETATM   21  C2  UNL     1      21.462   6.459  51.015  1.00  0.00     0.268 C 
HETATM   22  C1  UNL     1      20.937   7.738  50.349  1.00  0.00     0.037 C 
ENDBRANCH  19  21
ENDBRANCH   1  19
BRANCH   5  23
HETATM   23  N3  UNL     1      20.465   0.297  52.257  1.00  0.00    -0.400 N 
HETATM   24  H17 UNL     1      19.848  -0.308  52.844  1.00  0.00     0.156 HD
HETATM   25  H18 UNL     1      19.474   0.027  52.028  1.00  0.00     0.156 HD
ENDBRANCH   5  23
BRANCH  10  26
HETATM   26  O1  UNL     1      23.503   4.880  48.135  1.00  0.00    -0.257 OA
BRANCH  26  27
HETATM   27  C18 UNL     1      22.719   5.508  47.155  1.00  0.00     0.529 C 
HETATM   28  F2  UNL     1      21.479   5.882  47.638  1.00  0.00    -0.144 F 
HETATM   29  F3  UNL     1      22.518   4.729  46.045  1.00  0.00    -0.144 F 
HETATM   30  F4  UNL     1      23.409   6.638  46.733  1.00  0.00    -0.144 F 
ENDBRANCH  26  27
ENDBRANCH  10  26
TORSDOF 6
ENDMDL
MODEL 5
REMARK VINA RESULT:      -6.1      8.637     10.635
REMARK  6 active torsions:
REMARK  status: ('A' for Active; 'I' for Inactive)
REMARK    1  A    between atoms: C2_2  and  N1_3 
REMARK    2  A    between atoms: N1_3  and  C4_5 
REMARK    3  A    between atoms: N2_7  and  C6_8 
REMARK    4  A    between atoms: C13_17  and  N3_18 
REMARK    5  A    between atoms: C17_23  and  O1_24 
REMARK    6  A    between atoms: O1_24  and  C18_25 
ROOT
HETATM    1  C4  UNL     1      31.059   7.062  47.159  1.00  0.00     0.296 C 
HETATM    2  C5  UNL     1      31.517   7.026  45.712  1.00  0.00     0.166 C 
HETATM    3  N2  UNL     1      32.722   6.245  45.548  1.00  0.00    -0.373 N 
HETATM    4  C12 UNL     1      33.408   6.567  44.306  1.00  0.00     0.180 C 
HETATM    5  C13 UNL     1      34.186   7.836  44.364  1.00  0.00     0.030 C 
HETATM    6  C14 UNL     1      34.549   8.799  45.211  1.00  0.00     0.079 C 
HETATM    7  N4  UNL     1      34.825   9.722  46.274  1.00  0.00    -0.291 NA
HETATM    8  C15 UNL     1      34.008   9.667  47.312  1.00  0.00     0.217 C 
HETATM    9  C16 UNL     1      32.930   8.791  47.406  1.00  0.00     0.048 C 
HETATM   10  C17 UNL     1      31.910   8.148  47.840  1.00  0.00     0.091 C 
ENDROOT
BRANCH   3  11
HETATM   11  C6  UNL     1      33.274   5.257  46.404  1.00  0.00     0.032 A 
HETATM   12  C7  UNL     1      34.273   5.227  47.354  1.00  0.00     0.032 A 
HETATM   13  C8  UNL     1      34.521   4.054  48.032  1.00  0.00     0.046 A 
HETATM   14  C9  UNL     1      33.830   2.878  47.829  1.00  0.00     0.138 A 
HETATM   15  F1  UNL     1      34.134   1.759  48.544  1.00  0.00    -0.204 F 
HETATM   16  C10 UNL     1      32.813   2.883  46.872  1.00  0.00     0.074 A 
HETATM   17 CL1  UNL     1      31.975   1.371  46.663  1.00  0.00    -0.081 Cl
HETATM   18  C11 UNL     1      32.571   4.060  46.197  1.00  0.00     0.056 A 
ENDBRANCH   3  11
BRANCH   1  19
HETATM   19  N1  UNL     1      29.685   7.511  47.267  1.00  0.00     0.096 N 
HETATM   20  C3  UNL     1      28.890   6.444  47.817  1.00  0.00     0.310 C 
BRANCH  19  21
HETATM   21  C2  UNL     1      29.091   7.976  46.065  1.00  0.00     0.268 C 
HETATM   22  C1  UNL     1      28.317   9.248  46.437  1.00  0.00     0.037 C 
ENDBRANCH  19  21
ENDBRANCH   1  19
BRANCH   5  23
HETATM   23  N3  UNL     1      34.697   8.014  43.014  1.00  0.00    -0.400 N 
HETATM   24  H17 UNL     1      35.014   8.120  42.024  1.00  0.00     0.156 HD
HETATM   25  H18 UNL     1      35.622   8.410  42.705  1.00  0.00     0.156 HD
ENDBRANCH   5  23
BRANCH  10  26
HETATM   26  O1  UNL     1      31.533   8.488  49.095  1.00  0.00    -0.257 OA
BRANCH  26  27
HETATM   27  C18 UNL     1      30.724   9.590  49.415  1.00  0.00     0.529 C 
HETATM   28  F2  UNL     1      29.427   9.217  49.714  1.00  0.00    -0.144 F 
HETATM   29  F3  UNL     1      30.671  10.528  48.417  1.00  0.00    -0.144 F 
HETATM   30  F4  UNL     1      31.290  10.213  50.521  1.00  0.00    -0.144 F 
ENDBRANCH  26  27
ENDBRANCH  10  26
TORSDOF 6
ENDMDL
MODEL 6
REMARK VINA RESULT:      -5.9      9.364     11.661
REMARK  6 active torsions:
REMARK  status: ('A' for Active; 'I' for Inactive)
REMARK    1  A    between atoms: C2_2  and  N1_3 
REMARK    2  A    between atoms: N1_3  and  C4_5 
REMARK    3  A    between atoms: N2_7  and  C6_8 
REMARK    4  A    between atoms: C13_17  and  N3_18 
REMARK    5  A    between atoms: C17_23  and  O1_24 
REMARK    6  A    between atoms: O1_24  and  C18_25 
ROOT
HETATM    1  C4  UNL     1      32.243   8.255  45.435  1.00  0.00     0.296 C 
HETATM    2  C5  UNL     1      32.379   6.784  45.785  1.00  0.00     0.166 C 
HETATM    3  N2  UNL     1      31.848   6.492  47.097  1.00  0.00    -0.373 N 
HETATM    4  C12 UNL     1      32.365   5.236  47.620  1.00  0.00     0.180 C 
HETATM    5  C13 UNL     1      33.752   5.338  48.156  1.00  0.00     0.030 C 
HETATM    6  C14 UNL     1      34.714   6.228  48.397  1.00  0.00     0.079 C 
HETATM    7  N4  UNL     1      35.608   7.335  48.576  1.00  0.00    -0.291 NA
HETATM    8  C15 UNL     1      35.341   8.414  47.862  1.00  0.00     0.217 C 
HETATM    9  C16 UNL     1      34.275   8.511  46.972  1.00  0.00     0.048 C 
HETATM   10  C17 UNL     1      33.427   8.959  46.120  1.00  0.00     0.091 C 
ENDROOT
BRANCH   3  11
HETATM   11  C6  UNL     1      30.932   7.240  47.882  1.00  0.00     0.032 A 
HETATM   12  C7  UNL     1      31.016   8.341  48.708  1.00  0.00     0.032 A 
HETATM   13  C8  UNL     1      29.872   8.825  49.301  1.00  0.00     0.046 A 
HETATM   14  C9  UNL     1      28.617   8.280  49.128  1.00  0.00     0.138 A 
HETATM   15  F1  UNL     1      27.531   8.821  49.749  1.00  0.00    -0.204 F 
HETATM   16  C10 UNL     1      28.506   7.165  48.296  1.00  0.00     0.074 A 
HETATM   17 CL1  UNL     1      26.897   6.524  48.115  1.00  0.00    -0.081 Cl
HETATM   18  C11 UNL     1      29.655   6.685  47.707  1.00  0.00     0.056 A 
ENDBRANCH   3  11
BRANCH   1  19
HETATM   19  N1  UNL     1      32.419   8.478  44.014  1.00  0.00     0.096 N 
HETATM   20  C3  UNL     1      31.282   9.206  43.514  1.00  0.00     0.310 C 
BRANCH  19  21
HETATM   21  C2  UNL     1      32.624   7.315  43.227  1.00  0.00     0.268 C 
HETATM   22  C1  UNL     1      33.984   7.500  42.539  1.00  0.00     0.037 C 
ENDBRANCH  19  21
ENDBRANCH   1  19
BRANCH   5  23
HETATM   23  N3  UNL     1      34.102   3.975  48.526  1.00  0.00    -0.400 N 
HETATM   24  H17 UNL     1      34.299   2.981  48.780  1.00  0.00     0.156 HD
HETATM   25  H18 UNL     1      35.032   3.595  48.841  1.00  0.00     0.156 HD
ENDBRANCH   5  23
BRANCH  10  26
HETATM   26  O1  UNL     1      33.616  10.256  45.780  1.00  0.00    -0.257 OA
BRANCH  26  27
HETATM   27  C18 UNL     1      32.922  11.339  46.340  1.00  0.00     0.529 C 
HETATM   28  F2  UNL     1      32.772  12.382  45.447  1.00  0.00    -0.144 F 
HETATM   29  F3  UNL     1      33.521  11.837  47.469  1.00  0.00    -0.144 F 
HETATM   30  F4  UNL     1      31.669  10.876  46.722  1.00  0.00    -0.144 F 
ENDBRANCH  26  27
ENDBRANCH  10  26
TORSDOF 6
ENDMDL
MODEL 7
REMARK VINA RESULT:      -5.8      3.501      6.513
REMARK  6 active torsions:
REMARK  status: ('A' for Active; 'I' for Inactive)
REMARK    1  A    between atoms: C2_2  and  N1_3 
REMARK    2  A    between atoms: N1_3  and  C4_5 
REMARK    3  A    between atoms: N2_7  and  C6_8 
REMARK    4  A    between atoms: C13_17  and  N3_18 
REMARK    5  A    between atoms: C17_23  and  O1_24 
REMARK    6  A    between atoms: O1_24  and  C18_25 
ROOT
HETATM    1  C4  UNL     1      24.209   5.889  49.556  1.00  0.00     0.296 C 
HETATM    2  C5  UNL     1      23.943   5.836  48.063  1.00  0.00     0.166 C 
HETATM    3  N2  UNL     1      22.560   6.116  47.753  1.00  0.00    -0.373 N 
HETATM    4  C12 UNL     1      22.197   5.634  46.428  1.00  0.00     0.180 C 
HETATM    5  C13 UNL     1      21.957   4.165  46.372  1.00  0.00     0.030 C 
HETATM    6  C14 UNL     1      21.892   3.088  47.155  1.00  0.00     0.079 C 
HETATM    7  N4  UNL     1      21.866   2.068  48.163  1.00  0.00    -0.291 NA
HETATM    8  C15 UNL     1      22.474   2.364  49.299  1.00  0.00     0.217 C 
HETATM    9  C16 UNL     1      23.120   3.573  49.541  1.00  0.00     0.048 C 
HETATM   10  C17 UNL     1      23.762   4.526  50.110  1.00  0.00     0.091 C 
ENDROOT
BRANCH   3  11
HETATM   11  C6  UNL     1      21.578   6.773  48.539  1.00  0.00     0.032 A 
HETATM   12  C7  UNL     1      20.590   6.371  49.413  1.00  0.00     0.032 A 
HETATM   13  C8  UNL     1      19.819   7.325  50.040  1.00  0.00     0.046 A 
HETATM   14  C9  UNL     1      19.965   8.684  49.858  1.00  0.00     0.138 A 
HETATM   15  F1  UNL     1      19.163   9.565  50.520  1.00  0.00    -0.204 F 
HETATM   16  C10 UNL     1      20.959   9.116  48.978  1.00  0.00     0.074 A 
HETATM   17 CL1  UNL     1      21.095  10.841  48.793  1.00  0.00    -0.081 Cl
HETATM   18  C11 UNL     1      21.725   8.156  48.354  1.00  0.00     0.056 A 
ENDBRANCH   3  11
BRANCH   1  19
HETATM   19  N1  UNL     1      25.628   5.984  49.837  1.00  0.00     0.096 N 
HETATM   20  C3  UNL     1      26.017   7.369  49.800  1.00  0.00     0.310 C 
BRANCH  19  21
HETATM   21  C2  UNL     1      26.478   5.227  48.989  1.00  0.00     0.268 C 
HETATM   22  C1  UNL     1      27.540   6.205  48.468  1.00  0.00     0.037 C 
ENDBRANCH  19  21
ENDBRANCH   1  19
BRANCH   5  23
HETATM   23  N3  UNL     1      21.713   3.887  44.965  1.00  0.00    -0.400 N 
HETATM   24  H17 UNL     1      21.483   3.672  43.969  1.00  0.00     0.156 HD
HETATM   25  H18 UNL     1      22.368   3.991  44.148  1.00  0.00     0.156 HD
ENDBRANCH   5  23
BRANCH  10  26
HETATM   26  O1  UNL     1      24.091   4.278  51.400  1.00  0.00    -0.257 OA
BRANCH  26  27
HETATM   27  C18 UNL     1      23.188   4.299  52.473  1.00  0.00     0.529 C 
HETATM   28  F2  UNL     1      22.674   3.045  52.748  1.00  0.00    -0.144 F 
HETATM   29  F3  UNL     1      22.131   5.149  52.273  1.00  0.00    -0.144 F 
HETATM   30  F4  UNL     1      23.875   4.768  53.586  1.00  0.00    -0.144 F 
ENDBRANCH  26  27
ENDBRANCH  10  26
TORSDOF 6
ENDMDL
MODEL 8
REMARK VINA RESULT:      -5.8      8.848     11.375
REMARK  6 active torsions:
REMARK  status: ('A' for Active; 'I' for Inactive)
REMARK    1  A    between atoms: C2_2  and  N1_3 
REMARK    2  A    between atoms: N1_3  and  C4_5 
REMARK    3  A    between atoms: N2_7  and  C6_8 
REMARK    4  A    between atoms: C13_17  and  N3_18 
REMARK    5  A    between atoms: C17_23  and  O1_24 
REMARK    6  A    between atoms: O1_24  and  C18_25 
ROOT
HETATM    1  C4  UNL     1      31.058   9.787  47.158  1.00  0.00     0.296 C 
HETATM    2  C5  UNL     1      32.549   9.913  47.412  1.00  0.00     0.166 C 
HETATM    3  N2  UNL     1      33.320   9.099  46.500  1.00  0.00    -0.373 N 
HETATM    4  C12 UNL     1      34.664   8.853  47.002  1.00  0.00     0.180 C 
HETATM    5  C13 UNL     1      34.724   7.803  48.057  1.00  0.00     0.030 C 
HETATM    6  C14 UNL     1      33.956   6.919  48.694  1.00  0.00     0.079 C 
HETATM    7  N4  UNL     1      32.965   6.045  49.252  1.00  0.00    -0.291 NA
HETATM    8  C15 UNL     1      31.707   6.412  49.079  1.00  0.00     0.217 C 
HETATM    9  C16 UNL     1      31.323   7.571  48.411  1.00  0.00     0.048 C 
HETATM   10  C17 UNL     1      30.620   8.495  47.867  1.00  0.00     0.091 C 
ENDROOT
BRANCH   3  11
HETATM   11  C6  UNL     1      32.944   8.554  45.245  1.00  0.00     0.032 A 
HETATM   12  C7  UNL     1      32.495   9.066  44.046  1.00  0.00     0.032 A 
HETATM   13  C8  UNL     1      32.250   8.208  42.997  1.00  0.00     0.046 A 
HETATM   14  C9  UNL     1      32.426   6.841  43.056  1.00  0.00     0.138 A 
HETATM   15  F1  UNL     1      32.164   6.059  41.971  1.00  0.00    -0.204 F 
HETATM   16  C10 UNL     1      32.880   6.298  44.259  1.00  0.00     0.074 A 
HETATM   17 CL1  UNL     1      33.084   4.569  44.269  1.00  0.00    -0.081 Cl
HETATM   18  C11 UNL     1      33.122   7.163  45.303  1.00  0.00     0.056 A 
ENDBRANCH   3  11
BRANCH   1  19
HETATM   19  N1  UNL     1      30.321  10.859  47.798  1.00  0.00     0.096 N 
HETATM   20  C3  UNL     1      30.287  11.993  46.911  1.00  0.00     0.310 C 
BRANCH  19  21
HETATM   21  C2  UNL     1      30.800  11.264  49.070  1.00  0.00     0.268 C 
HETATM   22  C1  UNL     1      30.422  12.745  49.217  1.00  0.00     0.037 C 
ENDBRANCH  19  21
ENDBRANCH   1  19
BRANCH   5  23
HETATM   23  N3  UNL     1      36.115   7.789  48.482  1.00  0.00    -0.400 N 
HETATM   24  H17 UNL     1      37.127   7.815  48.742  1.00  0.00     0.156 HD
HETATM   25  H18 UNL     1      36.551   7.290  49.299  1.00  0.00     0.156 HD
ENDBRANCH   5  23
BRANCH  10  26
HETATM   26  O1  UNL     1      29.283   8.287  47.937  1.00  0.00    -0.257 OA
BRANCH  26  27
HETATM   27  C18 UNL     1      28.565   7.416  47.104  1.00  0.00     0.529 C 
HETATM   28  F2  UNL     1      27.231   7.765  47.008  1.00  0.00    -0.144 F 
HETATM   29  F3  UNL     1      28.628   6.108  47.510  1.00  0.00    -0.144 F 
HETATM   30  F4  UNL     1      29.148   7.472  45.844  1.00  0.00    -0.144 F 
ENDBRANCH  26  27
ENDBRANCH  10  26
TORSDOF 6
ENDMDL
MODEL 9
REMARK VINA RESULT:      -5.7      9.194     11.201
REMARK  6 active torsions:
REMARK  status: ('A' for Active; 'I' for Inactive)
REMARK    1  A    between atoms: C2_2  and  N1_3 
REMARK    2  A    between atoms: N1_3  and  C4_5 
REMARK    3  A    between atoms: N2_7  and  C6_8 
REMARK    4  A    between atoms: C13_17  and  N3_18 
REMARK    5  A    between atoms: C17_23  and  O1_24 
REMARK    6  A    between atoms: O1_24  and  C18_25 
ROOT
HETATM    1  C4  UNL     1      30.921   8.174  46.697  1.00  0.00     0.296 C 
HETATM    2  C5  UNL     1      31.479   7.738  45.354  1.00  0.00     0.166 C 
HETATM    3  N2  UNL     1      32.906   7.517  45.411  1.00  0.00    -0.373 N 
HETATM    4  C12 UNL     1      33.509   7.549  44.087  1.00  0.00     0.180 C 
HETATM    5  C13 UNL     1      33.699   8.926  43.551  1.00  0.00     0.030 C 
HETATM    6  C14 UNL     1      33.565  10.207  43.895  1.00  0.00     0.079 C 
HETATM    7  N4  UNL     1      33.350  11.508  44.459  1.00  0.00    -0.291 NA
HETATM    8  C15 UNL     1      32.538  11.559  45.500  1.00  0.00     0.217 C 
HETATM    9  C16 UNL     1      31.903  10.445  46.043  1.00  0.00     0.048 C 
HETATM   10  C17 UNL     1      31.196   9.683  46.795  1.00  0.00     0.091 C 
ENDROOT
BRANCH   3  11
HETATM   11  C6  UNL     1      33.734   7.279  46.539  1.00  0.00     0.032 A 
HETATM   12  C7  UNL     1      34.382   8.069  47.465  1.00  0.00     0.032 A 
HETATM   13  C8  UNL     1      35.097   7.468  48.478  1.00  0.00     0.046 A 
HETATM   14  C9  UNL     1      35.215   6.104  48.641  1.00  0.00     0.138 A 
HETATM   15  F1  UNL     1      35.939   5.587  49.673  1.00  0.00    -0.204 F 
HETATM   16  C10 UNL     1      34.567   5.283  47.716  1.00  0.00     0.074 A 
HETATM   17 CL1  UNL     1      34.751   3.572  47.977  1.00  0.00    -0.081 Cl
HETATM   18  C11 UNL     1      33.855   5.891  46.706  1.00  0.00     0.056 A 
ENDBRANCH   3  11
BRANCH   1  19
HETATM   19  N1  UNL     1      29.478   8.031  46.741  1.00  0.00     0.096 N 
HETATM   20  C3  UNL     1      29.155   6.783  47.382  1.00  0.00     0.310 C 
BRANCH  19  21
HETATM   21  C2  UNL     1      28.811   8.112  45.491  1.00  0.00     0.268 C 
HETATM   22  C1  UNL     1      27.375   8.555  45.802  1.00  0.00     0.037 C 
ENDBRANCH  19  21
ENDBRANCH   1  19
BRANCH   5  23
HETATM   23  N3  UNL     1      34.211   8.727  42.204  1.00  0.00    -0.400 N 
HETATM   24  H17 UNL     1      34.540   8.625  41.218  1.00  0.00     0.156 HD
HETATM   25  H18 UNL     1      34.962   8.069  41.873  1.00  0.00     0.156 HD
ENDBRANCH   5  23
BRANCH  10  26
HETATM   26  O1  UNL     1      30.605  10.323  47.832  1.00  0.00    -0.257 OA
BRANCH  26  27
HETATM   27  C18 UNL     1      30.775   9.982  49.182  1.00  0.00     0.529 C 
HETATM   28  F2  UNL     1      29.672   9.330  49.700  1.00  0.00    -0.144 F 
HETATM   29  F3  UNL     1      31.034  11.065  49.983  1.00  0.00    -0.144 F 
HETATM   30  F4  UNL     1      31.883   9.149  49.264  1.00  0.00    -0.144 F 
ENDBRANCH  26  27
ENDBRANCH  10  26
TORSDOF 6
ENDMDL
