MODEL 1
REMARK VINA RESULT:      -7.8      0.000      0.000
REMARK  8 active torsions:
REMARK  status: ('A' for Active; 'I' for Inactive)
REMARK    1  A    between atoms: C2_2  and  C3_3 
REMARK    2  A    between atoms: C2_2  and  S1_22 
REMARK    3  A    between atoms: C4_4  and  N1_5 
REMARK    4  A    between atoms: C4_4  and  C5_6 
REMARK    5  A    between atoms: C5_6  and  O1_7 
REMARK    6  A    between atoms: O1_7  and  C6_8 
REMARK    7  A    between atoms: C8_10  and  N2_11 
REMARK    8  A    between atoms: N2_11  and  C9_12 
ROOT
HETATM    1  C6  UNL     1      27.598   1.595  52.918  1.00  0.00     0.169 A 
HETATM    2  C7  UNL     1      26.472   0.873  53.260  1.00  0.00     0.108 A 
HETATM    3  C8  UNL     1      26.385  -0.069  54.251  1.00  0.00     0.133 A 
HETATM    4  N3  UNL     1      27.531  -0.261  54.911  1.00  0.00    -0.224 NA
HETATM    5  C15 UNL     1      28.668   0.397  54.644  1.00  0.00     0.238 A 
HETATM    6  N4  UNL     1      28.713   1.329  53.647  1.00  0.00    -0.218 NA
ENDROOT
BRANCH   1   7
HETATM    7  O1  UNL     1      27.580   2.530  51.893  1.00  0.00    -0.329 OA
BRANCH   7   8
HETATM    8  C5  UNL     1      26.579   2.397  50.914  1.00  0.00     0.227 C 
BRANCH   8   9
HETATM    9  C4  UNL     1      25.583   3.481  50.909  1.00  0.00     0.009 C 
HETATM   10  C3  UNL     1      24.366   3.372  51.407  1.00  0.00     0.043 C 
BRANCH  10  11
HETATM   11  C2  UNL     1      23.299   4.356  51.466  1.00  0.00     0.051 C 
HETATM   12  C1  UNL     1      22.286   4.120  52.321  1.00  0.00     0.036 C 
BRANCH  11  13
HETATM   13  S1  UNL     1      23.165   5.836  50.553  1.00  0.00     0.171 S 
HETATM   14  C16 UNL     1      23.236   5.500  48.796  1.00  0.00     0.167 C 
HETATM   15  O2  UNL     1      24.383   6.692  50.860  1.00  0.00    -0.223 OA
HETATM   16  O3  UNL     1      21.948   6.619  50.896  1.00  0.00    -0.223 OA
ENDBRANCH  11  13
ENDBRANCH  10  11
BRANCH   9  17
HETATM   17  N1  UNL     1      26.354   4.507  50.258  1.00  0.00    -0.304 NA
HETATM   18  H4  UNL     1      25.756   5.350  50.060  1.00  0.00     0.124 HD
HETATM   19  H5  UNL     1      25.800   5.387  50.031  1.00  0.00     0.124 HD
ENDBRANCH   9  17
ENDBRANCH   8   9
ENDBRANCH   7   8
ENDBRANCH   1   7
BRANCH   3  20
HETATM   20  N2  UNL     1      25.264  -0.805  54.632  1.00  0.00    -0.341 N 
HETATM   21  H9  UNL     1      25.411  -1.582  55.347  1.00  0.00     0.167 HD
BRANCH  20  22
HETATM   22  C9  UNL     1      23.903  -0.786  54.297  1.00  0.00     0.034 A 
HETATM   23  C10 UNL     1      22.893  -1.293  55.121  1.00  0.00     0.029 A 
HETATM   24  C11 UNL     1      21.556  -1.262  54.805  1.00  0.00     0.004 A 
HETATM   25  C12 UNL     1      21.141  -0.713  53.630  1.00  0.00     0.019 A 
HETATM   26  C13 UNL     1      22.086  -0.194  52.770  1.00  0.00     0.013 A 
HETATM   27 BR1  UNL     1      21.443   0.560  51.144  1.00  0.00    -0.051 Br
HETATM   28  C14 UNL     1      23.406  -0.250  53.134  1.00  0.00     0.048 A 
ENDBRANCH  20  22
ENDBRANCH   3  20
TORSDOF 8
ENDMDL
MODEL 2
REMARK VINA RESULT:      -7.7      1.695      2.227
REMARK  8 active torsions:
REMARK  status: ('A' for Active; 'I' for Inactive)
REMARK    1  A    between atoms: C2_2  and  C3_3 
REMARK    2  A    between atoms: C2_2  and  S1_22 
REMARK    3  A    between atoms: C4_4  and  N1_5 
REMARK    4  A    between atoms: C4_4  and  C5_6 
REMARK    5  A    between atoms: C5_6  and  O1_7 
REMARK    6  A    between atoms: O1_7  and  C6_8 
REMARK    7  A    between atoms: C8_10  and  N2_11 
REMARK    8  A    between atoms: N2_11  and  C9_12 
ROOT
HETATM    1  C6  UNL     1      27.482   1.506  52.821  1.00  0.00     0.169 A 
HETATM    2  C7  UNL     1      26.338   0.797  53.127  1.00  0.00     0.108 A 
HETATM    3  C8  UNL     1      26.178  -0.069  54.176  1.00  0.00     0.133 A 
HETATM    4  N3  UNL     1      27.270  -0.197  54.937  1.00  0.00    -0.224 NA
HETATM    5  C15 UNL     1      28.420   0.454  54.711  1.00  0.00     0.238 A 
HETATM    6  N4  UNL     1      28.538   1.310  53.653  1.00  0.00    -0.218 NA
ENDROOT
BRANCH   1   7
HETATM    7  O1  UNL     1      27.539   2.362  51.730  1.00  0.00    -0.329 OA
BRANCH   7   8
HETATM    8  C5  UNL     1      26.383   2.477  50.937  1.00  0.00     0.227 C 
BRANCH   8   9
HETATM    9  C4  UNL     1      26.159   3.820  50.378  1.00  0.00     0.009 C 
HETATM   10  C3  UNL     1      26.874   4.346  49.402  1.00  0.00     0.043 C 
BRANCH  10  11
HETATM   11  C2  UNL     1      26.755   5.646  48.764  1.00  0.00     0.051 C 
HETATM   12  C1  UNL     1      27.873   6.183  48.241  1.00  0.00     0.036 C 
BRANCH  11  13
HETATM   13  S1  UNL     1      25.315   6.614  48.584  1.00  0.00     0.171 S 
HETATM   14  C16 UNL     1      25.484   7.745  47.207  1.00  0.00     0.167 C 
HETATM   15  O2  UNL     1      25.175   7.485  49.822  1.00  0.00    -0.223 OA
HETATM   16  O3  UNL     1      24.081   5.794  48.451  1.00  0.00    -0.223 OA
ENDBRANCH  11  13
ENDBRANCH  10  11
BRANCH   9  17
HETATM   17  N1  UNL     1      25.044   4.230  51.190  1.00  0.00    -0.304 NA
HETATM   18  H4  UNL     1      25.317   5.034  51.814  1.00  0.00     0.124 HD
HETATM   19  H5  UNL     1      25.261   5.042  51.844  1.00  0.00     0.124 HD
ENDBRANCH   9  17
ENDBRANCH   8   9
ENDBRANCH   7   8
ENDBRANCH   1   7
BRANCH   3  20
HETATM   20  N2  UNL     1      25.037  -0.789  54.522  1.00  0.00    -0.341 N 
HETATM   21  H9  UNL     1      25.157  -1.596  55.208  1.00  0.00     0.167 HD
BRANCH  20  22
HETATM   22  C9  UNL     1      23.679  -0.722  54.179  1.00  0.00     0.034 A 
HETATM   23  C10 UNL     1      22.642  -1.133  55.024  1.00  0.00     0.029 A 
HETATM   24  C11 UNL     1      21.310  -1.054  54.700  1.00  0.00     0.004 A 
HETATM   25  C12 UNL     1      20.926  -0.550  53.495  1.00  0.00     0.019 A 
HETATM   26  C13 UNL     1      21.897  -0.125  52.613  1.00  0.00     0.013 A 
HETATM   27 BR1  UNL     1      21.296   0.570  50.945  1.00  0.00    -0.051 Br
HETATM   28  C14 UNL     1      23.211  -0.226  52.986  1.00  0.00     0.048 A 
ENDBRANCH  20  22
ENDBRANCH   3  20
TORSDOF 8
ENDMDL
MODEL 3
REMARK VINA RESULT:      -7.6      5.156      9.188
REMARK  8 active torsions:
REMARK  status: ('A' for Active; 'I' for Inactive)
REMARK    1  A    between atoms: C2_2  and  C3_3 
REMARK    2  A    between atoms: C2_2  and  S1_22 
REMARK    3  A    between atoms: C4_4  and  N1_5 
REMARK    4  A    between atoms: C4_4  and  C5_6 
REMARK    5  A    between atoms: C5_6  and  O1_7 
REMARK    6  A    between atoms: O1_7  and  C6_8 
REMARK    7  A    between atoms: C8_10  and  N2_11 
REMARK    8  A    between atoms: N2_11  and  C9_12 
ROOT
HETATM    1  C6  UNL     1      26.572   4.586  49.115  1.00  0.00     0.169 A 
HETATM    2  C7  UNL     1      27.800   4.899  48.569  1.00  0.00     0.108 A 
HETATM    3  C8  UNL     1      28.243   6.151  48.236  1.00  0.00     0.133 A 
HETATM    4  N3  UNL     1      27.355   7.118  48.486  1.00  0.00    -0.224 NA
HETATM    5  C15 UNL     1      26.142   6.902  49.015  1.00  0.00     0.238 A 
HETATM    6  N4  UNL     1      25.739   5.637  49.333  1.00  0.00    -0.218 NA
ENDROOT
BRANCH   1   7
HETATM    7  O1  UNL     1      26.220   3.278  49.417  1.00  0.00    -0.329 OA
BRANCH   7   8
HETATM    8  C5  UNL     1      25.675   3.033  50.690  1.00  0.00     0.227 C 
BRANCH   8   9
HETATM    9  C4  UNL     1      26.492   2.155  51.544  1.00  0.00     0.009 C 
HETATM   10  C3  UNL     1      26.142   0.935  51.904  1.00  0.00     0.043 C 
BRANCH  10  11
HETATM   11  C2  UNL     1      26.851  -0.026  52.732  1.00  0.00     0.051 C 
HETATM   12  C1  UNL     1      26.711  -1.329  52.426  1.00  0.00     0.036 C 
BRANCH  11  13
HETATM   13  S1  UNL     1      27.883   0.307  54.098  1.00  0.00     0.171 S 
HETATM   14  C16 UNL     1      29.532  -0.327  53.811  1.00  0.00     0.167 C 
HETATM   15  O2  UNL     1      27.346  -0.463  55.294  1.00  0.00    -0.223 OA
HETATM   16  O3  UNL     1      27.921   1.751  54.455  1.00  0.00    -0.223 OA
ENDBRANCH  11  13
ENDBRANCH  10  11
BRANCH   9  17
HETATM   17  N1  UNL     1      27.614   3.027  51.773  1.00  0.00    -0.304 NA
HETATM   18  H4  UNL     1      28.331   2.555  52.383  1.00  0.00     0.124 HD
HETATM   19  H5  UNL     1      28.374   2.603  52.386  1.00  0.00     0.124 HD
ENDBRANCH   9  17
ENDBRANCH   8   9
ENDBRANCH   7   8
ENDBRANCH   1   7
BRANCH   3  20
HETATM   20  N2  UNL     1      29.479   6.504  47.698  1.00  0.00    -0.341 N 
HETATM   21  H9  UNL     1      29.493   7.296  46.985  1.00  0.00     0.167 HD
BRANCH  20  22
HETATM   22  C9  UNL     1      30.798   6.058  47.864  1.00  0.00     0.034 A 
HETATM   23  C10 UNL     1      31.821   6.842  48.407  1.00  0.00     0.029 A 
HETATM   24  C11 UNL     1      33.111   6.405  48.587  1.00  0.00     0.004 A 
HETATM   25  C12 UNL     1      33.462   5.138  48.233  1.00  0.00     0.019 A 
HETATM   26  C13 UNL     1      32.500   4.310  47.693  1.00  0.00     0.013 A 
HETATM   27 BR1  UNL     1      33.054   2.551  47.218  1.00  0.00    -0.051 Br
HETATM   28  C14 UNL     1      31.230   4.796  47.534  1.00  0.00     0.048 A 
ENDBRANCH  20  22
ENDBRANCH   3  20
TORSDOF 8
ENDMDL
MODEL 4
REMARK VINA RESULT:      -7.3      3.136      5.690
REMARK  8 active torsions:
REMARK  status: ('A' for Active; 'I' for Inactive)
REMARK    1  A    between atoms: C2_2  and  C3_3 
REMARK    2  A    between atoms: C2_2  and  S1_22 
REMARK    3  A    between atoms: C4_4  and  N1_5 
REMARK    4  A    between atoms: C4_4  and  C5_6 
REMARK    5  A    between atoms: C5_6  and  O1_7 
REMARK    6  A    between atoms: O1_7  and  C6_8 
REMARK    7  A    between atoms: C8_10  and  N2_11 
REMARK    8  A    between atoms: N2_11  and  C9_12 
ROOT
HETATM    1  C6  UNL     1      24.181   3.648  50.707  1.00  0.00     0.169 A 
HETATM    2  C7  UNL     1      23.040   3.103  51.260  1.00  0.00     0.108 A 
HETATM    3  C8  UNL     1      22.050   3.789  51.913  1.00  0.00     0.133 A 
HETATM    4  N3  UNL     1      22.270   5.105  51.989  1.00  0.00    -0.224 NA
HETATM    5  C15 UNL     1      23.350   5.715  51.479  1.00  0.00     0.238 A 
HETATM    6  N4  UNL     1      24.315   4.994  50.835  1.00  0.00    -0.218 NA
ENDROOT
BRANCH   1   7
HETATM    7  O1  UNL     1      25.126   2.861  50.064  1.00  0.00    -0.329 OA
BRANCH   7   8
HETATM    8  C5  UNL     1      26.459   2.962  50.502  1.00  0.00     0.227 C 
BRANCH   8   9
HETATM    9  C4  UNL     1      26.818   2.031  51.583  1.00  0.00     0.009 C 
HETATM   10  C3  UNL     1      26.263   0.846  51.757  1.00  0.00     0.043 C 
BRANCH  10  11
HETATM   11  C2  UNL     1      26.526  -0.160  52.772  1.00  0.00     0.051 C 
HETATM   12  C1  UNL     1      26.729  -1.423  52.353  1.00  0.00     0.036 C 
BRANCH  11  13
HETATM   13  S1  UNL     1      26.617   0.070  54.498  1.00  0.00     0.171 S 
HETATM   14  C16 UNL     1      25.248  -0.744  55.315  1.00  0.00     0.167 C 
HETATM   15  O2  UNL     1      26.449   1.554  54.786  1.00  0.00    -0.223 OA
HETATM   16  O3  UNL     1      27.917  -0.370  55.072  1.00  0.00    -0.223 OA
ENDBRANCH  11  13
ENDBRANCH  10  11
BRANCH   9  17
HETATM   17  N1  UNL     1      27.834   2.811  52.239  1.00  0.00    -0.304 NA
HETATM   18  H4  UNL     1      28.181   2.317  53.102  1.00  0.00     0.124 HD
HETATM   19  H5  UNL     1      28.224   2.360  53.121  1.00  0.00     0.124 HD
ENDBRANCH   9  17
ENDBRANCH   8   9
ENDBRANCH   7   8
ENDBRANCH   1   7
BRANCH   3  20
HETATM   20  N2  UNL     1      20.880   3.276  52.470  1.00  0.00    -0.341 N 
HETATM   21  H9  UNL     1      20.269   3.947  53.028  1.00  0.00     0.167 HD
BRANCH  20  22
HETATM   22  C9  UNL     1      20.256   2.020  52.485  1.00  0.00     0.034 A 
HETATM   23  C10 UNL     1      20.574   1.005  53.394  1.00  0.00     0.029 A 
HETATM   24  C11 UNL     1      19.954  -0.220  53.424  1.00  0.00     0.004 A 
HETATM   25  C12 UNL     1      18.964  -0.511  52.536  1.00  0.00     0.019 A 
HETATM   26  C13 UNL     1      18.600   0.446  51.612  1.00  0.00     0.013 A 
HETATM   27 BR1  UNL     1      17.208  -0.020  50.398  1.00  0.00    -0.051 Br
HETATM   28  C14 UNL     1      19.250   1.652  51.625  1.00  0.00     0.048 A 
ENDBRANCH  20  22
ENDBRANCH   3  20
TORSDOF 8
ENDMDL
MODEL 5
REMARK VINA RESULT:      -7.3      5.450      7.950
REMARK  8 active torsions:
REMARK  status: ('A' for Active; 'I' for Inactive)
REMARK    1  A    between atoms: C2_2  and  C3_3 
REMARK    2  A    between atoms: C2_2  and  S1_22 
REMARK    3  A    between atoms: C4_4  and  N1_5 
REMARK    4  A    between atoms: C4_4  and  C5_6 
REMARK    5  A    between atoms: C5_6  and  O1_7 
REMARK    6  A    between atoms: O1_7  and  C6_8 
REMARK    7  A    between atoms: C8_10  and  N2_11 
REMARK    8  A    between atoms: N2_11  and  C9_12 
ROOT
HETATM    1  C6  UNL     1      27.776   6.079  48.521  1.00  0.00     0.169 A 
HETATM    2  C7  UNL     1      27.093   4.916  48.815  1.00  0.00     0.108 A 
HETATM    3  C8  UNL     1      25.931   4.819  49.532  1.00  0.00     0.133 A 
HETATM    4  N3  UNL     1      25.465   5.996  49.961  1.00  0.00    -0.224 NA
HETATM    5  C15 UNL     1      26.065   7.172  49.720  1.00  0.00     0.238 A 
HETATM    6  N4  UNL     1      27.224   7.224  49.000  1.00  0.00    -0.218 NA
ENDROOT
BRANCH   1   7
HETATM    7  O1  UNL     1      28.952   6.067  47.783  1.00  0.00    -0.329 OA
BRANCH   7   8
HETATM    8  C5  UNL     1      30.133   6.449  48.443  1.00  0.00     0.227 C 
BRANCH   8   9
HETATM    9  C4  UNL     1      31.211   5.448  48.393  1.00  0.00     0.009 C 
HETATM   10  C3  UNL     1      31.644   4.879  47.284  1.00  0.00     0.043 C 
BRANCH  10  11
HETATM   11  C2  UNL     1      32.691   3.889  47.100  1.00  0.00     0.051 C 
HETATM   12  C1  UNL     1      32.314   2.652  46.723  1.00  0.00     0.036 C 
BRANCH  11  13
HETATM   13  S1  UNL     1      34.409   4.107  47.306  1.00  0.00     0.171 S 
HETATM   14  C16 UNL     1      34.772   5.780  47.830  1.00  0.00     0.167 C 
HETATM   15  O2  UNL     1      35.072   3.946  45.947  1.00  0.00    -0.223 OA
HETATM   16  O3  UNL     1      35.010   3.114  48.237  1.00  0.00    -0.223 OA
ENDBRANCH  11  13
ENDBRANCH  10  11
BRANCH   9  17
HETATM   17  N1  UNL     1      31.527   5.372  49.795  1.00  0.00    -0.304 NA
HETATM   18  H4  UNL     1      32.434   5.867  49.997  1.00  0.00     0.124 HD
HETATM   19  H5  UNL     1      32.437   5.857  50.060  1.00  0.00     0.124 HD
ENDBRANCH   9  17
ENDBRANCH   8   9
ENDBRANCH   7   8
ENDBRANCH   1   7
BRANCH   3  20
HETATM   20  N2  UNL     1      25.208   3.667  49.835  1.00  0.00    -0.341 N 
HETATM   21  H9  UNL     1      24.331   3.475  49.261  1.00  0.00     0.167 HD
BRANCH  20  22
HETATM   22  C9  UNL     1      25.347   2.623  50.762  1.00  0.00     0.034 A 
HETATM   23  C10 UNL     1      26.578   2.078  51.139  1.00  0.00     0.029 A 
HETATM   24  C11 UNL     1      26.721   1.067  52.058  1.00  0.00     0.004 A 
HETATM   25  C12 UNL     1      25.626   0.534  52.667  1.00  0.00     0.019 A 
HETATM   26  C13 UNL     1      24.380   1.026  52.342  1.00  0.00     0.013 A 
HETATM   27 BR1  UNL     1      22.889   0.239  53.228  1.00  0.00    -0.051 Br
HETATM   28  C14 UNL     1      24.293   2.035  51.418  1.00  0.00     0.048 A 
ENDBRANCH  20  22
ENDBRANCH   3  20
TORSDOF 8
ENDMDL
MODEL 6
REMARK VINA RESULT:      -7.3      3.833      4.841
REMARK  8 active torsions:
REMARK  status: ('A' for Active; 'I' for Inactive)
REMARK    1  A    between atoms: C2_2  and  C3_3 
REMARK    2  A    between atoms: C2_2  and  S1_22 
REMARK    3  A    between atoms: C4_4  and  N1_5 
REMARK    4  A    between atoms: C4_4  and  C5_6 
REMARK    5  A    between atoms: C5_6  and  O1_7 
REMARK    6  A    between atoms: O1_7  and  C6_8 
REMARK    7  A    between atoms: C8_10  and  N2_11 
REMARK    8  A    between atoms: N2_11  and  C9_12 
ROOT
HETATM    1  C6  UNL     1      26.503   2.731  50.937  1.00  0.00     0.169 A 
HETATM    2  C7  UNL     1      25.181   2.545  51.285  1.00  0.00     0.108 A 
HETATM    3  C8  UNL     1      24.718   2.092  52.491  1.00  0.00     0.133 A 
HETATM    4  N3  UNL     1      25.687   1.821  53.371  1.00  0.00    -0.224 NA
HETATM    5  C15 UNL     1      26.994   1.974  53.115  1.00  0.00     0.238 A 
HETATM    6  N4  UNL     1      27.415   2.429  51.898  1.00  0.00    -0.218 NA
ENDROOT
BRANCH   1   7
HETATM    7  O1  UNL     1      26.868   3.198  49.681  1.00  0.00    -0.329 OA
BRANCH   7   8
HETATM    8  C5  UNL     1      26.299   4.410  49.252  1.00  0.00     0.227 C 
BRANCH   8   9
HETATM    9  C4  UNL     1      27.273   5.483  48.994  1.00  0.00     0.009 C 
HETATM   10  C3  UNL     1      28.400   5.318  48.329  1.00  0.00     0.043 C 
BRANCH  10  11
HETATM   11  C2  UNL     1      29.436   6.285  48.007  1.00  0.00     0.051 C 
HETATM   12  C1  UNL     1      29.140   7.227  47.092  1.00  0.00     0.036 C 
BRANCH  11  13
HETATM   13  S1  UNL     1      31.044   6.381  48.673  1.00  0.00     0.171 S 
HETATM   14  C16 UNL     1      31.348   8.007  49.356  1.00  0.00     0.167 C 
HETATM   15  O2  UNL     1      32.038   6.217  47.534  1.00  0.00    -0.223 OA
HETATM   16  O3  UNL     1      31.316   5.321  49.681  1.00  0.00    -0.223 OA
ENDBRANCH  11  13
ENDBRANCH  10  11
BRANCH   9  17
HETATM   17  N1  UNL     1      26.600   6.575  49.648  1.00  0.00    -0.304 NA
HETATM   18  H4  UNL     1      26.564   6.417  50.689  1.00  0.00     0.124 HD
HETATM   19  H5  UNL     1      26.532   6.470  50.706  1.00  0.00     0.124 HD
ENDBRANCH   9  17
ENDBRANCH   8   9
ENDBRANCH   7   8
ENDBRANCH   1   7
BRANCH   3  20
HETATM   20  N2  UNL     1      23.393   1.906  52.882  1.00  0.00    -0.341 N 
HETATM   21  H9  UNL     1      22.764   2.766  52.903  1.00  0.00     0.167 HD
BRANCH  20  22
HETATM   22  C9  UNL     1      22.620   0.805  53.278  1.00  0.00     0.034 A 
HETATM   23  C10 UNL     1      23.105  -0.239  54.073  1.00  0.00     0.029 A 
HETATM   24  C11 UNL     1      22.349  -1.311  54.478  1.00  0.00     0.004 A 
HETATM   25  C12 UNL     1      21.041  -1.407  54.110  1.00  0.00     0.019 A 
HETATM   26  C13 UNL     1      20.498  -0.410  53.327  1.00  0.00     0.013 A 
HETATM   27 BR1  UNL     1      18.665  -0.602  52.847  1.00  0.00    -0.051 Br
HETATM   28  C14 UNL     1      21.297   0.637  52.950  1.00  0.00     0.048 A 
ENDBRANCH  20  22
ENDBRANCH   3  20
TORSDOF 8
ENDMDL
MODEL 7
REMARK VINA RESULT:      -7.2      3.406      6.027
REMARK  8 active torsions:
REMARK  status: ('A' for Active; 'I' for Inactive)
REMARK    1  A    between atoms: C2_2  and  C3_3 
REMARK    2  A    between atoms: C2_2  and  S1_22 
REMARK    3  A    between atoms: C4_4  and  N1_5 
REMARK    4  A    between atoms: C4_4  and  C5_6 
REMARK    5  A    between atoms: C5_6  and  O1_7 
REMARK    6  A    between atoms: O1_7  and  C6_8 
REMARK    7  A    between atoms: C8_10  and  N2_11 
REMARK    8  A    between atoms: N2_11  and  C9_12 
ROOT
HETATM    1  C6  UNL     1      23.390   2.907  49.611  1.00  0.00     0.169 A 
HETATM    2  C7  UNL     1      22.298   2.421  50.300  1.00  0.00     0.108 A 
HETATM    3  C8  UNL     1      21.214   1.787  49.755  1.00  0.00     0.133 A 
HETATM    4  N3  UNL     1      21.278   1.661  48.426  1.00  0.00    -0.224 NA
HETATM    5  C15 UNL     1      22.302   2.104  47.681  1.00  0.00     0.238 A 
HETATM    6  N4  UNL     1      23.365   2.731  48.265  1.00  0.00    -0.218 NA
ENDROOT
BRANCH   1   7
HETATM    7  O1  UNL     1      24.442   3.536  50.263  1.00  0.00    -0.329 OA
BRANCH   7   8
HETATM    8  C5  UNL     1      24.657   3.205  51.613  1.00  0.00     0.227 C 
BRANCH   8   9
HETATM    9  C4  UNL     1      25.825   2.342  51.851  1.00  0.00     0.009 C 
HETATM   10  C3  UNL     1      25.776   1.185  52.484  1.00  0.00     0.043 C 
BRANCH  10  11
HETATM   11  C2  UNL     1      26.843   0.245  52.779  1.00  0.00     0.051 C 
HETATM   12  C1  UNL     1      26.669  -1.032  52.390  1.00  0.00     0.036 C 
BRANCH  11  13
HETATM   13  S1  UNL     1      28.353   0.572  53.589  1.00  0.00     0.171 S 
HETATM   14  C16 UNL     1      29.441  -0.846  53.488  1.00  0.00     0.167 C 
HETATM   15  O2  UNL     1      28.062   0.767  55.069  1.00  0.00    -0.223 OA
HETATM   16  O3  UNL     1      29.026   1.798  53.083  1.00  0.00    -0.223 OA
ENDBRANCH  11  13
ENDBRANCH  10  11
BRANCH   9  17
HETATM   17  N1  UNL     1      26.842   3.141  51.220  1.00  0.00    -0.304 NA
HETATM   18  H4  UNL     1      26.812   3.020  50.174  1.00  0.00     0.124 HD
HETATM   19  H5  UNL     1      26.860   3.059  50.159  1.00  0.00     0.124 HD
ENDBRANCH   9  17
ENDBRANCH   8   9
ENDBRANCH   7   8
ENDBRANCH   1   7
BRANCH   3  20
HETATM   20  N2  UNL     1      20.102   1.271  50.419  1.00  0.00    -0.341 N 
HETATM   21  H9  UNL     1      19.142   1.516  50.028  1.00  0.00     0.167 HD
BRANCH  20  22
HETATM   22  C9  UNL     1      19.908   0.457  51.544  1.00  0.00     0.034 A 
HETATM   23  C10 UNL     1      18.681  -0.125  51.880  1.00  0.00     0.029 A 
HETATM   24  C11 UNL     1      18.490  -0.936  52.971  1.00  0.00     0.004 A 
HETATM   25  C12 UNL     1      19.527  -1.222  53.806  1.00  0.00     0.019 A 
HETATM   26  C13 UNL     1      20.766  -0.681  53.532  1.00  0.00     0.013 A 
HETATM   27 BR1  UNL     1      22.176  -1.118  54.735  1.00  0.00    -0.051 Br
HETATM   28  C14 UNL     1      20.903   0.122  52.431  1.00  0.00     0.048 A 
ENDBRANCH  20  22
ENDBRANCH   3  20
TORSDOF 8
ENDMDL
MODEL 8
REMARK VINA RESULT:      -7.2      5.367      9.254
REMARK  8 active torsions:
REMARK  status: ('A' for Active; 'I' for Inactive)
REMARK    1  A    between atoms: C2_2  and  C3_3 
REMARK    2  A    between atoms: C2_2  and  S1_22 
REMARK    3  A    between atoms: C4_4  and  N1_5 
REMARK    4  A    between atoms: C4_4  and  C5_6 
REMARK    5  A    between atoms: C5_6  and  O1_7 
REMARK    6  A    between atoms: O1_7  and  C6_8 
REMARK    7  A    between atoms: C8_10  and  N2_11 
REMARK    8  A    between atoms: N2_11  and  C9_12 
ROOT
HETATM    1  C6  UNL     1      27.434   5.110  48.673  1.00  0.00     0.169 A 
HETATM    2  C7  UNL     1      28.777   5.118  48.353  1.00  0.00     0.108 A 
HETATM    3  C8  UNL     1      29.507   6.207  47.956  1.00  0.00     0.133 A 
HETATM    4  N3  UNL     1      28.795   7.336  47.891  1.00  0.00    -0.224 NA
HETATM    5  C15 UNL     1      27.489   7.415  48.185  1.00  0.00     0.238 A 
HETATM    6  N4  UNL     1      26.797   6.305  48.577  1.00  0.00    -0.218 NA
ENDROOT
BRANCH   1   7
HETATM    7  O1  UNL     1      26.786   3.947  49.066  1.00  0.00    -0.329 OA
BRANCH   7   8
HETATM    8  C5  UNL     1      25.767   4.067  50.027  1.00  0.00     0.227 C 
BRANCH   8   9
HETATM    9  C4  UNL     1      25.789   3.032  51.073  1.00  0.00     0.009 C 
HETATM   10  C3  UNL     1      26.836   2.278  51.348  1.00  0.00     0.043 C 
BRANCH  10  11
HETATM   11  C2  UNL     1      26.987   1.234  52.347  1.00  0.00     0.051 C 
HETATM   12  C1  UNL     1      26.502   0.015  52.046  1.00  0.00     0.036 C 
BRANCH  11  13
HETATM   13  S1  UNL     1      27.737   1.364  53.916  1.00  0.00     0.171 S 
HETATM   14  C16 UNL     1      28.809  -0.037  54.220  1.00  0.00     0.167 C 
HETATM   15  O2  UNL     1      26.645   1.287  54.970  1.00  0.00    -0.223 OA
HETATM   16  O3  UNL     1      28.470   2.646  54.100  1.00  0.00    -0.223 OA
ENDBRANCH  11  13
ENDBRANCH  10  11
BRANCH   9  17
HETATM   17  N1  UNL     1      24.445   3.170  51.570  1.00  0.00    -0.304 NA
HETATM   18  H4  UNL     1      23.747   3.022  50.795  1.00  0.00     0.124 HD
HETATM   19  H5  UNL     1      23.693   3.031  50.829  1.00  0.00     0.124 HD
ENDBRANCH   9  17
ENDBRANCH   8   9
ENDBRANCH   7   8
ENDBRANCH   1   7
BRANCH   3  20
HETATM   20  N2  UNL     1      30.863   6.255  47.639  1.00  0.00    -0.341 N 
HETATM   21  H9  UNL     1      31.279   7.211  47.416  1.00  0.00     0.167 HD
BRANCH  20  22
HETATM   22  C9  UNL     1      31.892   5.309  47.533  1.00  0.00     0.034 A 
HETATM   23  C10 UNL     1      33.244   5.605  47.734  1.00  0.00     0.029 A 
HETATM   24  C11 UNL     1      34.254   4.678  47.648  1.00  0.00     0.004 A 
HETATM   25  C12 UNL     1      33.971   3.379  47.353  1.00  0.00     0.019 A 
HETATM   26  C13 UNL     1      32.657   3.018  47.145  1.00  0.00     0.013 A 
HETATM   27 BR1  UNL     1      32.326   1.187  46.738  1.00  0.00    -0.051 Br
HETATM   28  C14 UNL     1      31.688   3.982  47.243  1.00  0.00     0.048 A 
ENDBRANCH  20  22
ENDBRANCH   3  20
TORSDOF 8
ENDMDL
MODEL 9
REMARK VINA RESULT:      -7.1      4.699      8.806
REMARK  8 active torsions:
REMARK  status: ('A' for Active; 'I' for Inactive)
REMARK    1  A    between atoms: C2_2  and  C3_3 
REMARK    2  A    between atoms: C2_2  and  S1_22 
REMARK    3  A    between atoms: C4_4  and  N1_5 
REMARK    4  A    between atoms: C4_4  and  C5_6 
REMARK    5  A    between atoms: C5_6  and  O1_7 
REMARK    6  A    between atoms: O1_7  and  C6_8 
REMARK    7  A    between atoms: C8_10  and  N2_11 
REMARK    8  A    between atoms: N2_11  and  C9_12 
ROOT
HETATM    1  C6  UNL     1      23.699   5.234  51.138  1.00  0.00     0.169 A 
HETATM    2  C7  UNL     1      24.766   6.077  50.901  1.00  0.00     0.108 A 
HETATM    3  C8  UNL     1      24.692   7.409  50.589  1.00  0.00     0.133 A 
HETATM    4  N3  UNL     1      23.441   7.875  50.521  1.00  0.00    -0.224 NA
HETATM    5  C15 UNL     1      22.350   7.126  50.737  1.00  0.00     0.238 A 
HETATM    6  N4  UNL     1      22.468   5.801  51.046  1.00  0.00    -0.218 NA
ENDROOT
BRANCH   1   7
HETATM    7  O1  UNL     1      23.884   3.894  51.449  1.00  0.00    -0.329 OA
BRANCH   7   8
HETATM    8  C5  UNL     1      24.721   3.144  50.604  1.00  0.00     0.227 C 
BRANCH   8   9
HETATM    9  C4  UNL     1      25.786   2.404  51.300  1.00  0.00     0.009 C 
HETATM   10  C3  UNL     1      25.598   1.272  51.951  1.00  0.00     0.043 C 
BRANCH  10  11
HETATM   11  C2  UNL     1      26.555   0.448  52.671  1.00  0.00     0.051 C 
HETATM   12  C1  UNL     1      26.713  -0.823  52.256  1.00  0.00     0.036 C 
BRANCH  11  13
HETATM   13  S1  UNL     1      27.545   0.911  54.029  1.00  0.00     0.171 S 
HETATM   14  C16 UNL     1      28.911  -0.228  54.230  1.00  0.00     0.167 C 
HETATM   15  O2  UNL     1      26.707   0.780  55.291  1.00  0.00    -0.223 OA
HETATM   16  O3  UNL     1      28.031   2.314  53.939  1.00  0.00    -0.223 OA
ENDBRANCH  11  13
ENDBRANCH  10  11
BRANCH   9  17
HETATM   17  N1  UNL     1      26.899   3.272  51.019  1.00  0.00    -0.304 NA
HETATM   18  H4  UNL     1      27.791   2.718  50.947  1.00  0.00     0.124 HD
HETATM   19  H5  UNL     1      27.832   2.766  50.935  1.00  0.00     0.124 HD
ENDBRANCH   9  17
ENDBRANCH   8   9
ENDBRANCH   7   8
ENDBRANCH   1   7
BRANCH   3  20
HETATM   20  N2  UNL     1      25.745   8.291  50.358  1.00  0.00    -0.341 N 
HETATM   21  H9  UNL     1      25.732   9.217  50.885  1.00  0.00     0.167 HD
BRANCH  20  22
HETATM   22  C9  UNL     1      26.897   8.274  49.558  1.00  0.00     0.034 A 
HETATM   23  C10 UNL     1      27.117   7.351  48.531  1.00  0.00     0.029 A 
HETATM   24  C11 UNL     1      28.235   7.340  47.734  1.00  0.00     0.004 A 
HETATM   25  C12 UNL     1      29.216   8.266  47.915  1.00  0.00     0.019 A 
HETATM   26  C13 UNL     1      29.063   9.208  48.911  1.00  0.00     0.013 A 
HETATM   27 BR1  UNL     1      30.470  10.476  49.115  1.00  0.00    -0.051 Br
HETATM   28  C14 UNL     1      27.929   9.174  49.678  1.00  0.00     0.048 A 
ENDBRANCH  20  22
ENDBRANCH   3  20
TORSDOF 8
ENDMDL
