MODEL 1
REMARK VINA RESULT:      -8.7      0.000      0.000
REMARK  7 active torsions:
REMARK  status: ('A' for Active; 'I' for Inactive)
REMARK    1  A    between atoms: C7_8  and  O1_9 
REMARK    2  A    between atoms: O1_9  and  C8_10 
REMARK    3  A    between atoms: N1_15  and  C12_16 
REMARK    4  A    between atoms: C14_19  and  C15_20 
REMARK    5  A    between atoms: C16_21  and  N3_22 
REMARK    6  A    between atoms: N3_22  and  C17_23 
REMARK    7  A    between atoms: C21_28  and  N4_29 
ROOT
HETATM    1  C8  UNL     1      25.366   1.298  51.798  1.00  0.00     0.225 C 
HETATM    2  C9  UNL     1      25.145   2.439  50.858  1.00  0.00     0.043 C 
HETATM    3 CL1  UNL     1      26.338   3.630  50.370  1.00  0.00    -0.086 Cl
HETATM    4  C10 UNL     1      23.886   2.494  50.380  1.00  0.00     0.015 C 
HETATM    5  C11 UNL     1      22.824   1.492  50.772  1.00  0.00     0.149 C 
HETATM    6  N1  UNL     1      22.950   1.162  52.113  1.00  0.00    -0.369 N 
HETATM    7  C21 UNL     1      24.213   1.316  52.755  1.00  0.00     0.350 C 
ENDROOT
BRANCH   6   8
HETATM    8  C12 UNL     1      21.826   1.073  52.959  1.00  0.00     0.129 A 
HETATM    9  C13 UNL     1      20.528   1.300  52.285  1.00  0.00     0.115 A 
HETATM   10  N2  UNL     1      19.354   0.708  52.294  1.00  0.00    -0.263 NA
HETATM   11  C14 UNL     1      19.202  -0.455  53.138  1.00  0.00     0.054 A 
HETATM   12  C18 UNL     1      20.350  -0.672  53.748  1.00  0.00     0.011 A 
HETATM   13  C19 UNL     1      21.714  -0.118  53.842  1.00  0.00     0.034 A 
HETATM   14  C20 UNL     1      22.661  -1.247  53.401  1.00  0.00     0.016 C 
BRANCH  11  15
HETATM   15  C15 UNL     1      17.985  -1.218  53.260  1.00  0.00     0.048 C 
HETATM   16  C16 UNL     1      16.816  -0.939  52.751  1.00  0.00     0.092 C 
BRANCH  16  17
HETATM   17  N3  UNL     1      16.271   0.099  51.957  1.00  0.00    -0.344 N 
HETATM   18  H15 UNL     1      16.422   0.615  51.040  1.00  0.00     0.167 HD
BRANCH  17  19
HETATM   19  C17 UNL     1      15.101   0.799  52.420  1.00  0.00     0.352 C 
HETATM   20  O2  UNL     1      14.421   0.967  53.488  1.00  0.00    -0.283 OA
ENDBRANCH  17  19
ENDBRANCH  16  17
ENDBRANCH  11  15
ENDBRANCH   6   8
BRANCH   7  21
HETATM   21  N4  UNL     1      24.299   2.468  53.595  1.00  0.00     0.104 N 
HETATM   22  H23 UNL     1      24.295   2.201  54.604  1.00  0.00     0.315 HD
HETATM   23  H24 UNL     1      23.581   3.180  53.408  1.00  0.00     0.315 HD
ENDBRANCH   7  21
BRANCH   1  24
HETATM   24  O1  UNL     1      26.549   1.460  52.545  1.00  0.00    -0.336 OA
BRANCH  24  25
HETATM   25  C7  UNL     1      27.471   0.502  52.845  1.00  0.00     0.078 A 
HETATM   26  C2  UNL     1      28.631   1.058  53.396  1.00  0.00    -0.028 A 
HETATM   27  C1  UNL     1      28.848   2.529  53.634  1.00  0.00     0.051 C 
HETATM   28  C3  UNL     1      29.708   0.257  53.777  1.00  0.00     0.012 A 
HETATM   29  C4  UNL     1      29.647  -1.118  53.615  1.00  0.00     0.043 A 
HETATM   30  C5  UNL     1      28.498  -1.657  53.070  1.00  0.00     0.119 A 
HETATM   31  F1  UNL     1      28.370  -2.999  52.882  1.00  0.00    -0.206 F 
HETATM   32  C6  UNL     1      27.428  -0.869  52.690  1.00  0.00     0.079 A 
ENDBRANCH  24  25
ENDBRANCH   1  24
TORSDOF 7
ENDMDL
MODEL 2
REMARK VINA RESULT:      -8.6      4.299      8.696
REMARK  7 active torsions:
REMARK  status: ('A' for Active; 'I' for Inactive)
REMARK    1  A    between atoms: C7_8  and  O1_9 
REMARK    2  A    between atoms: O1_9  and  C8_10 
REMARK    3  A    between atoms: N1_15  and  C12_16 
REMARK    4  A    between atoms: C14_19  and  C15_20 
REMARK    5  A    between atoms: C16_21  and  N3_22 
REMARK    6  A    between atoms: N3_22  and  C17_23 
REMARK    7  A    between atoms: C21_28  and  N4_29 
ROOT
HETATM    1  C8  UNL     1      22.530   2.649  51.876  1.00  0.00     0.225 C 
HETATM    2  C9  UNL     1      21.512   3.740  51.778  1.00  0.00     0.043 C 
HETATM    3 CL1  UNL     1      19.793   3.588  52.099  1.00  0.00    -0.086 Cl
HETATM    4  C10 UNL     1      22.038   4.922  51.405  1.00  0.00     0.015 C 
HETATM    5  C11 UNL     1      23.512   5.101  51.117  1.00  0.00     0.149 C 
HETATM    6  N1  UNL     1      24.011   3.982  50.467  1.00  0.00    -0.369 N 
HETATM    7  C21 UNL     1      23.349   2.730  50.624  1.00  0.00     0.350 C 
ENDROOT
BRANCH   6   8
HETATM    8  C12 UNL     1      24.877   4.097  49.361  1.00  0.00     0.129 A 
HETATM    9  C13 UNL     1      25.074   5.480  48.873  1.00  0.00     0.115 A 
HETATM   10  N2  UNL     1      26.108   6.206  48.511  1.00  0.00    -0.263 NA
HETATM   11  C14 UNL     1      27.411   5.585  48.573  1.00  0.00     0.054 A 
HETATM   12  C18 UNL     1      27.255   4.349  49.006  1.00  0.00     0.011 A 
HETATM   13  C19 UNL     1      26.197   3.417  49.439  1.00  0.00     0.034 A 
HETATM   14  C20 UNL     1      26.550   3.018  50.881  1.00  0.00     0.016 C 
BRANCH  11  15
HETATM   15  C15 UNL     1      28.643   6.241  48.215  1.00  0.00     0.048 C 
HETATM   16  C16 UNL     1      28.874   7.524  48.159  1.00  0.00     0.092 C 
BRANCH  16  17
HETATM   17  N3  UNL     1      28.129   8.706  48.388  1.00  0.00    -0.344 N 
HETATM   18  H15 UNL     1      27.533   9.428  47.884  1.00  0.00     0.167 HD
BRANCH  17  19
HETATM   19  C17 UNL     1      28.057   9.246  49.720  1.00  0.00     0.352 C 
HETATM   20  O2  UNL     1      27.188   9.590  50.591  1.00  0.00    -0.283 OA
ENDBRANCH  17  19
ENDBRANCH  16  17
ENDBRANCH  11  15
ENDBRANCH   6   8
BRANCH   7  21
HETATM   21  N4  UNL     1      22.554   2.350  49.499  1.00  0.00     0.104 N 
HETATM   22  H23 UNL     1      22.668   3.025  48.711  1.00  0.00     0.315 HD
HETATM   23  H24 UNL     1      21.557   2.215  49.715  1.00  0.00     0.315 HD
ENDBRANCH   7  21
BRANCH   1  24
HETATM   24  O1  UNL     1      21.928   1.376  51.916  1.00  0.00    -0.336 OA
BRANCH  24  25
HETATM   25  C7  UNL     1      22.092   0.417  52.871  1.00  0.00     0.078 A 
HETATM   26  C2  UNL     1      20.896  -0.261  53.131  1.00  0.00    -0.028 A 
HETATM   27  C1  UNL     1      19.583   0.021  52.448  1.00  0.00     0.051 C 
HETATM   28  C3  UNL     1      20.835  -1.285  54.076  1.00  0.00     0.012 A 
HETATM   29  C4  UNL     1      21.970  -1.653  54.782  1.00  0.00     0.043 A 
HETATM   30  C5  UNL     1      23.145  -0.977  54.518  1.00  0.00     0.119 A 
HETATM   31  F1  UNL     1      24.297  -1.285  55.174  1.00  0.00    -0.206 F 
HETATM   32  C6  UNL     1      23.212   0.039  53.583  1.00  0.00     0.079 A 
ENDBRANCH  24  25
ENDBRANCH   1  24
TORSDOF 7
ENDMDL
MODEL 3
REMARK VINA RESULT:      -8.2      2.511      2.845
REMARK  7 active torsions:
REMARK  status: ('A' for Active; 'I' for Inactive)
REMARK    1  A    between atoms: C7_8  and  O1_9 
REMARK    2  A    between atoms: O1_9  and  C8_10 
REMARK    3  A    between atoms: N1_15  and  C12_16 
REMARK    4  A    between atoms: C14_19  and  C15_20 
REMARK    5  A    between atoms: C16_21  and  N3_22 
REMARK    6  A    between atoms: N3_22  and  C17_23 
REMARK    7  A    between atoms: C21_28  and  N4_29 
ROOT
HETATM    1  C8  UNL     1      25.198   1.893  51.530  1.00  0.00     0.225 C 
HETATM    2  C9  UNL     1      25.397   2.926  50.467  1.00  0.00     0.043 C 
HETATM    3 CL1  UNL     1      26.915   3.695  50.037  1.00  0.00    -0.086 Cl
HETATM    4  C10 UNL     1      24.260   3.244  49.819  1.00  0.00     0.015 C 
HETATM    5  C11 UNL     1      22.930   2.609  50.154  1.00  0.00     0.149 C 
HETATM    6  N1  UNL     1      22.817   2.430  51.525  1.00  0.00    -0.369 N 
HETATM    7  C21 UNL     1      23.999   2.329  52.315  1.00  0.00     0.350 C 
ENDROOT
BRANCH   6   8
HETATM    8  C12 UNL     1      21.629   2.741  52.215  1.00  0.00     0.129 A 
HETATM    9  C13 UNL     1      20.826   3.824  51.603  1.00  0.00     0.115 A 
HETATM   10  N2  UNL     1      19.553   4.003  51.328  1.00  0.00    -0.263 NA
HETATM   11  C14 UNL     1      18.641   2.936  51.673  1.00  0.00     0.054 A 
HETATM   12  C18 UNL     1      19.340   1.962  52.222  1.00  0.00     0.011 A 
HETATM   13  C19 UNL     1      20.727   1.620  52.589  1.00  0.00     0.034 A 
HETATM   14  C20 UNL     1      21.064   0.334  51.815  1.00  0.00     0.016 C 
BRANCH  11  15
HETATM   15  C15 UNL     1      17.221   2.973  51.437  1.00  0.00     0.048 C 
HETATM   16  C16 UNL     1      16.558   3.819  50.698  1.00  0.00     0.092 C 
BRANCH  16  17
HETATM   17  N3  UNL     1      16.878   4.940  49.895  1.00  0.00    -0.344 N 
HETATM   18  H15 UNL     1      16.946   6.001  49.931  1.00  0.00     0.167 HD
BRANCH  17  19
HETATM   19  C17 UNL     1      17.264   4.737  48.523  1.00  0.00     0.352 C 
HETATM   20  O2  UNL     1      16.927   4.044  47.504  1.00  0.00    -0.283 OA
ENDBRANCH  17  19
ENDBRANCH  16  17
ENDBRANCH  11  15
ENDBRANCH   6   8
BRANCH   7  21
HETATM   21  N4  UNL     1      24.307   3.517  53.050  1.00  0.00     0.104 N 
HETATM   22  H23 UNL     1      25.252   3.880  52.801  1.00  0.00     0.315 HD
HETATM   23  H24 UNL     1      24.216   3.416  54.069  1.00  0.00     0.315 HD
ENDBRANCH   7  21
BRANCH   1  24
HETATM   24  O1  UNL     1      26.294   1.836  52.413  1.00  0.00    -0.336 OA
BRANCH  24  25
HETATM   25  C7  UNL     1      27.075   0.753  52.687  1.00  0.00     0.078 A 
HETATM   26  C2  UNL     1      28.280   1.125  53.292  1.00  0.00    -0.028 A 
HETATM   27  C1  UNL     1      28.680   2.543  53.607  1.00  0.00     0.051 C 
HETATM   28  C3  UNL     1      29.231   0.173  53.659  1.00  0.00     0.012 A 
HETATM   29  C4  UNL     1      28.996  -1.173  53.429  1.00  0.00     0.043 A 
HETATM   30  C5  UNL     1      27.803  -1.532  52.831  1.00  0.00     0.119 A 
HETATM   31  F1  UNL     1      27.506  -2.835  52.576  1.00  0.00    -0.206 F 
HETATM   32  C6  UNL     1      26.858  -0.592  52.465  1.00  0.00     0.079 A 
ENDBRANCH  24  25
ENDBRANCH   1  24
TORSDOF 7
ENDMDL
MODEL 4
REMARK VINA RESULT:      -7.9      4.449      8.281
REMARK  7 active torsions:
REMARK  status: ('A' for Active; 'I' for Inactive)
REMARK    1  A    between atoms: C7_8  and  O1_9 
REMARK    2  A    between atoms: O1_9  and  C8_10 
REMARK    3  A    between atoms: N1_15  and  C12_16 
REMARK    4  A    between atoms: C14_19  and  C15_20 
REMARK    5  A    between atoms: C16_21  and  N3_22 
REMARK    6  A    between atoms: N3_22  and  C17_23 
REMARK    7  A    between atoms: C21_28  and  N4_29 
ROOT
HETATM    1  C8  UNL     1      24.609   1.444  52.126  1.00  0.00     0.225 C 
HETATM    2  C9  UNL     1      26.101   1.442  52.238  1.00  0.00     0.043 C 
HETATM    3 CL1  UNL     1      27.049   0.605  53.454  1.00  0.00    -0.086 Cl
HETATM    4  C10 UNL     1      26.704   2.172  51.280  1.00  0.00     0.015 C 
HETATM    5  C11 UNL     1      25.929   2.911  50.212  1.00  0.00     0.149 C 
HETATM    6  N1  UNL     1      24.772   3.455  50.752  1.00  0.00    -0.369 N 
HETATM    7  C21 UNL     1      24.209   2.874  51.925  1.00  0.00     0.350 C 
ENDROOT
BRANCH   6   8
HETATM    8  C12 UNL     1      24.363   4.768  50.446  1.00  0.00     0.129 A 
HETATM    9  C13 UNL     1      25.466   5.694  50.105  1.00  0.00     0.115 A 
HETATM   10  N2  UNL     1      25.677   6.592  49.168  1.00  0.00    -0.263 NA
HETATM   11  C14 UNL     1      24.632   6.791  48.190  1.00  0.00     0.054 A 
HETATM   12  C18 UNL     1      23.639   5.974  48.479  1.00  0.00     0.011 A 
HETATM   13  C19 UNL     1      23.261   4.941  49.462  1.00  0.00     0.034 A 
HETATM   14  C20 UNL     1      23.012   3.657  48.652  1.00  0.00     0.016 C 
BRANCH  11  15
HETATM   15  C15 UNL     1      24.707   7.732  47.101  1.00  0.00     0.048 C 
HETATM   16  C16 UNL     1      25.592   8.673  46.921  1.00  0.00     0.092 C 
BRANCH  16  17
HETATM   17  N3  UNL     1      26.733   9.146  47.613  1.00  0.00    -0.344 N 
HETATM   18  H15 UNL     1      27.795   9.103  47.601  1.00  0.00     0.167 HD
BRANCH  17  19
HETATM   19  C17 UNL     1      26.556   9.993  48.764  1.00  0.00     0.352 C 
HETATM   20  O2  UNL     1      26.317   9.905  50.016  1.00  0.00    -0.283 OA
ENDBRANCH  17  19
ENDBRANCH  16  17
ENDBRANCH  11  15
ENDBRANCH   6   8
BRANCH   7  21
HETATM   21  N4  UNL     1      24.460   3.620  53.118  1.00  0.00     0.104 N 
HETATM   22  H23 UNL     1      23.689   4.296  53.309  1.00  0.00     0.315 HD
HETATM   23  H24 UNL     1      25.370   4.097  53.131  1.00  0.00     0.315 HD
ENDBRANCH   7  21
BRANCH   1  24
HETATM   24  O1  UNL     1      23.997   0.987  53.309  1.00  0.00    -0.336 OA
BRANCH  24  25
HETATM   25  C7  UNL     1      22.802   0.342  53.421  1.00  0.00     0.078 A 
HETATM   26  C2  UNL     1      22.865  -0.702  54.351  1.00  0.00    -0.028 A 
HETATM   27  C1  UNL     1      24.093  -1.078  55.137  1.00  0.00     0.051 C 
HETATM   28  C3  UNL     1      21.751  -1.497  54.623  1.00  0.00     0.012 A 
HETATM   29  C4  UNL     1      20.551  -1.265  53.972  1.00  0.00     0.043 A 
HETATM   30  C5  UNL     1      20.498  -0.232  53.056  1.00  0.00     0.119 A 
HETATM   31  F1  UNL     1      19.352   0.053  52.380  1.00  0.00    -0.206 F 
HETATM   32  C6  UNL     1      21.598   0.559  52.781  1.00  0.00     0.079 A 
ENDBRANCH  24  25
ENDBRANCH   1  24
TORSDOF 7
ENDMDL
MODEL 5
REMARK VINA RESULT:      -7.7      3.970      9.585
REMARK  7 active torsions:
REMARK  status: ('A' for Active; 'I' for Inactive)
REMARK    1  A    between atoms: C7_8  and  O1_9 
REMARK    2  A    between atoms: O1_9  and  C8_10 
REMARK    3  A    between atoms: N1_15  and  C12_16 
REMARK    4  A    between atoms: C14_19  and  C15_20 
REMARK    5  A    between atoms: C16_21  and  N3_22 
REMARK    6  A    between atoms: N3_22  and  C17_23 
REMARK    7  A    between atoms: C21_28  and  N4_29 
ROOT
HETATM    1  C8  UNL     1      18.790   2.857  51.751  1.00  0.00     0.225 C 
HETATM    2  C9  UNL     1      19.404   4.006  51.015  1.00  0.00     0.043 C 
HETATM    3 CL1  UNL     1      18.578   5.092  49.912  1.00  0.00    -0.086 Cl
HETATM    4  C10 UNL     1      20.717   4.159  51.275  1.00  0.00     0.015 C 
HETATM    5  C11 UNL     1      21.470   3.248  52.217  1.00  0.00     0.149 C 
HETATM    6  N1  UNL     1      21.029   1.941  52.072  1.00  0.00    -0.369 N 
HETATM    7  C21 UNL     1      19.720   1.698  51.564  1.00  0.00     0.350 C 
ENDROOT
BRANCH   6   8
HETATM    8  C12 UNL     1      21.931   0.859  52.019  1.00  0.00     0.129 A 
HETATM    9  C13 UNL     1      23.353   1.249  51.883  1.00  0.00     0.115 A 
HETATM   10  N2  UNL     1      24.480   0.885  52.453  1.00  0.00    -0.263 NA
HETATM   11  C14 UNL     1      24.411  -0.138  53.471  1.00  0.00     0.054 A 
HETATM   12  C18 UNL     1      23.150  -0.498  53.605  1.00  0.00     0.011 A 
HETATM   13  C19 UNL     1      21.813  -0.197  53.059  1.00  0.00     0.034 A 
HETATM   14  C20 UNL     1      20.964   0.271  54.252  1.00  0.00     0.016 C 
BRANCH  11  15
HETATM   15  C15 UNL     1      25.550  -0.645  54.193  1.00  0.00     0.048 C 
HETATM   16  C16 UNL     1      26.613   0.012  54.567  1.00  0.00     0.092 C 
BRANCH  16  17
HETATM   17  N3  UNL     1      27.081   1.344  54.452  1.00  0.00    -0.344 N 
HETATM   18  H15 UNL     1      26.946   2.315  54.864  1.00  0.00     0.167 HD
BRANCH  17  19
HETATM   19  C17 UNL     1      28.097   1.652  53.479  1.00  0.00     0.352 C 
HETATM   20  O2  UNL     1      28.636   2.664  52.916  1.00  0.00    -0.283 OA
ENDBRANCH  17  19
ENDBRANCH  16  17
ENDBRANCH  11  15
ENDBRANCH   6   8
BRANCH   7  21
HETATM   21  N4  UNL     1      19.699   1.275  50.198  1.00  0.00     0.104 N 
HETATM   22  H23 UNL     1      19.184   1.957  49.600  1.00  0.00     0.315 HD
HETATM   23  H24 UNL     1      19.333   0.324  50.058  1.00  0.00     0.315 HD
ENDBRANCH   7  21
BRANCH   1  24
HETATM   24  O1  UNL     1      17.540   2.500  51.209  1.00  0.00    -0.336 OA
BRANCH  24  25
HETATM   25  C7  UNL     1      16.325   2.571  51.824  1.00  0.00     0.078 A 
HETATM   26  C2  UNL     1      15.727   1.311  51.931  1.00  0.00    -0.028 A 
HETATM   27  C1  UNL     1      16.337   0.027  51.435  1.00  0.00     0.051 C 
HETATM   28  C3  UNL     1      14.476   1.153  52.529  1.00  0.00     0.012 A 
HETATM   29  C4  UNL     1      13.797   2.251  53.031  1.00  0.00     0.043 A 
HETATM   30  C5  UNL     1      14.396   3.491  52.920  1.00  0.00     0.119 A 
HETATM   31  F1  UNL     1      13.787   4.612  53.392  1.00  0.00    -0.206 F 
HETATM   32  C6  UNL     1      15.635   3.655  52.329  1.00  0.00     0.079 A 
ENDBRANCH  24  25
ENDBRANCH   1  24
TORSDOF 7
ENDMDL
MODEL 6
REMARK VINA RESULT:      -7.6      4.622      9.187
REMARK  7 active torsions:
REMARK  status: ('A' for Active; 'I' for Inactive)
REMARK    1  A    between atoms: C7_8  and  O1_9 
REMARK    2  A    between atoms: O1_9  and  C8_10 
REMARK    3  A    between atoms: N1_15  and  C12_16 
REMARK    4  A    between atoms: C14_19  and  C15_20 
REMARK    5  A    between atoms: C16_21  and  N3_22 
REMARK    6  A    between atoms: N3_22  and  C17_23 
REMARK    7  A    between atoms: C21_28  and  N4_29 
ROOT
HETATM    1  C8  UNL     1      23.850   3.709  51.606  1.00  0.00     0.225 C 
HETATM    2  C9  UNL     1      22.593   4.510  51.724  1.00  0.00     0.043 C 
HETATM    3 CL1  UNL     1      21.010   3.900  52.175  1.00  0.00    -0.086 Cl
HETATM    4  C10 UNL     1      22.770   5.816  51.444  1.00  0.00     0.015 C 
HETATM    5  C11 UNL     1      24.113   6.387  51.051  1.00  0.00     0.149 C 
HETATM    6  N1  UNL     1      24.792   5.494  50.235  1.00  0.00    -0.369 N 
HETATM    7  C21 UNL     1      24.477   4.106  50.305  1.00  0.00     0.350 C 
ENDROOT
BRANCH   6   8
HETATM    8  C12 UNL     1      25.472   5.923  49.078  1.00  0.00     0.129 A 
HETATM    9  C13 UNL     1      25.785   7.369  49.047  1.00  0.00     0.115 A 
HETATM   10  N2  UNL     1      26.841   8.091  48.743  1.00  0.00    -0.263 NA
HETATM   11  C14 UNL     1      28.032   7.386  48.328  1.00  0.00     0.054 A 
HETATM   12  C18 UNL     1      27.770   6.094  48.348  1.00  0.00     0.011 A 
HETATM   13  C19 UNL     1      26.674   5.156  48.654  1.00  0.00     0.034 A 
HETATM   14  C20 UNL     1      27.196   4.247  49.778  1.00  0.00     0.016 C 
BRANCH  11  15
HETATM   15  C15 UNL     1      29.271   8.026  47.965  1.00  0.00     0.048 C 
HETATM   16  C16 UNL     1      30.429   7.910  48.553  1.00  0.00     0.092 C 
BRANCH  16  17
HETATM   17  N3  UNL     1      30.941   7.203  49.668  1.00  0.00    -0.344 N 
HETATM   18  H15 UNL     1      30.939   7.206  50.731  1.00  0.00     0.167 HD
BRANCH  17  19
HETATM   19  C17 UNL     1      31.777   6.051  49.449  1.00  0.00     0.352 C 
HETATM   20  O2  UNL     1      31.718   4.885  48.931  1.00  0.00    -0.283 OA
ENDBRANCH  17  19
ENDBRANCH  16  17
ENDBRANCH  11  15
ENDBRANCH   6   8
BRANCH   7  21
HETATM   21  N4  UNL     1      23.674   3.639  49.218  1.00  0.00     0.104 N 
HETATM   22  H23 UNL     1      24.059   2.757  48.816  1.00  0.00     0.315 HD
HETATM   23  H24 UNL     1      23.523   4.337  48.477  1.00  0.00     0.315 HD
ENDBRANCH   7  21
BRANCH   1  24
HETATM   24  O1  UNL     1      23.583   2.327  51.553  1.00  0.00    -0.336 OA
BRANCH  24  25
HETATM   25  C7  UNL     1      24.335   1.322  52.086  1.00  0.00     0.078 A 
HETATM   26  C2  UNL     1      23.585   0.525  52.957  1.00  0.00    -0.028 A 
HETATM   27  C1  UNL     1      22.129   0.736  53.276  1.00  0.00     0.051 C 
HETATM   28  C3  UNL     1      24.158  -0.564  53.615  1.00  0.00     0.012 A 
HETATM   29  C4  UNL     1      25.493  -0.878  53.416  1.00  0.00     0.043 A 
HETATM   30  C5  UNL     1      26.224  -0.084  52.554  1.00  0.00     0.119 A 
HETATM   31  F1  UNL     1      27.540  -0.334  52.312  1.00  0.00    -0.206 F 
HETATM   32  C6  UNL     1      25.663   0.996  51.900  1.00  0.00     0.079 A 
ENDBRANCH  24  25
ENDBRANCH   1  24
TORSDOF 7
ENDMDL
MODEL 7
REMARK VINA RESULT:      -7.5     11.120     12.060
REMARK  7 active torsions:
REMARK  status: ('A' for Active; 'I' for Inactive)
REMARK    1  A    between atoms: C7_8  and  O1_9 
REMARK    2  A    between atoms: O1_9  and  C8_10 
REMARK    3  A    between atoms: N1_15  and  C12_16 
REMARK    4  A    between atoms: C14_19  and  C15_20 
REMARK    5  A    between atoms: C16_21  and  N3_22 
REMARK    6  A    between atoms: N3_22  and  C17_23 
REMARK    7  A    between atoms: C21_28  and  N4_29 
ROOT
HETATM    1  C8  UNL     1      32.146   7.546  47.808  1.00  0.00     0.225 C 
HETATM    2  C9  UNL     1      32.985   8.783  47.747  1.00  0.00     0.043 C 
HETATM    3 CL1  UNL     1      34.721   8.872  47.989  1.00  0.00    -0.086 Cl
HETATM    4  C10 UNL     1      32.272   9.893  47.475  1.00  0.00     0.015 C 
HETATM    5  C11 UNL     1      30.776   9.865  47.260  1.00  0.00     0.149 C 
HETATM    6  N1  UNL     1      30.185   8.963  48.131  1.00  0.00    -0.369 N 
HETATM    7  C21 UNL     1      30.961   7.889  48.658  1.00  0.00     0.350 C 
ENDROOT
BRANCH   6   8
HETATM    8  C12 UNL     1      29.000   9.277  48.827  1.00  0.00     0.129 A 
HETATM    9  C13 UNL     1      28.672  10.720  48.866  1.00  0.00     0.115 A 
HETATM   10  N2  UNL     1      27.588  11.438  48.676  1.00  0.00    -0.263 NA
HETATM   11  C14 UNL     1      26.371  10.731  48.346  1.00  0.00     0.054 A 
HETATM   12  C18 UNL     1      26.645   9.442  48.308  1.00  0.00     0.011 A 
HETATM   13  C19 UNL     1      27.772   8.509  48.490  1.00  0.00     0.034 A 
HETATM   14  C20 UNL     1      27.918   7.755  47.158  1.00  0.00     0.016 C 
BRANCH  11  15
HETATM   15  C15 UNL     1      25.101  11.367  48.105  1.00  0.00     0.048 C 
HETATM   16  C16 UNL     1      24.884  12.605  47.755  1.00  0.00     0.092 C 
BRANCH  16  17
HETATM   17  N3  UNL     1      25.682  13.744  47.489  1.00  0.00    -0.344 N 
HETATM   18  H15 UNL     1      26.497  14.071  46.889  1.00  0.00     0.167 HD
BRANCH  17  19
HETATM   19  C17 UNL     1      25.423  14.968  48.202  1.00  0.00     0.352 C 
HETATM   20  O2  UNL     1      24.609  15.444  49.064  1.00  0.00    -0.283 OA
ENDBRANCH  17  19
ENDBRANCH  16  17
ENDBRANCH  11  15
ENDBRANCH   6   8
BRANCH   7  21
HETATM   21  N4  UNL     1      31.375   8.084  50.012  1.00  0.00     0.104 N 
HETATM   22  H23 UNL     1      31.034   7.314  50.626  1.00  0.00     0.315 HD
HETATM   23  H24 UNL     1      31.115   8.999  50.403  1.00  0.00     0.315 HD
ENDBRANCH   7  21
BRANCH   1  24
HETATM   24  O1  UNL     1      32.829   6.483  48.429  1.00  0.00    -0.336 OA
BRANCH  24  25
HETATM   25  C7  UNL     1      32.946   5.203  47.976  1.00  0.00     0.078 A 
HETATM   26  C2  UNL     1      34.233   4.696  48.190  1.00  0.00    -0.028 A 
HETATM   27  C1  UNL     1      35.358   5.458  48.839  1.00  0.00     0.051 C 
HETATM   28  C3  UNL     1      34.574   3.401  47.801  1.00  0.00     0.012 A 
HETATM   29  C4  UNL     1      33.636   2.584  47.190  1.00  0.00     0.043 A 
HETATM   30  C5  UNL     1      32.369   3.093  46.983  1.00  0.00     0.119 A 
HETATM   31  F1  UNL     1      31.398   2.348  46.390  1.00  0.00    -0.206 F 
HETATM   32  C6  UNL     1      32.025   4.376  47.366  1.00  0.00     0.079 A 
ENDBRANCH  24  25
ENDBRANCH   1  24
TORSDOF 7
ENDMDL
MODEL 8
REMARK VINA RESULT:      -7.3      5.494     10.480
REMARK  7 active torsions:
REMARK  status: ('A' for Active; 'I' for Inactive)
REMARK    1  A    between atoms: C7_8  and  O1_9 
REMARK    2  A    between atoms: O1_9  and  C8_10 
REMARK    3  A    between atoms: N1_15  and  C12_16 
REMARK    4  A    between atoms: C14_19  and  C15_20 
REMARK    5  A    between atoms: C16_21  and  N3_22 
REMARK    6  A    between atoms: N3_22  and  C17_23 
REMARK    7  A    between atoms: C21_28  and  N4_29 
ROOT
HETATM    1  C8  UNL     1      23.858   4.777  50.077  1.00  0.00     0.225 C 
HETATM    2  C9  UNL     1      23.003   5.831  50.704  1.00  0.00     0.043 C 
HETATM    3 CL1  UNL     1      21.284   5.711  51.040  1.00  0.00    -0.086 Cl
HETATM    4  C10 UNL     1      23.686   6.951  51.014  1.00  0.00     0.015 C 
HETATM    5  C11 UNL     1      25.165   7.100  50.743  1.00  0.00     0.149 C 
HETATM    6  N1  UNL     1      25.493   6.505  49.534  1.00  0.00    -0.369 N 
HETATM    7  C21 UNL     1      24.663   5.467  49.019  1.00  0.00     0.350 C 
ENDROOT
BRANCH   6   8
HETATM    8  C12 UNL     1      26.351   7.135  48.610  1.00  0.00     0.129 A 
HETATM    9  C13 UNL     1      26.918   8.422  49.073  1.00  0.00     0.115 A 
HETATM   10  N2  UNL     1      28.110   8.975  49.065  1.00  0.00    -0.263 NA
HETATM   11  C14 UNL     1      29.192   8.215  48.482  1.00  0.00     0.054 A 
HETATM   12  C18 UNL     1      28.704   7.065  48.062  1.00  0.00     0.011 A 
HETATM   13  C19 UNL     1      27.433   6.319  47.999  1.00  0.00     0.034 A 
HETATM   14  C20 UNL     1      27.670   5.013  48.775  1.00  0.00     0.016 C 
BRANCH  11  15
HETATM   15  C15 UNL     1      30.555   8.675  48.397  1.00  0.00     0.048 C 
HETATM   16  C16 UNL     1      31.574   8.280  49.109  1.00  0.00     0.092 C 
BRANCH  16  17
HETATM   17  N3  UNL     1      31.789   7.349  50.153  1.00  0.00    -0.344 N 
HETATM   18  H15 UNL     1      31.985   7.295  51.197  1.00  0.00     0.167 HD
BRANCH  17  19
HETATM   19  C17 UNL     1      31.768   5.940  49.856  1.00  0.00     0.352 C 
HETATM   20  O2  UNL     1      31.663   5.154  48.855  1.00  0.00    -0.283 OA
ENDBRANCH  17  19
ENDBRANCH  16  17
ENDBRANCH  11  15
ENDBRANCH   6   8
BRANCH   7  21
HETATM   21  N4  UNL     1      23.806   5.885  47.955  1.00  0.00     0.104 N 
HETATM   22  H23 UNL     1      24.096   5.460  47.047  1.00  0.00     0.315 HD
HETATM   23  H24 UNL     1      23.717   6.906  47.862  1.00  0.00     0.315 HD
ENDBRANCH   7  21
BRANCH   1  24
HETATM   24  O1  UNL     1      23.083   3.782  49.450  1.00  0.00    -0.336 OA
BRANCH  24  25
HETATM   25  C7  UNL     1      22.581   2.649  50.018  1.00  0.00     0.078 A 
HETATM   26  C2  UNL     1      21.552   2.098  49.246  1.00  0.00    -0.028 A 
HETATM   27  C1  UNL     1      21.050   2.674  47.948  1.00  0.00     0.051 C 
HETATM   28  C3  UNL     1      20.895   0.933  49.642  1.00  0.00     0.012 A 
HETATM   29  C4  UNL     1      21.253   0.294  50.818  1.00  0.00     0.043 A 
HETATM   30  C5  UNL     1      22.270   0.845  51.573  1.00  0.00     0.119 A 
HETATM   31  F1  UNL     1      22.673   0.271  52.738  1.00  0.00    -0.206 F 
HETATM   32  C6  UNL     1      22.924   2.000  51.186  1.00  0.00     0.079 A 
ENDBRANCH  24  25
ENDBRANCH   1  24
TORSDOF 7
ENDMDL
MODEL 9
REMARK VINA RESULT:      -7.2      8.602     10.975
REMARK  7 active torsions:
REMARK  status: ('A' for Active; 'I' for Inactive)
REMARK    1  A    between atoms: C7_8  and  O1_9 
REMARK    2  A    between atoms: O1_9  and  C8_10 
REMARK    3  A    between atoms: N1_15  and  C12_16 
REMARK    4  A    between atoms: C14_19  and  C15_20 
REMARK    5  A    between atoms: C16_21  and  N3_22 
REMARK    6  A    between atoms: N3_22  and  C17_23 
REMARK    7  A    between atoms: C21_28  and  N4_29 
ROOT
HETATM    1  C8  UNL     1      31.780   9.078  46.929  1.00  0.00     0.225 C 
HETATM    2  C9  UNL     1      31.889  10.542  47.214  1.00  0.00     0.043 C 
HETATM    3 CL1  UNL     1      33.358  11.502  47.172  1.00  0.00    -0.086 Cl
HETATM    4  C10 UNL     1      30.708  11.110  47.525  1.00  0.00     0.015 C 
HETATM    5  C11 UNL     1      29.418  10.324  47.575  1.00  0.00     0.149 C 
HETATM    6  N1  UNL     1      29.645   9.065  48.110  1.00  0.00    -0.369 N 
HETATM    7  C21 UNL     1      30.951   8.499  48.033  1.00  0.00     0.350 C 
ENDROOT
BRANCH   6   8
HETATM    8  C12 UNL     1      28.775   8.500  49.064  1.00  0.00     0.129 A 
HETATM    9  C13 UNL     1      27.970   9.484  49.823  1.00  0.00     0.115 A 
HETATM   10  N2  UNL     1      26.708   9.585  50.177  1.00  0.00    -0.263 NA
HETATM   11  C14 UNL     1      25.816   8.524  49.772  1.00  0.00     0.054 A 
HETATM   12  C18 UNL     1      26.517   7.636  49.095  1.00  0.00     0.011 A 
HETATM   13  C19 UNL     1      27.894   7.385  48.627  1.00  0.00     0.034 A 
HETATM   14  C20 UNL     1      27.809   7.291  47.095  1.00  0.00     0.016 C 
BRANCH  11  15
HETATM   15  C15 UNL     1      24.408   8.484  50.076  1.00  0.00     0.048 C 
HETATM   16  C16 UNL     1      23.804   7.733  50.955  1.00  0.00     0.092 C 
BRANCH  16  17
HETATM   17  N3  UNL     1      24.193   6.742  51.889  1.00  0.00    -0.344 N 
HETATM   18  H15 UNL     1      24.753   6.611  52.783  1.00  0.00     0.167 HD
BRANCH  17  19
HETATM   19  C17 UNL     1      23.757   5.383  51.695  1.00  0.00     0.352 C 
HETATM   20  O2  UNL     1      23.881   4.231  52.233  1.00  0.00    -0.283 OA
ENDBRANCH  17  19
ENDBRANCH  16  17
ENDBRANCH  11  15
ENDBRANCH   6   8
BRANCH   7  21
HETATM   21  N4  UNL     1      31.677   8.550  49.263  1.00  0.00     0.104 N 
HETATM   22  H23 UNL     1      31.585   9.485  49.717  1.00  0.00     0.315 HD
HETATM   23  H24 UNL     1      32.668   8.287  49.178  1.00  0.00     0.315 HD
ENDBRANCH   7  21
BRANCH   1  24
HETATM   24  O1  UNL     1      33.039   8.447  46.957  1.00  0.00    -0.336 OA
BRANCH  24  25
HETATM   25  C7  UNL     1      33.319   7.154  46.627  1.00  0.00     0.078 A 
HETATM   26  C2  UNL     1      34.314   6.616  47.451  1.00  0.00    -0.028 A 
HETATM   27  C1  UNL     1      35.000   7.360  48.566  1.00  0.00     0.051 C 
HETATM   28  C3  UNL     1      34.757   5.303  47.288  1.00  0.00     0.012 A 
HETATM   29  C4  UNL     1      34.213   4.500  46.298  1.00  0.00     0.043 A 
HETATM   30  C5  UNL     1      33.232   5.040  45.490  1.00  0.00     0.119 A 
HETATM   31  F1  UNL     1      32.654   4.309  44.499  1.00  0.00    -0.206 F 
HETATM   32  C6  UNL     1      32.789   6.340  45.646  1.00  0.00     0.079 A 
ENDBRANCH  24  25
ENDBRANCH   1  24
TORSDOF 7
ENDMDL
