MODEL 1
REMARK VINA RESULT:      -7.4      0.000      0.000
REMARK  7 active torsions:
REMARK  status: ('A' for Active; 'I' for Inactive)
REMARK    1  A    between atoms: C2_2  and  C3_3 
REMARK    2  A    between atoms: C4_4  and  C5_5 
REMARK    3  A    between atoms: C6_6  and  C7_7 
REMARK    4  A    between atoms: C7_7  and  C8_8 
REMARK    5  A    between atoms: C8_8  and  N1_9 
REMARK    6  A    between atoms: C10_11  and  C11_12 
REMARK    7  A    between atoms: C14_15  and  C15_16 
ROOT
HETATM    1  N1  UNL     1      24.003  -0.839  54.620  1.00  0.00    -0.283 N 
HETATM    2  C9  UNL     1      23.139  -0.410  53.657  1.00  0.00     0.141 A 
HETATM    3  C10 UNL     1      21.845  -0.791  53.974  1.00  0.00     0.101 A 
HETATM    4  N4  UNL     1      21.980  -1.450  55.144  1.00  0.00    -0.158 NA
HETATM    5  N5  UNL     1      23.248  -1.476  55.520  1.00  0.00     0.005 NA
ENDROOT
BRANCH   3   6
HETATM    6  C11 UNL     1      20.616  -0.541  53.222  1.00  0.00    -0.007 A 
HETATM    7  C12 UNL     1      20.565   0.082  52.052  1.00  0.00    -0.008 A 
HETATM    8  C13 UNL     1      19.147   0.157  51.581  1.00  0.00     0.070 A 
HETATM    9  C14 UNL     1      18.435  -0.528  52.691  1.00  0.00    -0.005 A 
HETATM   10  C16 UNL     1      19.293  -0.924  53.629  1.00  0.00     0.025 A 
BRANCH   9  11
HETATM   11  C15 UNL     1      17.000  -0.747  52.765  1.00  0.00     0.170 A 
HETATM   12  N2  UNL     1      15.792  -0.283  52.933  1.00  0.00    -0.153 NA
HETATM   13  N3  UNL     1      15.874  -1.627  52.707  1.00  0.00    -0.257 N 
HETATM   14  H16 UNL     1      15.381  -2.540  52.595  1.00  0.00     0.191 HD
ENDBRANCH   9  11
ENDBRANCH   3   6
BRANCH   1  15
HETATM   15  C8  UNL     1      25.437  -0.595  54.573  1.00  0.00     0.149 C 
BRANCH  15  16
HETATM   16  C7  UNL     1      25.855  -0.497  53.118  1.00  0.00     0.048 C 
BRANCH  16  17
HETATM   17  C6  UNL     1      26.553  -1.743  52.768  1.00  0.00    -0.025 C 
HETATM   18  C5  UNL     1      27.802  -2.118  52.769  1.00  0.00    -0.008 C 
BRANCH  18  19
HETATM   19  C4  UNL     1      28.805  -1.142  53.199  1.00  0.00    -0.021 C 
HETATM   20  C3  UNL     1      29.322  -0.106  53.773  1.00  0.00     0.020 C 
BRANCH  20  21
HETATM   21  C2  UNL     1      28.924   1.007  54.593  1.00  0.00    -0.002 C 
HETATM   22  C1  UNL     1      28.676   1.972  53.687  1.00  0.00     0.006 C 
ENDBRANCH  20  21
ENDBRANCH  18  19
ENDBRANCH  16  17
ENDBRANCH  15  16
ENDBRANCH   1  15
TORSDOF 7
ENDMDL
MODEL 2
REMARK VINA RESULT:      -7.4      3.713      8.074
REMARK  7 active torsions:
REMARK  status: ('A' for Active; 'I' for Inactive)
REMARK    1  A    between atoms: C2_2  and  C3_3 
REMARK    2  A    between atoms: C4_4  and  C5_5 
REMARK    3  A    between atoms: C6_6  and  C7_7 
REMARK    4  A    between atoms: C7_7  and  C8_8 
REMARK    5  A    between atoms: C8_8  and  N1_9 
REMARK    6  A    between atoms: C10_11  and  C11_12 
REMARK    7  A    between atoms: C14_15  and  C15_16 
ROOT
HETATM    1  N1  UNL     1      23.571   2.780  50.982  1.00  0.00    -0.283 N 
HETATM    2  C9  UNL     1      24.242   1.921  51.801  1.00  0.00     0.141 A 
HETATM    3  C10 UNL     1      25.607   2.031  51.590  1.00  0.00     0.101 A 
HETATM    4  N4  UNL     1      25.711   2.973  50.630  1.00  0.00    -0.158 NA
HETATM    5  N5  UNL     1      24.514   3.411  50.276  1.00  0.00     0.005 NA
ENDROOT
BRANCH   3   6
HETATM    6  C11 UNL     1      26.688   1.300  52.250  1.00  0.00    -0.007 A 
HETATM    7  C12 UNL     1      27.662   1.868  52.949  1.00  0.00    -0.008 A 
HETATM    8  C13 UNL     1      28.585   0.815  53.476  1.00  0.00     0.070 A 
HETATM    9  C14 UNL     1      27.951  -0.420  52.947  1.00  0.00    -0.005 A 
HETATM   10  C16 UNL     1      26.861  -0.127  52.243  1.00  0.00     0.025 A 
BRANCH   9  11
HETATM   11  C15 UNL     1      28.437  -1.774  53.156  1.00  0.00     0.170 A 
HETATM   12  N2  UNL     1      29.358  -2.591  53.591  1.00  0.00    -0.153 NA
HETATM   13  N3  UNL     1      28.260  -3.188  53.040  1.00  0.00    -0.257 N 
HETATM   14  H16 UNL     1      27.767  -4.070  52.780  1.00  0.00     0.191 HD
ENDBRANCH   9  11
ENDBRANCH   3   6
BRANCH   1  15
HETATM   15  C8  UNL     1      22.121   2.899  50.967  1.00  0.00     0.149 C 
BRANCH  15  16
HETATM   16  C7  UNL     1      21.579   2.286  52.244  1.00  0.00     0.048 C 
BRANCH  16  17
HETATM   17  C6  UNL     1      20.656   1.206  51.866  1.00  0.00    -0.025 C 
HETATM   18  C5  UNL     1      20.204   0.142  52.470  1.00  0.00    -0.008 C 
BRANCH  18  19
HETATM   19  C4  UNL     1      20.668  -0.113  53.836  1.00  0.00    -0.021 C 
HETATM   20  C3  UNL     1      21.414  -0.527  54.806  1.00  0.00     0.020 C 
BRANCH  20  21
HETATM   21  C2  UNL     1      22.657  -1.220  55.016  1.00  0.00    -0.002 C 
HETATM   22  C1  UNL     1      23.438  -0.739  54.030  1.00  0.00     0.006 C 
ENDBRANCH  20  21
ENDBRANCH  18  19
ENDBRANCH  16  17
ENDBRANCH  15  16
ENDBRANCH   1  15
TORSDOF 7
ENDMDL
MODEL 3
REMARK VINA RESULT:      -7.2      2.704      7.601
REMARK  7 active torsions:
REMARK  status: ('A' for Active; 'I' for Inactive)
REMARK    1  A    between atoms: C2_2  and  C3_3 
REMARK    2  A    between atoms: C4_4  and  C5_5 
REMARK    3  A    between atoms: C6_6  and  C7_7 
REMARK    4  A    between atoms: C7_7  and  C8_8 
REMARK    5  A    between atoms: C8_8  and  N1_9 
REMARK    6  A    between atoms: C10_11  and  C11_12 
REMARK    7  A    between atoms: C14_15  and  C15_16 
ROOT
HETATM    1  N1  UNL     1      21.667  -0.755  54.005  1.00  0.00    -0.283 N 
HETATM    2  C9  UNL     1      22.788  -0.335  53.354  1.00  0.00     0.141 A 
HETATM    3  C10 UNL     1      23.916  -0.662  54.087  1.00  0.00     0.101 A 
HETATM    4  N4  UNL     1      23.423  -1.282  55.180  1.00  0.00    -0.158 NA
HETATM    5  N5  UNL     1      22.102  -1.335  55.128  1.00  0.00     0.005 NA
ENDROOT
BRANCH   3   6
HETATM    6  C11 UNL     1      25.317  -0.400  53.761  1.00  0.00    -0.007 A 
HETATM    7  C12 UNL     1      26.075  -1.191  53.013  1.00  0.00    -0.008 A 
HETATM    8  C13 UNL     1      27.448  -0.609  52.893  1.00  0.00     0.070 A 
HETATM    9  C14 UNL     1      27.311   0.631  53.701  1.00  0.00    -0.005 A 
HETATM   10  C16 UNL     1      26.080   0.738  54.195  1.00  0.00     0.025 A 
BRANCH   9  11
HETATM   11  C15 UNL     1      28.363   1.607  53.933  1.00  0.00     0.170 A 
HETATM   12  N2  UNL     1      29.254   2.143  54.721  1.00  0.00    -0.153 NA
HETATM   13  N3  UNL     1      29.181   2.684  53.469  1.00  0.00    -0.257 N 
HETATM   14  H16 UNL     1      29.535   3.388  52.785  1.00  0.00     0.191 HD
ENDBRANCH   9  11
ENDBRANCH   3   6
BRANCH   1  15
HETATM   15  C8  UNL     1      20.321  -0.557  53.488  1.00  0.00     0.149 C 
BRANCH  15  16
HETATM   16  C7  UNL     1      20.425   0.118  52.134  1.00  0.00     0.048 C 
BRANCH  16  17
HETATM   17  C6  UNL     1      19.683   1.384  52.207  1.00  0.00    -0.025 C 
HETATM   18  C5  UNL     1      20.029   2.642  52.230  1.00  0.00    -0.008 C 
BRANCH  18  19
HETATM   19  C4  UNL     1      21.458   2.955  52.177  1.00  0.00    -0.021 C 
HETATM   20  C3  UNL     1      22.697   2.914  51.811  1.00  0.00     0.020 C 
BRANCH  20  21
HETATM   21  C2  UNL     1      23.543   2.219  50.879  1.00  0.00    -0.002 C 
HETATM   22  C1  UNL     1      23.044   2.593  49.686  1.00  0.00     0.006 C 
ENDBRANCH  20  21
ENDBRANCH  18  19
ENDBRANCH  16  17
ENDBRANCH  15  16
ENDBRANCH   1  15
TORSDOF 7
ENDMDL
MODEL 4
REMARK VINA RESULT:      -7.2      1.534      2.233
REMARK  7 active torsions:
REMARK  status: ('A' for Active; 'I' for Inactive)
REMARK    1  A    between atoms: C2_2  and  C3_3 
REMARK    2  A    between atoms: C4_4  and  C5_5 
REMARK    3  A    between atoms: C6_6  and  C7_7 
REMARK    4  A    between atoms: C7_7  and  C8_8 
REMARK    5  A    between atoms: C8_8  and  N1_9 
REMARK    6  A    between atoms: C10_11  and  C11_12 
REMARK    7  A    between atoms: C14_15  and  C15_16 
ROOT
HETATM    1  N1  UNL     1      23.617  -0.839  54.542  1.00  0.00    -0.283 N 
HETATM    2  C9  UNL     1      22.700  -0.430  53.620  1.00  0.00     0.141 A 
HETATM    3  C10 UNL     1      21.444  -0.910  53.953  1.00  0.00     0.101 A 
HETATM    4  N4  UNL     1      21.655  -1.606  55.090  1.00  0.00    -0.158 NA
HETATM    5  N5  UNL     1      22.932  -1.562  55.432  1.00  0.00     0.005 NA
ENDROOT
BRANCH   3   6
HETATM    6  C11 UNL     1      20.181  -0.713  53.244  1.00  0.00    -0.007 A 
HETATM    7  C12 UNL     1      19.039  -1.308  53.563  1.00  0.00    -0.008 A 
HETATM    8  C13 UNL     1      17.961  -0.869  52.623  1.00  0.00     0.070 A 
HETATM    9  C14 UNL     1      18.707   0.064  51.740  1.00  0.00    -0.005 A 
HETATM   10  C16 UNL     1      19.983   0.144  52.108  1.00  0.00     0.025 A 
BRANCH   9  11
HETATM   11  C15 UNL     1      18.141   0.799  50.620  1.00  0.00     0.170 A 
HETATM   12  N2  UNL     1      17.282   1.664  50.154  1.00  0.00    -0.153 NA
HETATM   13  N3  UNL     1      18.115   1.109  49.224  1.00  0.00    -0.257 N 
HETATM   14  H16 UNL     1      18.414   1.045  48.227  1.00  0.00     0.191 HD
ENDBRANCH   9  11
ENDBRANCH   3   6
BRANCH   1  15
HETATM   15  C8  UNL     1      25.030  -0.497  54.468  1.00  0.00     0.149 C 
BRANCH  15  16
HETATM   16  C7  UNL     1      25.558  -0.939  53.117  1.00  0.00     0.048 C 
BRANCH  16  17
HETATM   17  C6  UNL     1      25.986   0.263  52.388  1.00  0.00    -0.025 C 
HETATM   18  C5  UNL     1      27.042   1.028  52.435  1.00  0.00    -0.008 C 
BRANCH  18  19
HETATM   19  C4  UNL     1      28.086   0.688  53.403  1.00  0.00    -0.021 C 
HETATM   20  C3  UNL     1      29.097   0.085  53.936  1.00  0.00     0.020 C 
BRANCH  20  21
HETATM   21  C2  UNL     1      30.014  -0.985  53.647  1.00  0.00    -0.002 C 
HETATM   22  C1  UNL     1      29.196  -1.984  53.267  1.00  0.00     0.006 C 
ENDBRANCH  20  21
ENDBRANCH  18  19
ENDBRANCH  16  17
ENDBRANCH  15  16
ENDBRANCH   1  15
TORSDOF 7
ENDMDL
MODEL 5
REMARK VINA RESULT:      -7.2      2.369      8.027
REMARK  7 active torsions:
REMARK  status: ('A' for Active; 'I' for Inactive)
REMARK    1  A    between atoms: C2_2  and  C3_3 
REMARK    2  A    between atoms: C4_4  and  C5_5 
REMARK    3  A    between atoms: C6_6  and  C7_7 
REMARK    4  A    between atoms: C7_7  and  C8_8 
REMARK    5  A    between atoms: C8_8  and  N1_9 
REMARK    6  A    between atoms: C10_11  and  C11_12 
REMARK    7  A    between atoms: C14_15  and  C15_16 
ROOT
HETATM    1  N1  UNL     1      21.586  -1.117  54.223  1.00  0.00    -0.283 N 
HETATM    2  C9  UNL     1      22.451  -0.401  53.450  1.00  0.00     0.141 A 
HETATM    3  C10 UNL     1      23.728  -0.460  53.984  1.00  0.00     0.101 A 
HETATM    4  N4  UNL     1      23.583  -1.227  55.085  1.00  0.00    -0.158 NA
HETATM    5  N5  UNL     1      22.324  -1.611  55.222  1.00  0.00     0.005 NA
ENDROOT
BRANCH   3   6
HETATM    6  C11 UNL     1      24.952   0.160  53.478  1.00  0.00    -0.007 A 
HETATM    7  C12 UNL     1      25.104   0.626  52.246  1.00  0.00    -0.008 A 
HETATM    8  C13 UNL     1      26.481   1.189  52.085  1.00  0.00     0.070 A 
HETATM    9  C14 UNL     1      27.052   0.951  53.436  1.00  0.00    -0.005 A 
HETATM   10  C16 UNL     1      26.162   0.358  54.227  1.00  0.00     0.025 A 
BRANCH   9  11
HETATM   11  C15 UNL     1      28.397   1.308  53.858  1.00  0.00     0.170 A 
HETATM   12  N2  UNL     1      29.198   2.049  54.575  1.00  0.00    -0.153 NA
HETATM   13  N3  UNL     1      29.811   1.109  53.796  1.00  0.00    -0.257 N 
HETATM   14  H16 UNL     1      30.700   0.664  53.476  1.00  0.00     0.191 HD
ENDBRANCH   9  11
ENDBRANCH   3   6
BRANCH   1  15
HETATM   15  C8  UNL     1      20.168  -1.246  53.924  1.00  0.00     0.149 C 
BRANCH  15  16
HETATM   16  C7  UNL     1      19.732  -0.021  53.145  1.00  0.00     0.048 C 
BRANCH  16  17
HETATM   17  C6  UNL     1      18.546  -0.389  52.358  1.00  0.00    -0.025 C 
HETATM   18  C5  UNL     1      18.118  -0.091  51.162  1.00  0.00    -0.008 C 
BRANCH  18  19
HETATM   19  C4  UNL     1      18.942   0.806  50.349  1.00  0.00    -0.021 C 
HETATM   20  C3  UNL     1      19.952   1.250  49.677  1.00  0.00     0.020 C 
BRANCH  20  21
HETATM   21  C2  UNL     1      21.275   0.842  49.287  1.00  0.00    -0.002 C 
HETATM   22  C1  UNL     1      22.062   1.535  50.131  1.00  0.00     0.006 C 
ENDBRANCH  20  21
ENDBRANCH  18  19
ENDBRANCH  16  17
ENDBRANCH  15  16
ENDBRANCH   1  15
TORSDOF 7
ENDMDL
MODEL 6
REMARK VINA RESULT:      -7.0      2.137      2.868
REMARK  7 active torsions:
REMARK  status: ('A' for Active; 'I' for Inactive)
REMARK    1  A    between atoms: C2_2  and  C3_3 
REMARK    2  A    between atoms: C4_4  and  C5_5 
REMARK    3  A    between atoms: C6_6  and  C7_7 
REMARK    4  A    between atoms: C7_7  and  C8_8 
REMARK    5  A    between atoms: C8_8  and  N1_9 
REMARK    6  A    between atoms: C10_11  and  C11_12 
REMARK    7  A    between atoms: C14_15  and  C15_16 
ROOT
HETATM    1  N1  UNL     1      23.345  -0.923  54.513  1.00  0.00    -0.283 N 
HETATM    2  C9  UNL     1      22.481  -0.447  53.573  1.00  0.00     0.141 A 
HETATM    3  C10 UNL     1      21.197  -0.897  53.834  1.00  0.00     0.101 A 
HETATM    4  N4  UNL     1      21.337  -1.645  54.949  1.00  0.00    -0.158 NA
HETATM    5  N5  UNL     1      22.600  -1.657  55.345  1.00  0.00     0.005 NA
ENDROOT
BRANCH   3   6
HETATM    6  C11 UNL     1      19.971  -0.628  53.084  1.00  0.00    -0.007 A 
HETATM    7  C12 UNL     1      18.782  -1.136  53.381  1.00  0.00    -0.008 A 
HETATM    8  C13 UNL     1      17.764  -0.645  52.400  1.00  0.00     0.070 A 
HETATM    9  C14 UNL     1      18.598   0.214  51.520  1.00  0.00    -0.005 A 
HETATM   10  C16 UNL     1      19.866   0.214  51.925  1.00  0.00     0.025 A 
BRANCH   9  11
HETATM   11  C15 UNL     1      18.118   0.961  50.369  1.00  0.00     0.170 A 
HETATM   12  N2  UNL     1      17.881   2.101  49.780  1.00  0.00    -0.153 NA
HETATM   13  N3  UNL     1      17.558   0.990  49.054  1.00  0.00    -0.257 N 
HETATM   14  H16 UNL     1      17.176   0.588  48.170  1.00  0.00     0.191 HD
ENDBRANCH   9  11
ENDBRANCH   3   6
BRANCH   1  15
HETATM   15  C8  UNL     1      24.770  -0.626  54.511  1.00  0.00     0.149 C 
BRANCH  15  16
HETATM   16  C7  UNL     1      25.304  -0.866  53.112  1.00  0.00     0.048 C 
BRANCH  16  17
HETATM   17  C6  UNL     1      26.715  -0.455  53.094  1.00  0.00    -0.025 C 
HETATM   18  C5  UNL     1      27.367   0.540  52.560  1.00  0.00    -0.008 C 
BRANCH  18  19
HETATM   19  C4  UNL     1      26.600   1.517  51.783  1.00  0.00    -0.021 C 
HETATM   20  C3  UNL     1      25.613   2.260  51.404  1.00  0.00     0.020 C 
BRANCH  20  21
HETATM   21  C2  UNL     1      24.252   2.547  51.769  1.00  0.00    -0.002 C 
HETATM   22  C1  UNL     1      24.355   2.871  53.072  1.00  0.00     0.006 C 
ENDBRANCH  20  21
ENDBRANCH  18  19
ENDBRANCH  16  17
ENDBRANCH  15  16
ENDBRANCH   1  15
TORSDOF 7
ENDMDL
MODEL 7
REMARK VINA RESULT:      -6.9      4.252      8.144
REMARK  7 active torsions:
REMARK  status: ('A' for Active; 'I' for Inactive)
REMARK    1  A    between atoms: C2_2  and  C3_3 
REMARK    2  A    between atoms: C4_4  and  C5_5 
REMARK    3  A    between atoms: C6_6  and  C7_7 
REMARK    4  A    between atoms: C7_7  and  C8_8 
REMARK    5  A    between atoms: C8_8  and  N1_9 
REMARK    6  A    between atoms: C10_11  and  C11_12 
REMARK    7  A    between atoms: C14_15  and  C15_16 
ROOT
HETATM    1  N1  UNL     1      24.289   3.888  51.131  1.00  0.00    -0.283 N 
HETATM    2  C9  UNL     1      24.519   3.004  52.143  1.00  0.00     0.141 A 
HETATM    3  C10 UNL     1      25.737   2.371  51.955  1.00  0.00     0.101 A 
HETATM    4  N4  UNL     1      26.207   2.909  50.810  1.00  0.00    -0.158 NA
HETATM    5  N5  UNL     1      25.354   3.799  50.329  1.00  0.00     0.005 NA
ENDROOT
BRANCH   3   6
HETATM    6  C11 UNL     1      26.372   1.358  52.796  1.00  0.00    -0.007 A 
HETATM    7  C12 UNL     1      26.401   1.392  54.122  1.00  0.00    -0.008 A 
HETATM    8  C13 UNL     1      27.132   0.196  54.642  1.00  0.00     0.070 A 
HETATM    9  C14 UNL     1      27.497  -0.495  53.378  1.00  0.00    -0.005 A 
HETATM   10  C16 UNL     1      27.054   0.184  52.324  1.00  0.00     0.025 A 
BRANCH   9  11
HETATM   11  C15 UNL     1      28.236  -1.744  53.282  1.00  0.00     0.170 A 
HETATM   12  N2  UNL     1      29.359  -2.402  53.367  1.00  0.00    -0.153 NA
HETATM   13  N3  UNL     1      28.269  -3.150  53.025  1.00  0.00    -0.257 N 
HETATM   14  H16 UNL     1      27.876  -4.085  52.777  1.00  0.00     0.191 HD
ENDBRANCH   9  11
ENDBRANCH   3   6
BRANCH   1  15
HETATM   15  C8  UNL     1      23.089   4.707  51.044  1.00  0.00     0.149 C 
BRANCH  15  16
HETATM   16  C7  UNL     1      21.940   3.824  50.598  1.00  0.00     0.048 C 
BRANCH  16  17
HETATM   17  C6  UNL     1      21.060   3.614  51.756  1.00  0.00    -0.025 C 
HETATM   18  C5  UNL     1      20.705   2.570  52.452  1.00  0.00    -0.008 C 
BRANCH  18  19
HETATM   19  C4  UNL     1      21.260   1.272  52.063  1.00  0.00    -0.021 C 
HETATM   20  C3  UNL     1      21.743   0.078  52.168  1.00  0.00     0.020 C 
BRANCH  20  21
HETATM   21  C2  UNL     1      22.080  -0.884  53.183  1.00  0.00    -0.002 C 
HETATM   22  C1  UNL     1      23.275  -0.447  53.623  1.00  0.00     0.006 C 
ENDBRANCH  20  21
ENDBRANCH  18  19
ENDBRANCH  16  17
ENDBRANCH  15  16
ENDBRANCH   1  15
TORSDOF 7
ENDMDL
MODEL 8
REMARK VINA RESULT:      -6.9      5.345      8.419
REMARK  7 active torsions:
REMARK  status: ('A' for Active; 'I' for Inactive)
REMARK    1  A    between atoms: C2_2  and  C3_3 
REMARK    2  A    between atoms: C4_4  and  C5_5 
REMARK    3  A    between atoms: C6_6  and  C7_7 
REMARK    4  A    between atoms: C7_7  and  C8_8 
REMARK    5  A    between atoms: C8_8  and  N1_9 
REMARK    6  A    between atoms: C10_11  and  C11_12 
REMARK    7  A    between atoms: C14_15  and  C15_16 
ROOT
HETATM    1  N1  UNL     1      24.706   3.613  50.553  1.00  0.00    -0.283 N 
HETATM    2  C9  UNL     1      25.635   2.684  50.918  1.00  0.00     0.141 A 
HETATM    3  C10 UNL     1      25.381   2.238  52.206  1.00  0.00     0.101 A 
HETATM    4  N4  UNL     1      24.284   2.930  52.577  1.00  0.00    -0.158 NA
HETATM    5  N5  UNL     1      23.891   3.736  51.605  1.00  0.00     0.005 NA
ENDROOT
BRANCH   3   6
HETATM    6  C11 UNL     1      26.124   1.249  52.985  1.00  0.00    -0.007 A 
HETATM    7  C12 UNL     1      26.244   1.269  54.306  1.00  0.00    -0.008 A 
HETATM    8  C13 UNL     1      27.070   0.106  54.756  1.00  0.00     0.070 A 
HETATM    9  C14 UNL     1      27.379  -0.551  53.459  1.00  0.00    -0.005 A 
HETATM   10  C16 UNL     1      26.829   0.117  52.449  1.00  0.00     0.025 A 
BRANCH   9  11
HETATM   11  C15 UNL     1      28.171  -1.759  53.293  1.00  0.00     0.170 A 
HETATM   12  N2  UNL     1      29.328  -2.363  53.304  1.00  0.00    -0.153 NA
HETATM   13  N3  UNL     1      28.259  -3.155  52.998  1.00  0.00    -0.257 N 
HETATM   14  H16 UNL     1      27.899  -4.102  52.746  1.00  0.00     0.191 HD
ENDBRANCH   9  11
ENDBRANCH   3   6
BRANCH   1  15
HETATM   15  C8  UNL     1      24.704   4.272  49.255  1.00  0.00     0.149 C 
BRANCH  15  16
HETATM   16  C7  UNL     1      25.723   5.394  49.289  1.00  0.00     0.048 C 
BRANCH  16  17
HETATM   17  C6  UNL     1      27.024   4.830  48.904  1.00  0.00    -0.025 C 
HETATM   18  C5  UNL     1      28.120   5.329  48.402  1.00  0.00    -0.008 C 
BRANCH  18  19
HETATM   19  C4  UNL     1      28.150   6.767  48.128  1.00  0.00    -0.021 C 
HETATM   20  C3  UNL     1      28.207   8.040  48.336  1.00  0.00     0.020 C 
BRANCH  20  21
HETATM   21  C2  UNL     1      28.314   8.970  49.429  1.00  0.00    -0.002 C 
HETATM   22  C1  UNL     1      27.105   8.883  50.014  1.00  0.00     0.006 C 
ENDBRANCH  20  21
ENDBRANCH  18  19
ENDBRANCH  16  17
ENDBRANCH  15  16
ENDBRANCH   1  15
TORSDOF 7
ENDMDL
MODEL 9
REMARK VINA RESULT:      -6.9      3.161      8.051
REMARK  7 active torsions:
REMARK  status: ('A' for Active; 'I' for Inactive)
REMARK    1  A    between atoms: C2_2  and  C3_3 
REMARK    2  A    between atoms: C4_4  and  C5_5 
REMARK    3  A    between atoms: C6_6  and  C7_7 
REMARK    4  A    between atoms: C7_7  and  C8_8 
REMARK    5  A    between atoms: C8_8  and  N1_9 
REMARK    6  A    between atoms: C10_11  and  C11_12 
REMARK    7  A    between atoms: C14_15  and  C15_16 
ROOT
HETATM    1  N1  UNL     1      21.402   2.439  51.537  1.00  0.00    -0.283 N 
HETATM    2  C9  UNL     1      22.410   1.532  51.671  1.00  0.00     0.141 A 
HETATM    3  C10 UNL     1      23.476   2.101  52.348  1.00  0.00     0.101 A 
HETATM    4  N4  UNL     1      23.062   3.361  52.602  1.00  0.00    -0.158 NA
HETATM    5  N5  UNL     1      21.844   3.555  52.125  1.00  0.00     0.005 NA
ENDROOT
BRANCH   3   6
HETATM    6  C11 UNL     1      24.754   1.489  52.706  1.00  0.00    -0.007 A 
HETATM    7  C12 UNL     1      25.055   0.211  52.515  1.00  0.00    -0.008 A 
HETATM    8  C13 UNL     1      26.444  -0.060  53.000  1.00  0.00     0.070 A 
HETATM    9  C14 UNL     1      26.848   1.284  53.488  1.00  0.00    -0.005 A 
HETATM   10  C16 UNL     1      25.867   2.165  53.313  1.00  0.00     0.025 A 
BRANCH   9  11
HETATM   11  C15 UNL     1      28.135   1.615  54.079  1.00  0.00     0.170 A 
HETATM   12  N2  UNL     1      29.044   1.416  54.994  1.00  0.00    -0.153 NA
HETATM   13  N3  UNL     1      29.334   2.395  54.087  1.00  0.00    -0.257 N 
HETATM   14  H16 UNL     1      30.000   3.124  53.751  1.00  0.00     0.191 HD
ENDBRANCH   9  11
ENDBRANCH   3   6
BRANCH   1  15
HETATM   15  C8  UNL     1      20.143   2.141  50.868  1.00  0.00     0.149 C 
BRANCH  15  16
HETATM   16  C7  UNL     1      20.090   0.651  50.596  1.00  0.00     0.048 C 
BRANCH  16  17
HETATM   17  C6  UNL     1      18.902   0.114  51.275  1.00  0.00    -0.025 C 
HETATM   18  C5  UNL     1      18.655  -0.298  52.487  1.00  0.00    -0.008 C 
BRANCH  18  19
HETATM   19  C4  UNL     1      19.750  -0.252  53.458  1.00  0.00    -0.021 C 
HETATM   20  C3  UNL     1      20.795  -0.613  54.126  1.00  0.00     0.020 C 
BRANCH  20  21
HETATM   21  C2  UNL     1      21.714  -1.717  54.215  1.00  0.00    -0.002 C 
HETATM   22  C1  UNL     1      22.690  -1.230  55.003  1.00  0.00     0.006 C 
ENDBRANCH  20  21
ENDBRANCH  18  19
ENDBRANCH  16  17
ENDBRANCH  15  16
ENDBRANCH   1  15
TORSDOF 7
ENDMDL
