MODEL 1
REMARK VINA RESULT:      -9.2      0.000      0.000
REMARK  7 active torsions:
REMARK  status: ('A' for Active; 'I' for Inactive)
REMARK       I    between atoms: C1_2  and  N1_3 
REMARK       I    between atoms: C1_2  and  N6_23 
REMARK    1  A    between atoms: N1_3  and  C2_4 
REMARK    2  A    between atoms: C2_4  and  C3_5 
REMARK    3  A    between atoms: C3_5  and  C4_6 
REMARK    4  A    between atoms: C4_6  and  C5_7 
REMARK    5  A    between atoms: N6_23  and  C16_24 
REMARK    6  A    between atoms: C16_24  and  C17_25 
REMARK    7  A    between atoms: C17_25  and  N7_26 
ROOT
HETATM    1  C5  UNL     1      30.023   6.658  48.265  1.00  0.00     0.068 A 
HETATM    2  N2  UNL     1      29.586   7.827  48.787  1.00  0.00    -0.241 NA
HETATM    3  C6  UNL     1      30.468   8.751  49.183  1.00  0.00     0.235 A 
HETATM    4  N3  UNL     1      31.761   8.490  49.048  1.00  0.00    -0.224 NA
HETATM    5  C7  UNL     1      32.277   7.382  48.550  1.00  0.00     0.136 A 
HETATM    6  C8  UNL     1      31.357   6.406  48.135  1.00  0.00     0.022 A 
HETATM    7  C9  UNL     1      31.338   5.218  47.557  1.00  0.00     0.039 C 
HETATM    8  C10 UNL     1      31.644   3.945  46.943  1.00  0.00     0.069 C 
HETATM    9  P1  UNL     1      33.341   4.086  46.056  1.00  0.00     0.096 P 
HETATM   10  C11 UNL     1      34.511   4.851  47.311  1.00  0.00     0.219 A 
HETATM   11  C12 UNL     1      35.009   4.120  48.369  1.00  0.00     0.007 A 
HETATM   12  C13 UNL     1      34.852   5.487  48.650  1.00  0.00     0.118 A 
HETATM   13  C14 UNL     1      34.370   6.261  47.656  1.00  0.00     0.251 A 
HETATM   14  C15 UNL     1      33.876   6.952  46.580  1.00  0.00     0.246 A 
HETATM   15  N4  UNL     1      34.020   5.640  46.304  1.00  0.00     0.014 N 
HETATM   16  N5  UNL     1      33.732   7.341  48.418  1.00  0.00    -0.337 N 
HETATM   17  H9  UNL     1      33.736   2.708  45.814  1.00  0.00     0.085 HD
HETATM   18  H13 UNL     1      34.274   8.093  48.883  1.00  0.00     0.164 HD
ENDROOT
BRANCH   1  19
HETATM   19  C4  UNL     1      28.988   5.908  47.951  1.00  0.00     0.034 C 
BRANCH  19  20
HETATM   20  C3  UNL     1      27.639   6.067  48.375  1.00  0.00     0.019 C 
BRANCH  20  21
HETATM   21  C2  UNL     1      26.569   5.626  48.978  1.00  0.00     0.093 C 
BRANCH  21  22
HETATM   22  N1  UNL     1      26.050   5.012  50.138  1.00  0.00    -0.319 N 
HETATM   23  C1  UNL     1      26.254   3.646  50.472  1.00  0.00     0.320 C 
HETATM   24  O1  UNL     1      26.934   2.865  49.736  1.00  0.00    -0.247 OA
HETATM   25  N6  UNL     1      25.724   3.040  51.646  1.00  0.00    -0.341 N 
HETATM   26  H14 UNL     1      25.169   3.744  52.211  1.00  0.00     0.164 HD
HETATM   27  H1  UNL     1      25.491   5.625  50.759  1.00  0.00     0.170 HD
BRANCH  25  28
HETATM   28  C16 UNL     1      26.122   1.624  51.688  1.00  0.00     0.154 C 
BRANCH  28  29
HETATM   29  C17 UNL     1      27.037   1.478  52.862  1.00  0.00     0.292 C 
BRANCH  29  30
HETATM   30  N7  UNL     1      26.857   0.274  53.613  1.00  0.00     0.090 N 
HETATM   31  C18 UNL     1      27.093  -0.830  52.695  1.00  0.00     0.272 C 
HETATM   32  C19 UNL     1      28.313  -1.620  53.067  1.00  0.00     0.030 C 
HETATM   33  C20 UNL     1      29.489  -0.809  53.495  1.00  0.00     0.003 C 
HETATM   34  C21 UNL     1      29.098   0.325  54.406  1.00  0.00     0.030 C 
HETATM   35  C22 UNL     1      27.665   0.170  54.791  1.00  0.00     0.272 C 
ENDBRANCH  29  30
ENDBRANCH  28  29
ENDBRANCH  25  28
ENDBRANCH  21  22
ENDBRANCH  20  21
ENDBRANCH  19  20
ENDBRANCH   1  19
TORSDOF 7
ENDMDL
MODEL 2
REMARK VINA RESULT:      -8.5      2.437      3.107
REMARK  7 active torsions:
REMARK  status: ('A' for Active; 'I' for Inactive)
REMARK       I    between atoms: C1_2  and  N1_3 
REMARK       I    between atoms: C1_2  and  N6_23 
REMARK    1  A    between atoms: N1_3  and  C2_4 
REMARK    2  A    between atoms: C2_4  and  C3_5 
REMARK    3  A    between atoms: C3_5  and  C4_6 
REMARK    4  A    between atoms: C4_6  and  C5_7 
REMARK    5  A    between atoms: N6_23  and  C16_24 
REMARK    6  A    between atoms: C16_24  and  C17_25 
REMARK    7  A    between atoms: C17_25  and  N7_26 
ROOT
HETATM    1  C5  UNL     1      29.618   6.559  48.249  1.00  0.00     0.068 A 
HETATM    2  N2  UNL     1      28.884   7.654  48.550  1.00  0.00    -0.241 NA
HETATM    3  C6  UNL     1      29.481   8.845  48.669  1.00  0.00     0.235 A 
HETATM    4  N3  UNL     1      30.792   8.916  48.483  1.00  0.00    -0.224 NA
HETATM    5  C7  UNL     1      31.586   7.905  48.185  1.00  0.00     0.136 A 
HETATM    6  C8  UNL     1      30.966   6.651  48.061  1.00  0.00     0.022 A 
HETATM    7  C9  UNL     1      31.266   5.403  47.748  1.00  0.00     0.039 C 
HETATM    8  C10 UNL     1      31.902   4.155  47.388  1.00  0.00     0.069 C 
HETATM    9  P1  UNL     1      33.470   4.543  46.352  1.00  0.00     0.096 P 
HETATM   10  C11 UNL     1      34.409   5.854  47.316  1.00  0.00     0.219 A 
HETATM   11  C12 UNL     1      35.117   5.539  48.457  1.00  0.00     0.007 A 
HETATM   12  C13 UNL     1      34.589   6.840  48.459  1.00  0.00     0.118 A 
HETATM   13  C14 UNL     1      33.887   7.215  47.370  1.00  0.00     0.251 A 
HETATM   14  C15 UNL     1      33.195   7.490  46.219  1.00  0.00     0.246 A 
HETATM   15  N4  UNL     1      33.694   6.237  46.212  1.00  0.00     0.014 N 
HETATM   16  N5  UNL     1      32.990   8.226  47.941  1.00  0.00    -0.337 N 
HETATM   17  H9  UNL     1      34.230   3.303  46.369  1.00  0.00     0.085 HD
HETATM   18  H13 UNL     1      33.311   9.180  48.192  1.00  0.00     0.164 HD
ENDROOT
BRANCH   1  19
HETATM   19  C4  UNL     1      28.827   5.508  48.186  1.00  0.00     0.034 C 
BRANCH  19  20
HETATM   20  C3  UNL     1      27.490   5.399  48.659  1.00  0.00     0.019 C 
BRANCH  20  21
HETATM   21  C2  UNL     1      26.553   4.761  49.308  1.00  0.00     0.093 C 
BRANCH  21  22
HETATM   22  N1  UNL     1      25.648   4.798  50.389  1.00  0.00    -0.319 N 
HETATM   23  C1  UNL     1      25.289   3.662  51.165  1.00  0.00     0.320 C 
HETATM   24  O1  UNL     1      25.769   2.509  50.934  1.00  0.00    -0.247 OA
HETATM   25  N6  UNL     1      24.374   3.716  52.253  1.00  0.00    -0.341 N 
HETATM   26  H14 UNL     1      24.012   4.702  52.389  1.00  0.00     0.164 HD
HETATM   27  H1  UNL     1      25.240   5.727  50.602  1.00  0.00     0.170 HD
BRANCH  25  28
HETATM   28  C16 UNL     1      24.228   2.372  52.837  1.00  0.00     0.154 C 
BRANCH  28  29
HETATM   29  C17 UNL     1      22.798   1.980  52.643  1.00  0.00     0.292 C 
BRANCH  29  30
HETATM   30  N7  UNL     1      22.595   0.601  52.324  1.00  0.00     0.090 N 
HETATM   31  C18 UNL     1      23.451  -0.165  53.218  1.00  0.00     0.272 C 
HETATM   32  C19 UNL     1      22.655  -1.002  54.176  1.00  0.00     0.030 C 
HETATM   33  C20 UNL     1      21.459  -0.335  54.763  1.00  0.00     0.003 C 
HETATM   34  C21 UNL     1      20.690   0.459  53.739  1.00  0.00     0.030 C 
HETATM   35  C22 UNL     1      21.233   0.162  52.381  1.00  0.00     0.272 C 
ENDBRANCH  29  30
ENDBRANCH  28  29
ENDBRANCH  25  28
ENDBRANCH  21  22
ENDBRANCH  20  21
ENDBRANCH  19  20
ENDBRANCH   1  19
TORSDOF 7
ENDMDL
MODEL 3
REMARK VINA RESULT:      -8.3      4.019      9.806
REMARK  7 active torsions:
REMARK  status: ('A' for Active; 'I' for Inactive)
REMARK       I    between atoms: C1_2  and  N1_3 
REMARK       I    between atoms: C1_2  and  N6_23 
REMARK    1  A    between atoms: N1_3  and  C2_4 
REMARK    2  A    between atoms: C2_4  and  C3_5 
REMARK    3  A    between atoms: C3_5  and  C4_6 
REMARK    4  A    between atoms: C4_6  and  C5_7 
REMARK    5  A    between atoms: N6_23  and  C16_24 
REMARK    6  A    between atoms: C16_24  and  C17_25 
REMARK    7  A    between atoms: C17_25  and  N7_26 
ROOT
HETATM    1  C5  UNL     1      23.781   1.468  52.059  1.00  0.00     0.068 A 
HETATM    2  N2  UNL     1      22.533   0.977  52.233  1.00  0.00    -0.241 NA
HETATM    3  C6  UNL     1      22.346  -0.127  52.964  1.00  0.00     0.235 A 
HETATM    4  N3  UNL     1      23.406  -0.715  53.504  1.00  0.00    -0.224 NA
HETATM    5  C7  UNL     1      24.656  -0.308  53.389  1.00  0.00     0.136 A 
HETATM    6  C8  UNL     1      24.859   0.850  52.621  1.00  0.00     0.022 A 
HETATM    7  C9  UNL     1      25.838   1.659  52.254  1.00  0.00     0.039 C 
HETATM    8  C10 UNL     1      27.097   2.328  52.014  1.00  0.00     0.069 C 
HETATM    9  P1  UNL     1      28.287   1.933  53.468  1.00  0.00     0.096 P 
HETATM   10  C11 UNL     1      28.220   0.069  53.693  1.00  0.00     0.219 A 
HETATM   11  C12 UNL     1      28.848  -0.785  52.812  1.00  0.00     0.007 A 
HETATM   12  C13 UNL     1      27.689  -1.324  53.392  1.00  0.00     0.118 A 
HETATM   13  C14 UNL     1      27.025  -0.540  54.266  1.00  0.00     0.251 A 
HETATM   14  C15 UNL     1      26.431   0.337  55.137  1.00  0.00     0.246 A 
HETATM   15  N4  UNL     1      27.541   0.863  54.580  1.00  0.00     0.014 N 
HETATM   16  N5  UNL     1      25.659  -1.061  54.139  1.00  0.00    -0.337 N 
HETATM   17  H9  UNL     1      29.601   2.306  52.969  1.00  0.00     0.085 HD
HETATM   18  H13 UNL     1      25.362  -1.962  54.559  1.00  0.00     0.164 HD
ENDROOT
BRANCH   1  19
HETATM   19  C4  UNL     1      23.724   2.549  51.310  1.00  0.00     0.034 C 
BRANCH  19  20
HETATM   20  C3  UNL     1      23.194   3.822  51.662  1.00  0.00     0.019 C 
BRANCH  20  21
HETATM   21  C2  UNL     1      23.339   5.097  51.897  1.00  0.00     0.093 C 
BRANCH  21  22
HETATM   22  N1  UNL     1      24.239   6.183  51.939  1.00  0.00    -0.319 N 
HETATM   23  C1  UNL     1      25.028   6.605  50.834  1.00  0.00     0.320 C 
HETATM   24  O1  UNL     1      24.976   6.021  49.706  1.00  0.00    -0.247 OA
HETATM   25  N6  UNL     1      25.932   7.702  50.892  1.00  0.00    -0.341 N 
HETATM   26  H14 UNL     1      25.927   8.139  51.856  1.00  0.00     0.164 HD
HETATM   27  H1  UNL     1      24.304   6.679  52.846  1.00  0.00     0.170 HD
BRANCH  25  28
HETATM   28  C16 UNL     1      26.583   7.869  49.581  1.00  0.00     0.154 C 
BRANCH  28  29
HETATM   29  C17 UNL     1      27.585   8.967  49.745  1.00  0.00     0.292 C 
BRANCH  29  30
HETATM   30  N7  UNL     1      28.064   9.525  48.519  1.00  0.00     0.090 N 
HETATM   31  C18 UNL     1      28.241  10.951  48.748  1.00  0.00     0.272 C 
HETATM   32  C19 UNL     1      29.683  11.358  48.674  1.00  0.00     0.030 C 
HETATM   33  C20 UNL     1      30.642  10.425  49.330  1.00  0.00     0.003 C 
HETATM   34  C21 UNL     1      30.318   8.982  49.046  1.00  0.00     0.030 C 
HETATM   35  C22 UNL     1      29.253   8.916  48.002  1.00  0.00     0.272 C 
ENDBRANCH  29  30
ENDBRANCH  28  29
ENDBRANCH  25  28
ENDBRANCH  21  22
ENDBRANCH  20  21
ENDBRANCH  19  20
ENDBRANCH   1  19
TORSDOF 7
ENDMDL
MODEL 4
REMARK VINA RESULT:      -8.2      2.703      3.958
REMARK  7 active torsions:
REMARK  status: ('A' for Active; 'I' for Inactive)
REMARK       I    between atoms: C1_2  and  N1_3 
REMARK       I    between atoms: C1_2  and  N6_23 
REMARK    1  A    between atoms: N1_3  and  C2_4 
REMARK    2  A    between atoms: C2_4  and  C3_5 
REMARK    3  A    between atoms: C3_5  and  C4_6 
REMARK    4  A    between atoms: C4_6  and  C5_7 
REMARK    5  A    between atoms: N6_23  and  C16_24 
REMARK    6  A    between atoms: C16_24  and  C17_25 
REMARK    7  A    between atoms: C17_25  and  N7_26 
ROOT
HETATM    1  C5  UNL     1      27.117   7.045  48.609  1.00  0.00     0.068 A 
HETATM    2  N2  UNL     1      26.456   5.908  48.922  1.00  0.00    -0.241 NA
HETATM    3  C6  UNL     1      27.092   4.733  48.880  1.00  0.00     0.235 A 
HETATM    4  N3  UNL     1      28.371   4.719  48.529  1.00  0.00    -0.224 NA
HETATM    5  C7  UNL     1      29.095   5.775  48.210  1.00  0.00     0.136 A 
HETATM    6  C8  UNL     1      28.432   7.012  48.250  1.00  0.00     0.022 A 
HETATM    7  C9  UNL     1      28.685   8.299  48.084  1.00  0.00     0.039 C 
HETATM    8  C10 UNL     1      29.262   9.599  47.823  1.00  0.00     0.069 C 
HETATM    9  P1  UNL     1      31.143   9.519  48.194  1.00  0.00     0.096 P 
HETATM   10  C11 UNL     1      31.778   7.992  47.302  1.00  0.00     0.219 A 
HETATM   11  C12 UNL     1      31.943   7.976  45.933  1.00  0.00     0.007 A 
HETATM   12  C13 UNL     1      31.611   6.725  46.478  1.00  0.00     0.118 A 
HETATM   13  C14 UNL     1      31.436   6.670  47.814  1.00  0.00     0.251 A 
HETATM   14  C15 UNL     1      31.283   6.727  49.175  1.00  0.00     0.246 A 
HETATM   15  N4  UNL     1      31.598   7.932  48.659  1.00  0.00     0.014 N 
HETATM   16  N5  UNL     1      30.511   5.537  47.935  1.00  0.00    -0.337 N 
HETATM   17  H9  UNL     1      31.688  10.706  47.554  1.00  0.00     0.085 HD
HETATM   18  H13 UNL     1      30.816   4.551  47.828  1.00  0.00     0.164 HD
ENDROOT
BRANCH   1  19
HETATM   19  C4  UNL     1      26.298   8.070  48.717  1.00  0.00     0.034 C 
BRANCH  19  20
HETATM   20  C3  UNL     1      25.158   8.186  49.561  1.00  0.00     0.019 C 
BRANCH  20  21
HETATM   21  C2  UNL     1      24.532   7.937  50.680  1.00  0.00     0.093 C 
BRANCH  21  22
HETATM   22  N1  UNL     1      24.368   7.036  51.753  1.00  0.00    -0.319 N 
HETATM   23  C1  UNL     1      23.896   5.704  51.607  1.00  0.00     0.320 C 
HETATM   24  O1  UNL     1      23.582   5.219  50.475  1.00  0.00    -0.247 OA
HETATM   25  N6  UNL     1      23.736   4.807  52.700  1.00  0.00    -0.341 N 
HETATM   26  H14 UNL     1      24.014   5.274  53.610  1.00  0.00     0.164 HD
HETATM   27  H1  UNL     1      24.617   7.404  52.690  1.00  0.00     0.170 HD
BRANCH  25  28
HETATM   28  C16 UNL     1      23.234   3.515  52.204  1.00  0.00     0.154 C 
BRANCH  28  29
HETATM   29  C17 UNL     1      23.847   2.462  53.070  1.00  0.00     0.292 C 
BRANCH  29  30
HETATM   30  N7  UNL     1      24.555   1.442  52.359  1.00  0.00     0.090 N 
HETATM   31  C18 UNL     1      25.346   2.115  51.339  1.00  0.00     0.272 C 
HETATM   32  C19 UNL     1      26.818   1.974  51.587  1.00  0.00     0.030 C 
HETATM   33  C20 UNL     1      27.243   2.127  53.007  1.00  0.00     0.003 C 
HETATM   34  C21 UNL     1      26.314   1.419  53.959  1.00  0.00     0.030 C 
HETATM   35  C22 UNL     1      25.357   0.582  53.176  1.00  0.00     0.272 C 
ENDBRANCH  29  30
ENDBRANCH  28  29
ENDBRANCH  25  28
ENDBRANCH  21  22
ENDBRANCH  20  21
ENDBRANCH  19  20
ENDBRANCH   1  19
TORSDOF 7
ENDMDL
MODEL 5
REMARK VINA RESULT:      -8.2      1.950      3.043
REMARK  7 active torsions:
REMARK  status: ('A' for Active; 'I' for Inactive)
REMARK       I    between atoms: C1_2  and  N1_3 
REMARK       I    between atoms: C1_2  and  N6_23 
REMARK    1  A    between atoms: N1_3  and  C2_4 
REMARK    2  A    between atoms: C2_4  and  C3_5 
REMARK    3  A    between atoms: C3_5  and  C4_6 
REMARK    4  A    between atoms: C4_6  and  C5_7 
REMARK    5  A    between atoms: N6_23  and  C16_24 
REMARK    6  A    between atoms: C16_24  and  C17_25 
REMARK    7  A    between atoms: C17_25  and  N7_26 
ROOT
HETATM    1  C5  UNL     1      31.011   6.042  47.868  1.00  0.00     0.068 A 
HETATM    2  N2  UNL     1      31.269   4.743  48.141  1.00  0.00    -0.241 NA
HETATM    3  C6  UNL     1      32.462   4.222  47.837  1.00  0.00     0.235 A 
HETATM    4  N3  UNL     1      33.370   5.007  47.271  1.00  0.00    -0.224 NA
HETATM    5  C7  UNL     1      33.208   6.281  46.971  1.00  0.00     0.136 A 
HETATM    6  C8  UNL     1      31.956   6.835  47.285  1.00  0.00     0.022 A 
HETATM    7  C9  UNL     1      31.327   7.996  47.246  1.00  0.00     0.039 C 
HETATM    8  C10 UNL     1      30.916   9.370  47.060  1.00  0.00     0.069 C 
HETATM    9  P1  UNL     1      32.478  10.485  47.086  1.00  0.00     0.096 P 
HETATM   10  C11 UNL     1      33.700   9.682  45.907  1.00  0.00     0.219 A 
HETATM   11  C12 UNL     1      33.541   9.763  44.540  1.00  0.00     0.007 A 
HETATM   12  C13 UNL     1      34.169   8.582  44.967  1.00  0.00     0.118 A 
HETATM   13  C14 UNL     1      34.359   8.439  46.294  1.00  0.00     0.251 A 
HETATM   14  C15 UNL     1      34.502   8.397  47.657  1.00  0.00     0.246 A 
HETATM   15  N4  UNL     1      33.894   9.532  47.255  1.00  0.00     0.014 N 
HETATM   16  N5  UNL     1      34.372   6.978  46.426  1.00  0.00    -0.337 N 
HETATM   17  H9  UNL     1      32.030  11.747  46.520  1.00  0.00     0.085 HD
HETATM   18  H13 UNL     1      35.183   6.397  46.141  1.00  0.00     0.164 HD
ENDROOT
BRANCH   1  19
HETATM   19  C4  UNL     1      29.785   6.332  48.249  1.00  0.00     0.034 C 
BRANCH  19  20
HETATM   20  C3  UNL     1      28.634   5.498  48.179  1.00  0.00     0.019 C 
BRANCH  20  21
HETATM   21  C2  UNL     1      27.551   4.995  48.707  1.00  0.00     0.093 C 
BRANCH  21  22
HETATM   22  N1  UNL     1      26.780   4.850  49.879  1.00  0.00    -0.319 N 
HETATM   23  C1  UNL     1      26.426   3.597  50.448  1.00  0.00     0.320 C 
HETATM   24  O1  UNL     1      26.787   2.495  49.930  1.00  0.00    -0.247 OA
HETATM   25  N6  UNL     1      25.647   3.468  51.632  1.00  0.00    -0.341 N 
HETATM   26  H14 UNL     1      25.380   4.421  52.009  1.00  0.00     0.164 HD
HETATM   27  H1  UNL     1      26.471   5.734  50.325  1.00  0.00     0.170 HD
BRANCH  25  28
HETATM   28  C16 UNL     1      25.467   2.041  51.946  1.00  0.00     0.154 C 
BRANCH  28  29
HETATM   29  C17 UNL     1      26.071   1.826  53.297  1.00  0.00     0.292 C 
BRANCH  29  30
HETATM   30  N7  UNL     1      25.882   0.514  53.833  1.00  0.00     0.090 N 
HETATM   31  C18 UNL     1      26.044  -0.417  52.727  1.00  0.00     0.272 C 
HETATM   32  C19 UNL     1      27.251  -1.291  52.900  1.00  0.00     0.030 C 
HETATM   33  C20 UNL     1      28.469  -0.598  53.409  1.00  0.00     0.003 C 
HETATM   34  C21 UNL     1      28.153   0.368  54.521  1.00  0.00     0.030 C 
HETATM   35  C22 UNL     1      26.732   0.184  54.938  1.00  0.00     0.272 C 
ENDBRANCH  29  30
ENDBRANCH  28  29
ENDBRANCH  25  28
ENDBRANCH  21  22
ENDBRANCH  20  21
ENDBRANCH  19  20
ENDBRANCH   1  19
TORSDOF 7
ENDMDL
MODEL 6
REMARK VINA RESULT:      -8.0      8.094     12.226
REMARK  7 active torsions:
REMARK  status: ('A' for Active; 'I' for Inactive)
REMARK       I    between atoms: C1_2  and  N1_3 
REMARK       I    between atoms: C1_2  and  N6_23 
REMARK    1  A    between atoms: N1_3  and  C2_4 
REMARK    2  A    between atoms: C2_4  and  C3_5 
REMARK    3  A    between atoms: C3_5  and  C4_6 
REMARK    4  A    between atoms: C4_6  and  C5_7 
REMARK    5  A    between atoms: N6_23  and  C16_24 
REMARK    6  A    between atoms: C16_24  and  C17_25 
REMARK    7  A    between atoms: C17_25  and  N7_26 
ROOT
HETATM    1  C5  UNL     1      22.020   0.566  53.286  1.00  0.00     0.068 A 
HETATM    2  N2  UNL     1      21.127   0.021  54.143  1.00  0.00    -0.241 NA
HETATM    3  C6  UNL     1      21.537  -0.849  55.071  1.00  0.00     0.235 A 
HETATM    4  N3  UNL     1      22.827  -1.155  55.125  1.00  0.00    -0.224 NA
HETATM    5  C7  UNL     1      23.767  -0.673  54.334  1.00  0.00     0.136 A 
HETATM    6  C8  UNL     1      23.343   0.240  53.355  1.00  0.00     0.022 A 
HETATM    7  C9  UNL     1      23.846   1.007  52.405  1.00  0.00     0.039 C 
HETATM    8  C10 UNL     1      24.681   1.705  51.452  1.00  0.00     0.069 C 
HETATM    9  P1  UNL     1      26.450   1.852  52.180  1.00  0.00     0.096 P 
HETATM   10  C11 UNL     1      26.906   0.127  52.770  1.00  0.00     0.219 A 
HETATM   11  C12 UNL     1      27.243  -0.872  51.881  1.00  0.00     0.007 A 
HETATM   12  C13 UNL     1      26.619  -1.340  53.048  1.00  0.00     0.118 A 
HETATM   13  C14 UNL     1      26.264  -0.415  53.962  1.00  0.00     0.251 A 
HETATM   14  C15 UNL     1      25.947   0.606  54.821  1.00  0.00     0.246 A 
HETATM   15  N4  UNL     1      26.542   1.065  53.700  1.00  0.00     0.014 N 
HETATM   16  N5  UNL     1      25.139  -1.084  54.626  1.00  0.00    -0.337 N 
HETATM   17  H9  UNL     1      27.282   2.200  51.039  1.00  0.00     0.085 HD
HETATM   18  H13 UNL     1      25.270  -1.858  55.305  1.00  0.00     0.164 HD
ENDROOT
BRANCH   1  19
HETATM   19  C4  UNL     1      21.395   1.385  52.466  1.00  0.00     0.034 C 
BRANCH  19  20
HETATM   20  C3  UNL     1      20.471   1.046  51.439  1.00  0.00     0.019 C 
BRANCH  20  21
HETATM   21  C2  UNL     1      19.510   1.362  50.613  1.00  0.00     0.093 C 
BRANCH  21  22
HETATM   22  N1  UNL     1      18.150   1.713  50.482  1.00  0.00    -0.319 N 
HETATM   23  C1  UNL     1      17.522   2.751  51.221  1.00  0.00     0.320 C 
HETATM   24  O1  UNL     1      18.155   3.453  52.070  1.00  0.00    -0.247 OA
HETATM   25  N6  UNL     1      16.148   3.093  51.078  1.00  0.00    -0.341 N 
HETATM   26  H14 UNL     1      15.682   2.470  50.359  1.00  0.00     0.164 HD
HETATM   27  H1  UNL     1      17.607   1.157  49.796  1.00  0.00     0.170 HD
BRANCH  25  28
HETATM   28  C16 UNL     1      15.823   4.207  51.984  1.00  0.00     0.154 C 
BRANCH  28  29
HETATM   29  C17 UNL     1      14.897   3.653  53.019  1.00  0.00     0.292 C 
BRANCH  29  30
HETATM   30  N7  UNL     1      13.674   3.122  52.501  1.00  0.00     0.090 N 
HETATM   31  C18 UNL     1      13.274   2.046  53.396  1.00  0.00     0.272 C 
HETATM   32  C19 UNL     1      12.002   2.364  54.124  1.00  0.00     0.030 C 
HETATM   33  C20 UNL     1      11.889   3.763  54.627  1.00  0.00     0.003 C 
HETATM   34  C21 UNL     1      12.377   4.771  53.620  1.00  0.00     0.030 C 
HETATM   35  C22 UNL     1      12.627   4.082  52.320  1.00  0.00     0.272 C 
ENDBRANCH  29  30
ENDBRANCH  28  29
ENDBRANCH  25  28
ENDBRANCH  21  22
ENDBRANCH  20  21
ENDBRANCH  19  20
ENDBRANCH   1  19
TORSDOF 7
ENDMDL
MODEL 7
REMARK VINA RESULT:      -8.0      8.079     11.467
REMARK  7 active torsions:
REMARK  status: ('A' for Active; 'I' for Inactive)
REMARK       I    between atoms: C1_2  and  N1_3 
REMARK       I    between atoms: C1_2  and  N6_23 
REMARK    1  A    between atoms: N1_3  and  C2_4 
REMARK    2  A    between atoms: C2_4  and  C3_5 
REMARK    3  A    between atoms: C3_5  and  C4_6 
REMARK    4  A    between atoms: C4_6  and  C5_7 
REMARK    5  A    between atoms: N6_23  and  C16_24 
REMARK    6  A    between atoms: C16_24  and  C17_25 
REMARK    7  A    between atoms: C17_25  and  N7_26 
ROOT
HETATM    1  C5  UNL     1      41.108   8.185  51.909  1.00  0.00     0.068 A 
HETATM    2  N2  UNL     1      41.392   8.895  50.793  1.00  0.00    -0.241 NA
HETATM    3  C6  UNL     1      42.586   9.483  50.662  1.00  0.00     0.235 A 
HETATM    4  N3  UNL     1      43.467   9.349  51.645  1.00  0.00    -0.224 NA
HETATM    5  C7  UNL     1      43.279   8.678  52.765  1.00  0.00     0.136 A 
HETATM    6  C8  UNL     1      42.026   8.059  52.910  1.00  0.00     0.022 A 
HETATM    7  C9  UNL     1      41.379   7.276  53.754  1.00  0.00     0.039 C 
HETATM    8  C10 UNL     1      40.942   6.452  54.859  1.00  0.00     0.069 C 
HETATM    9  P1  UNL     1      42.487   5.667  55.685  1.00  0.00     0.096 P 
HETATM   10  C11 UNL     1      43.693   7.081  55.961  1.00  0.00     0.219 A 
HETATM   11  C12 UNL     1      43.501   8.006  56.965  1.00  0.00     0.007 A 
HETATM   12  C13 UNL     1      44.157   8.524  55.837  1.00  0.00     0.118 A 
HETATM   13  C14 UNL     1      44.380   7.670  54.817  1.00  0.00     0.251 A 
HETATM   14  C15 UNL     1      44.556   6.721  53.844  1.00  0.00     0.246 A 
HETATM   15  N4  UNL     1      43.920   6.217  54.921  1.00  0.00     0.014 N 
HETATM   16  N5  UNL     1      44.419   8.591  53.675  1.00  0.00    -0.337 N 
HETATM   17  H9  UNL     1      42.006   5.193  56.973  1.00  0.00     0.085 HD
HETATM   18  H13 UNL     1      45.232   9.205  53.479  1.00  0.00     0.164 HD
ENDROOT
BRANCH   1  19
HETATM   19  C4  UNL     1      39.886   7.703  51.819  1.00  0.00     0.034 C 
BRANCH  19  20
HETATM   20  C3  UNL     1      39.171   7.364  50.637  1.00  0.00     0.019 C 
BRANCH  20  21
HETATM   21  C2  UNL     1      38.280   6.652  50.002  1.00  0.00     0.093 C 
BRANCH  21  22
HETATM   22  N1  UNL     1      37.067   5.939  50.100  1.00  0.00    -0.319 N 
HETATM   23  C1  UNL     1      35.911   6.227  49.325  1.00  0.00     0.320 C 
HETATM   24  O1  UNL     1      35.890   7.165  48.468  1.00  0.00    -0.247 OA
HETATM   25  N6  UNL     1      34.693   5.499  49.436  1.00  0.00    -0.341 N 
HETATM   26  H14 UNL     1      34.780   4.736  50.165  1.00  0.00     0.164 HD
HETATM   27  H1  UNL     1      37.054   5.167  50.791  1.00  0.00     0.170 HD
BRANCH  25  28
HETATM   28  C16 UNL     1      33.705   6.051  48.494  1.00  0.00     0.154 C 
BRANCH  28  29
HETATM   29  C17 UNL     1      32.765   4.936  48.167  1.00  0.00     0.292 C 
BRANCH  29  30
HETATM   30  N7  UNL     1      32.569   4.711  46.768  1.00  0.00     0.090 N 
HETATM   31  C18 UNL     1      33.646   5.406  46.078  1.00  0.00     0.272 C 
HETATM   32  C19 UNL     1      34.570   4.454  45.378  1.00  0.00     0.030 C 
HETATM   33  C20 UNL     1      34.917   3.224  46.146  1.00  0.00     0.003 C 
HETATM   34  C21 UNL     1      33.721   2.633  46.845  1.00  0.00     0.030 C 
HETATM   35  C22 UNL     1      32.488   3.335  46.382  1.00  0.00     0.272 C 
ENDBRANCH  29  30
ENDBRANCH  28  29
ENDBRANCH  25  28
ENDBRANCH  21  22
ENDBRANCH  20  21
ENDBRANCH  19  20
ENDBRANCH   1  19
TORSDOF 7
ENDMDL
MODEL 8
REMARK VINA RESULT:      -8.0      5.267     10.115
REMARK  7 active torsions:
REMARK  status: ('A' for Active; 'I' for Inactive)
REMARK       I    between atoms: C1_2  and  N1_3 
REMARK       I    between atoms: C1_2  and  N6_23 
REMARK    1  A    between atoms: N1_3  and  C2_4 
REMARK    2  A    between atoms: C2_4  and  C3_5 
REMARK    3  A    between atoms: C3_5  and  C4_6 
REMARK    4  A    between atoms: C4_6  and  C5_7 
REMARK    5  A    between atoms: N6_23  and  C16_24 
REMARK    6  A    between atoms: C16_24  and  C17_25 
REMARK    7  A    between atoms: C17_25  and  N7_26 
ROOT
HETATM    1  C5  UNL     1      22.151   0.411  53.101  1.00  0.00     0.068 A 
HETATM    2  N2  UNL     1      21.221  -0.179  53.885  1.00  0.00    -0.241 NA
HETATM    3  C6  UNL     1      21.601  -1.006  54.864  1.00  0.00     0.235 A 
HETATM    4  N3  UNL     1      22.898  -1.224  55.040  1.00  0.00    -0.224 NA
HETATM    5  C7  UNL     1      23.873  -0.693  54.328  1.00  0.00     0.136 A 
HETATM    6  C8  UNL     1      23.481   0.175  53.295  1.00  0.00     0.022 A 
HETATM    7  C9  UNL     1      24.017   0.961  52.378  1.00  0.00     0.039 C 
HETATM    8  C10 UNL     1      24.888   1.698  51.490  1.00  0.00     0.069 C 
HETATM    9  P1  UNL     1      26.571   1.973  52.371  1.00  0.00     0.096 P 
HETATM   10  C11 UNL     1      27.082   0.292  53.035  1.00  0.00     0.219 A 
HETATM   11  C12 UNL     1      27.563  -0.695  52.202  1.00  0.00     0.007 A 
HETATM   12  C13 UNL     1      26.867  -1.187  53.317  1.00  0.00     0.118 A 
HETATM   13  C14 UNL     1      26.371  -0.274  54.176  1.00  0.00     0.251 A 
HETATM   14  C15 UNL     1      25.911   0.737  54.981  1.00  0.00     0.246 A 
HETATM   15  N4  UNL     1      26.574   1.217  53.909  1.00  0.00     0.014 N 
HETATM   16  N5  UNL     1      25.236  -1.007  54.750  1.00  0.00    -0.337 N 
HETATM   17  H9  UNL     1      27.478   2.359  51.302  1.00  0.00     0.085 HD
HETATM   18  H13 UNL     1      25.355  -1.759  55.454  1.00  0.00     0.164 HD
ENDROOT
BRANCH   1  19
HETATM   19  C4  UNL     1      21.552   1.174  52.211  1.00  0.00     0.034 C 
BRANCH  19  20
HETATM   20  C3  UNL     1      20.806   2.362  52.448  1.00  0.00     0.019 C 
BRANCH  20  21
HETATM   21  C2  UNL     1      20.514   3.605  52.174  1.00  0.00     0.093 C 
BRANCH  21  22
HETATM   22  N1  UNL     1      20.967   4.813  51.605  1.00  0.00    -0.319 N 
HETATM   23  C1  UNL     1      22.296   5.303  51.730  1.00  0.00     0.320 C 
HETATM   24  O1  UNL     1      23.189   4.672  52.377  1.00  0.00    -0.247 OA
HETATM   25  N6  UNL     1      22.738   6.524  51.150  1.00  0.00    -0.341 N 
HETATM   26  H14 UNL     1      21.946   6.998  50.629  1.00  0.00     0.164 HD
HETATM   27  H1  UNL     1      20.261   5.351  51.070  1.00  0.00     0.170 HD
BRANCH  25  28
HETATM   28  C16 UNL     1      24.160   6.731  51.468  1.00  0.00     0.154 C 
BRANCH  28  29
HETATM   29  C17 UNL     1      24.727   7.549  50.353  1.00  0.00     0.292 C 
BRANCH  29  30
HETATM   30  N7  UNL     1      24.467   7.035  49.044  1.00  0.00     0.090 N 
HETATM   31  C18 UNL     1      24.736   8.117  48.108  1.00  0.00     0.272 C 
HETATM   32  C19 UNL     1      25.908   7.815  47.222  1.00  0.00     0.030 C 
HETATM   33  C20 UNL     1      27.073   7.180  47.902  1.00  0.00     0.003 C 
HETATM   34  C21 UNL     1      26.651   6.109  48.873  1.00  0.00     0.030 C 
HETATM   35  C22 UNL     1      25.191   5.846  48.707  1.00  0.00     0.272 C 
ENDBRANCH  29  30
ENDBRANCH  28  29
ENDBRANCH  25  28
ENDBRANCH  21  22
ENDBRANCH  20  21
ENDBRANCH  19  20
ENDBRANCH   1  19
TORSDOF 7
ENDMDL
MODEL 9
REMARK VINA RESULT:      -7.9      2.974      9.634
REMARK  7 active torsions:
REMARK  status: ('A' for Active; 'I' for Inactive)
REMARK       I    between atoms: C1_2  and  N1_3 
REMARK       I    between atoms: C1_2  and  N6_23 
REMARK    1  A    between atoms: N1_3  and  C2_4 
REMARK    2  A    between atoms: C2_4  and  C3_5 
REMARK    3  A    between atoms: C3_5  and  C4_6 
REMARK    4  A    between atoms: C4_6  and  C5_7 
REMARK    5  A    between atoms: N6_23  and  C16_24 
REMARK    6  A    between atoms: C16_24  and  C17_25 
REMARK    7  A    between atoms: C17_25  and  N7_26 
ROOT
HETATM    1  C5  UNL     1      23.429   2.643  52.713  1.00  0.00     0.068 A 
HETATM    2  N2  UNL     1      22.102   2.516  52.489  1.00  0.00    -0.241 NA
HETATM    3  C6  UNL     1      21.536   1.305  52.501  1.00  0.00     0.235 A 
HETATM    4  N3  UNL     1      22.305   0.250  52.739  1.00  0.00    -0.224 NA
HETATM    5  C7  UNL     1      23.604   0.278  52.969  1.00  0.00     0.136 A 
HETATM    6  C8  UNL     1      24.205   1.547  52.955  1.00  0.00     0.022 A 
HETATM    7  C9  UNL     1      25.383   2.108  53.162  1.00  0.00     0.039 C 
HETATM    8  C10 UNL     1      26.772   2.411  53.427  1.00  0.00     0.069 C 
HETATM    9  P1  UNL     1      27.496   1.032  54.549  1.00  0.00     0.096 P 
HETATM   10  C11 UNL     1      27.007  -0.593  53.743  1.00  0.00     0.219 A 
HETATM   11  C12 UNL     1      27.634  -1.048  52.603  1.00  0.00     0.007 A 
HETATM   12  C13 UNL     1      26.289  -1.439  52.703  1.00  0.00     0.118 A 
HETATM   13  C14 UNL     1      25.615  -1.028  53.796  1.00  0.00     0.251 A 
HETATM   14  C15 UNL     1      25.028  -0.559  54.943  1.00  0.00     0.246 A 
HETATM   15  N4  UNL     1      26.318  -0.176  54.852  1.00  0.00     0.014 N 
HETATM   16  N5  UNL     1      24.239  -0.998  53.290  1.00  0.00    -0.337 N 
HETATM   17  H9  UNL     1      28.937   1.201  54.443  1.00  0.00     0.085 HD
HETATM   18  H13 UNL     1      23.679  -1.859  53.139  1.00  0.00     0.164 HD
ENDROOT
BRANCH   1  19
HETATM   19  C4  UNL     1      23.762   3.915  52.651  1.00  0.00     0.034 C 
BRANCH  19  20
HETATM   20  C3  UNL     1      23.867   4.729  51.489  1.00  0.00     0.019 C 
BRANCH  20  21
HETATM   21  C2  UNL     1      24.560   5.240  50.507  1.00  0.00     0.093 C 
BRANCH  21  22
HETATM   22  N1  UNL     1      25.690   6.003  50.148  1.00  0.00    -0.319 N 
HETATM   23  C1  UNL     1      26.769   5.507  49.366  1.00  0.00     0.320 C 
HETATM   24  O1  UNL     1      26.791   4.315  48.926  1.00  0.00    -0.247 OA
HETATM   25  N6  UNL     1      27.903   6.290  49.012  1.00  0.00    -0.341 N 
HETATM   26  H14 UNL     1      27.821   7.268  49.411  1.00  0.00     0.164 HD
HETATM   27  H1  UNL     1      25.701   6.981  50.492  1.00  0.00     0.170 HD
BRANCH  25  28
HETATM   28  C16 UNL     1      28.826   5.477  48.202  1.00  0.00     0.154 C 
BRANCH  28  29
HETATM   29  C17 UNL     1      30.024   6.333  47.942  1.00  0.00     0.292 C 
BRANCH  29  30
HETATM   30  N7  UNL     1      31.271   5.742  48.318  1.00  0.00     0.090 N 
HETATM   31  C18 UNL     1      32.214   6.040  47.250  1.00  0.00     0.272 C 
HETATM   32  C19 UNL     1      33.315   6.948  47.709  1.00  0.00     0.030 C 
HETATM   33  C20 UNL     1      32.887   8.072  48.590  1.00  0.00     0.003 C 
HETATM   34  C21 UNL     1      31.880   7.636  49.621  1.00  0.00     0.030 C 
HETATM   35  C22 UNL     1      31.770   6.147  49.598  1.00  0.00     0.272 C 
ENDBRANCH  29  30
ENDBRANCH  28  29
ENDBRANCH  25  28
ENDBRANCH  21  22
ENDBRANCH  20  21
ENDBRANCH  19  20
ENDBRANCH   1  19
TORSDOF 7
ENDMDL
