MODEL 1
REMARK VINA RESULT:      -7.8      0.000      0.000
REMARK  4 active torsions:
REMARK  status: ('A' for Active; 'I' for Inactive)
REMARK    1  A    between atoms: C3_3  and  C4_4 
REMARK    2  A    between atoms: C4_4  and  S1_6 
REMARK    3  A    between atoms: S1_6  and  C5_7 
REMARK    4  A    between atoms: C5_7  and  C6_8 
ROOT
HETATM    1  C1  UNL     1      21.598   1.208  49.430  1.00  0.00     0.112 C 
HETATM    2  C2  UNL     1      21.215   0.707  50.753  1.00  0.00    -0.102 C 
HETATM    3  C3  UNL     1      20.880   0.291  51.836  1.00  0.00    -0.018 C 
ENDROOT
BRANCH   3   4
HETATM    4  C4  UNL     1      20.473  -0.222  53.113  1.00  0.00     0.263 C 
HETATM    5  O1  UNL     1      19.268  -0.632  53.227  1.00  0.00    -0.271 OA
BRANCH   4   6
HETATM    6  S1  UNL     1      21.560  -0.309  54.527  1.00  0.00    -0.073 SA
BRANCH   6   7
HETATM    7  C5  UNL     1      23.044  -1.202  54.040  1.00  0.00     0.142 C 
BRANCH   7   8
HETATM    8  C6  UNL     1      24.191  -0.320  53.741  1.00  0.00     0.044 A 
HETATM    9  C7  UNL     1      24.252   0.595  52.710  1.00  0.00     0.041 A 
HETATM   10  C8  UNL     1      25.390   1.385  52.515  1.00  0.00    -0.002 A 
HETATM   11  C9  UNL     1      25.463   2.341  51.440  1.00  0.00    -0.023 A 
HETATM   12  C15 UNL     1      26.441   1.214  53.390  1.00  0.00     0.073 A 
HETATM   13  C10 UNL     1      26.555   2.500  50.611  1.00  0.00     0.012 A 
HETATM   14  C14 UNL     1      24.386   3.168  51.199  1.00  0.00     0.031 A 
HETATM   15  C11 UNL     1      26.549   3.450  49.590  1.00  0.00     0.002 A 
HETATM   16  C12 UNL     1      25.471   4.265  49.361  1.00  0.00     0.019 A 
HETATM   17  C13 UNL     1      24.382   4.114  50.180  1.00  0.00     0.011 A 
HETATM   18 BR1  UNL     1      22.880   5.258  49.854  1.00  0.00    -0.051 Br
HETATM   19  C16 UNL     1      27.649   1.965  53.286  1.00  0.00     0.102 C 
HETATM   20  C17 UNL     1      26.359   0.290  54.420  1.00  0.00     0.140 A 
HETATM   21  N1  UNL     1      28.624   2.560  53.193  1.00  0.00    -0.191 NA
HETATM   22  N2  UNL     1      25.245  -0.451  54.573  1.00  0.00    -0.263 NA
ENDBRANCH   7   8
ENDBRANCH   6   7
ENDBRANCH   4   6
ENDBRANCH   3   4
TORSDOF 4
ENDMDL
MODEL 2
REMARK VINA RESULT:      -6.8      3.423      5.547
REMARK  4 active torsions:
REMARK  status: ('A' for Active; 'I' for Inactive)
REMARK    1  A    between atoms: C3_3  and  C4_4 
REMARK    2  A    between atoms: C4_4  and  S1_6 
REMARK    3  A    between atoms: S1_6  and  C5_7 
REMARK    4  A    between atoms: C5_7  and  C6_8 
ROOT
HETATM    1  C1  UNL     1      21.281   3.974  45.038  1.00  0.00     0.112 C 
HETATM    2  C2  UNL     1      21.841   4.093  46.387  1.00  0.00    -0.102 C 
HETATM    3  C3  UNL     1      22.287   4.179  47.505  1.00  0.00    -0.018 C 
ENDROOT
BRANCH   3   4
HETATM    4  C4  UNL     1      22.817   4.259  48.837  1.00  0.00     0.263 C 
HETATM    5  O1  UNL     1      21.993   4.144  49.808  1.00  0.00    -0.271 OA
BRANCH   4   6
HETATM    6  S1  UNL     1      24.550   4.507  49.191  1.00  0.00    -0.073 SA
BRANCH   6   7
HETATM    7  C5  UNL     1      24.777   4.422  50.974  1.00  0.00     0.142 C 
BRANCH   7   8
HETATM    8  C6  UNL     1      25.037   3.055  51.470  1.00  0.00     0.044 A 
HETATM    9  C7  UNL     1      24.154   2.284  52.198  1.00  0.00     0.041 A 
HETATM   10  C8  UNL     1      24.501   0.996  52.619  1.00  0.00    -0.002 A 
HETATM   11  C9  UNL     1      23.585   0.185  53.381  1.00  0.00    -0.023 A 
HETATM   12  C15 UNL     1      25.753   0.531  52.280  1.00  0.00     0.073 A 
HETATM   13  C10 UNL     1      23.933  -0.541  54.501  1.00  0.00     0.012 A 
HETATM   14  C14 UNL     1      22.265   0.110  52.988  1.00  0.00     0.031 A 
HETATM   15  C11 UNL     1      22.988  -1.305  55.185  1.00  0.00     0.002 A 
HETATM   16  C12 UNL     1      21.679  -1.371  54.784  1.00  0.00     0.019 A 
HETATM   17  C13 UNL     1      21.324  -0.652  53.672  1.00  0.00     0.011 A 
HETATM   18 BR1  UNL     1      19.492  -0.750  53.117  1.00  0.00    -0.051 Br
HETATM   19  C16 UNL     1      26.212  -0.766  52.656  1.00  0.00     0.102 C 
HETATM   20  C17 UNL     1      26.625   1.321  51.548  1.00  0.00     0.140 A 
HETATM   21  N1  UNL     1      26.584  -1.803  52.972  1.00  0.00    -0.191 NA
HETATM   22  N2  UNL     1      26.252   2.556  51.161  1.00  0.00    -0.263 NA
ENDBRANCH   7   8
ENDBRANCH   6   7
ENDBRANCH   4   6
ENDBRANCH   3   4
TORSDOF 4
ENDMDL
MODEL 3
REMARK VINA RESULT:      -6.6      3.916      5.571
REMARK  4 active torsions:
REMARK  status: ('A' for Active; 'I' for Inactive)
REMARK    1  A    between atoms: C3_3  and  C4_4 
REMARK    2  A    between atoms: C4_4  and  S1_6 
REMARK    3  A    between atoms: S1_6  and  C5_7 
REMARK    4  A    between atoms: C5_7  and  C6_8 
ROOT
HETATM    1  C1  UNL     1      22.273   1.932  48.166  1.00  0.00     0.112 C 
HETATM    2  C2  UNL     1      23.046   3.111  48.566  1.00  0.00    -0.102 C 
HETATM    3  C3  UNL     1      23.669   4.086  48.911  1.00  0.00    -0.018 C 
ENDROOT
BRANCH   3   4
HETATM    4  C4  UNL     1      24.410   5.236  49.343  1.00  0.00     0.263 C 
HETATM    5  O1  UNL     1      25.208   5.774  48.502  1.00  0.00    -0.271 OA
BRANCH   4   6
HETATM    6  S1  UNL     1      24.268   5.937  50.980  1.00  0.00    -0.073 SA
BRANCH   6   7
HETATM    7  C5  UNL     1      22.797   5.254  51.757  1.00  0.00     0.142 C 
BRANCH   7   8
HETATM    8  C6  UNL     1      22.941   3.836  52.147  1.00  0.00     0.044 A 
HETATM    9  C7  UNL     1      24.135   3.155  52.268  1.00  0.00     0.041 A 
HETATM   10  C8  UNL     1      24.160   1.808  52.646  1.00  0.00    -0.002 A 
HETATM   11  C9  UNL     1      25.402   1.089  52.774  1.00  0.00    -0.023 A 
HETATM   12  C15 UNL     1      22.951   1.193  52.892  1.00  0.00     0.073 A 
HETATM   13  C10 UNL     1      25.621  -0.181  52.281  1.00  0.00     0.012 A 
HETATM   14  C14 UNL     1      26.460   1.684  53.428  1.00  0.00     0.031 A 
HETATM   15  C11 UNL     1      26.854  -0.813  52.445  1.00  0.00     0.002 A 
HETATM   16  C12 UNL     1      27.898  -0.210  53.098  1.00  0.00     0.019 A 
HETATM   17  C13 UNL     1      27.689   1.052  53.591  1.00  0.00     0.011 A 
HETATM   18 BR1  UNL     1      29.154   1.887  54.502  1.00  0.00    -0.051 Br
HETATM   19  C16 UNL     1      22.858  -0.175  53.284  1.00  0.00     0.102 C 
HETATM   20  C17 UNL     1      21.763   1.896  52.765  1.00  0.00     0.140 A 
HETATM   21  N1  UNL     1      22.784  -1.278  53.585  1.00  0.00    -0.191 NA
HETATM   22  N2  UNL     1      21.782   3.191  52.399  1.00  0.00    -0.263 NA
ENDBRANCH   7   8
ENDBRANCH   6   7
ENDBRANCH   4   6
ENDBRANCH   3   4
TORSDOF 4
ENDMDL
MODEL 4
REMARK VINA RESULT:      -6.2      3.699      5.378
REMARK  4 active torsions:
REMARK  status: ('A' for Active; 'I' for Inactive)
REMARK    1  A    between atoms: C3_3  and  C4_4 
REMARK    2  A    between atoms: C4_4  and  S1_6 
REMARK    3  A    between atoms: S1_6  and  C5_7 
REMARK    4  A    between atoms: C5_7  and  C6_8 
ROOT
HETATM    1  C1  UNL     1      19.447   3.915  46.637  1.00  0.00     0.112 C 
HETATM    2  C2  UNL     1      20.293   4.339  47.756  1.00  0.00    -0.102 C 
HETATM    3  C3  UNL     1      20.974   4.683  48.691  1.00  0.00    -0.018 C 
ENDROOT
BRANCH   3   4
HETATM    4  C4  UNL     1      21.782   5.072  49.813  1.00  0.00     0.263 C 
HETATM    5  O1  UNL     1      22.818   5.782  49.577  1.00  0.00    -0.271 OA
BRANCH   4   6
HETATM    6  S1  UNL     1      21.407   4.612  51.497  1.00  0.00    -0.073 SA
BRANCH   6   7
HETATM    7  C5  UNL     1      20.522   3.046  51.468  1.00  0.00     0.142 C 
BRANCH   7   8
HETATM    8  C6  UNL     1      21.137   2.005  52.317  1.00  0.00     0.044 A 
HETATM    9  C7  UNL     1      22.473   1.657  52.317  1.00  0.00     0.041 A 
HETATM   10  C8  UNL     1      22.954   0.654  53.165  1.00  0.00    -0.002 A 
HETATM   11  C9  UNL     1      24.347   0.284  53.172  1.00  0.00    -0.023 A 
HETATM   12  C15 UNL     1      22.046   0.031  53.994  1.00  0.00     0.073 A 
HETATM   13  C10 UNL     1      24.808  -1.017  53.174  1.00  0.00     0.012 A 
HETATM   14  C14 UNL     1      25.307   1.274  53.176  1.00  0.00     0.031 A 
HETATM   15  C11 UNL     1      26.174  -1.296  53.181  1.00  0.00     0.002 A 
HETATM   16  C12 UNL     1      27.118  -0.301  53.185  1.00  0.00     0.019 A 
HETATM   17  C13 UNL     1      26.669   0.994  53.183  1.00  0.00     0.011 A 
HETATM   18 BR1  UNL     1      27.996   2.377  53.190  1.00  0.00    -0.051 Br
HETATM   19  C16 UNL     1      22.426  -1.005  54.898  1.00  0.00     0.102 C 
HETATM   20  C17 UNL     1      20.710   0.396  53.978  1.00  0.00     0.140 A 
HETATM   21  N1  UNL     1      22.731  -1.846  55.615  1.00  0.00    -0.191 NA
HETATM   22  N2  UNL     1      20.287   1.367  53.147  1.00  0.00    -0.263 NA
ENDBRANCH   7   8
ENDBRANCH   6   7
ENDBRANCH   4   6
ENDBRANCH   3   4
TORSDOF 4
ENDMDL
MODEL 5
REMARK VINA RESULT:      -6.2      3.935      6.395
REMARK  4 active torsions:
REMARK  status: ('A' for Active; 'I' for Inactive)
REMARK    1  A    between atoms: C3_3  and  C4_4 
REMARK    2  A    between atoms: C4_4  and  S1_6 
REMARK    3  A    between atoms: S1_6  and  C5_7 
REMARK    4  A    between atoms: C5_7  and  C6_8 
ROOT
HETATM    1  C1  UNL     1      26.849   8.282  46.499  1.00  0.00     0.112 C 
HETATM    2  C2  UNL     1      25.951   7.686  47.493  1.00  0.00    -0.102 C 
HETATM    3  C3  UNL     1      25.217   7.210  48.325  1.00  0.00    -0.018 C 
ENDROOT
BRANCH   3   4
HETATM    4  C4  UNL     1      24.335   6.666  49.318  1.00  0.00     0.263 C 
HETATM    5  O1  UNL     1      23.274   7.324  49.590  1.00  0.00    -0.271 OA
BRANCH   4   6
HETATM    6  S1  UNL     1      24.651   5.131  50.175  1.00  0.00    -0.073 SA
BRANCH   6   7
HETATM    7  C5  UNL     1      23.069   4.410  50.636  1.00  0.00     0.142 C 
BRANCH   7   8
HETATM    8  C6  UNL     1      23.196   3.172  51.434  1.00  0.00     0.044 A 
HETATM    9  C7  UNL     1      24.380   2.536  51.743  1.00  0.00     0.041 A 
HETATM   10  C8  UNL     1      24.389   1.365  52.509  1.00  0.00    -0.002 A 
HETATM   11  C9  UNL     1      25.621   0.693  52.836  1.00  0.00    -0.023 A 
HETATM   12  C15 UNL     1      23.174   0.877  52.940  1.00  0.00     0.073 A 
HETATM   13  C10 UNL     1      25.813  -0.671  52.746  1.00  0.00     0.012 A 
HETATM   14  C14 UNL     1      26.699   1.435  53.271  1.00  0.00     0.031 A 
HETATM   15  C11 UNL     1      27.037  -1.248  53.081  1.00  0.00     0.002 A 
HETATM   16  C12 UNL     1      28.101  -0.498  53.512  1.00  0.00     0.019 A 
HETATM   17  C13 UNL     1      27.919   0.858  53.604  1.00  0.00     0.011 A 
HETATM   18 BR1  UNL     1      29.411   1.899  54.207  1.00  0.00    -0.051 Br
HETATM   19  C16 UNL     1      23.065  -0.308  53.727  1.00  0.00     0.102 C 
HETATM   20  C17 UNL     1      21.997   1.532  52.619  1.00  0.00     0.140 A 
HETATM   21  N1  UNL     1      22.978  -1.267  54.347  1.00  0.00    -0.191 NA
HETATM   22  N2  UNL     1      22.031   2.657  51.879  1.00  0.00    -0.263 NA
ENDBRANCH   7   8
ENDBRANCH   6   7
ENDBRANCH   4   6
ENDBRANCH   3   4
TORSDOF 4
ENDMDL
MODEL 6
REMARK VINA RESULT:      -6.0      6.586      9.681
REMARK  4 active torsions:
REMARK  status: ('A' for Active; 'I' for Inactive)
REMARK    1  A    between atoms: C3_3  and  C4_4 
REMARK    2  A    between atoms: C4_4  and  S1_6 
REMARK    3  A    between atoms: S1_6  and  C5_7 
REMARK    4  A    between atoms: C5_7  and  C6_8 
ROOT
HETATM    1  C1  UNL     1      33.497   4.769  43.828  1.00  0.00     0.112 C 
HETATM    2  C2  UNL     1      33.331   5.036  45.259  1.00  0.00    -0.102 C 
HETATM    3  C3  UNL     1      33.197   5.236  46.442  1.00  0.00    -0.018 C 
ENDROOT
BRANCH   3   4
HETATM    4  C4  UNL     1      33.058   5.463  47.853  1.00  0.00     0.263 C 
HETATM    5  O1  UNL     1      33.988   5.030  48.615  1.00  0.00    -0.271 OA
BRANCH   4   6
HETATM    6  S1  UNL     1      31.662   6.310  48.578  1.00  0.00    -0.073 SA
BRANCH   6   7
HETATM    7  C5  UNL     1      30.333   6.340  47.365  1.00  0.00     0.142 C 
BRANCH   7   8
HETATM    8  C6  UNL     1      28.995   6.528  47.962  1.00  0.00     0.044 A 
HETATM    9  C7  UNL     1      28.165   5.518  48.404  1.00  0.00     0.041 A 
HETATM   10  C8  UNL     1      26.913   5.805  48.957  1.00  0.00    -0.002 A 
HETATM   11  C9  UNL     1      26.039   4.757  49.420  1.00  0.00    -0.023 A 
HETATM   12  C15 UNL     1      26.544   7.131  49.042  1.00  0.00     0.073 A 
HETATM   13  C10 UNL     1      24.687   4.695  49.154  1.00  0.00     0.012 A 
HETATM   14  C14 UNL     1      26.561   3.733  50.183  1.00  0.00     0.031 A 
HETATM   15  C11 UNL     1      23.906   3.646  49.640  1.00  0.00     0.002 A 
HETATM   16  C12 UNL     1      24.438   2.634  50.397  1.00  0.00     0.019 A 
HETATM   17  C13 UNL     1      25.781   2.688  50.665  1.00  0.00     0.011 A 
HETATM   18 BR1  UNL     1      26.516   1.270  51.725  1.00  0.00    -0.051 Br
HETATM   19  C16 UNL     1      25.291   7.540  49.588  1.00  0.00     0.102 C 
HETATM   20  C17 UNL     1      27.392   8.130  48.593  1.00  0.00     0.140 A 
HETATM   21  N1  UNL     1      24.278   7.865  50.014  1.00  0.00    -0.191 NA
HETATM   22  N2  UNL     1      28.590   7.810  48.067  1.00  0.00    -0.263 NA
ENDBRANCH   7   8
ENDBRANCH   6   7
ENDBRANCH   4   6
ENDBRANCH   3   4
TORSDOF 4
ENDMDL
MODEL 7
REMARK VINA RESULT:      -6.0      3.358      5.596
REMARK  4 active torsions:
REMARK  status: ('A' for Active; 'I' for Inactive)
REMARK    1  A    between atoms: C3_3  and  C4_4 
REMARK    2  A    between atoms: C4_4  and  S1_6 
REMARK    3  A    between atoms: S1_6  and  C5_7 
REMARK    4  A    between atoms: C5_7  and  C6_8 
ROOT
HETATM    1  C1  UNL     1      20.200   2.059  48.458  1.00  0.00     0.112 C 
HETATM    2  C2  UNL     1      21.399   2.845  48.760  1.00  0.00    -0.102 C 
HETATM    3  C3  UNL     1      22.396   3.486  48.992  1.00  0.00    -0.018 C 
ENDROOT
BRANCH   3   4
HETATM    4  C4  UNL     1      23.580   4.257  49.245  1.00  0.00     0.263 C 
HETATM    5  O1  UNL     1      24.691   3.790  48.821  1.00  0.00    -0.271 OA
BRANCH   4   6
HETATM    6  S1  UNL     1      23.566   5.817  50.116  1.00  0.00    -0.073 SA
BRANCH   6   7
HETATM    7  C5  UNL     1      23.545   5.473  51.882  1.00  0.00     0.142 C 
BRANCH   7   8
HETATM    8  C6  UNL     1      23.724   4.043  52.206  1.00  0.00     0.044 A 
HETATM    9  C7  UNL     1      22.709   3.150  52.481  1.00  0.00     0.041 A 
HETATM   10  C8  UNL     1      22.989   1.811  52.776  1.00  0.00    -0.002 A 
HETATM   11  C9  UNL     1      21.936   0.872  53.066  1.00  0.00    -0.023 A 
HETATM   12  C15 UNL     1      24.312   1.424  52.782  1.00  0.00     0.073 A 
HETATM   13  C10 UNL     1      21.964  -0.035  54.105  1.00  0.00     0.012 A 
HETATM   14  C14 UNL     1      20.811   0.854  52.267  1.00  0.00     0.031 A 
HETATM   15  C11 UNL     1      20.902  -0.915  54.321  1.00  0.00     0.002 A 
HETATM   16  C12 UNL     1      19.790  -0.921  53.519  1.00  0.00     0.019 A 
HETATM   17  C13 UNL     1      19.754  -0.023  52.484  1.00  0.00     0.011 A 
HETATM   18 BR1  UNL     1      18.195  -0.040  51.369  1.00  0.00    -0.051 Br
HETATM   19  C16 UNL     1      24.712   0.085  53.069  1.00  0.00     0.102 C 
HETATM   20  C17 UNL     1      25.316   2.337  52.502  1.00  0.00     0.140 A 
HETATM   21  N1  UNL     1      25.033  -0.988  53.313  1.00  0.00    -0.191 NA
HETATM   22  N2  UNL     1      25.004   3.616  52.223  1.00  0.00    -0.263 NA
ENDBRANCH   7   8
ENDBRANCH   6   7
ENDBRANCH   4   6
ENDBRANCH   3   4
TORSDOF 4
ENDMDL
MODEL 8
REMARK VINA RESULT:      -5.9      7.630     10.155
REMARK  4 active torsions:
REMARK  status: ('A' for Active; 'I' for Inactive)
REMARK    1  A    between atoms: C3_3  and  C4_4 
REMARK    2  A    between atoms: C4_4  and  S1_6 
REMARK    3  A    between atoms: S1_6  and  C5_7 
REMARK    4  A    between atoms: C5_7  and  C6_8 
ROOT
HETATM    1  C1  UNL     1      27.976   8.767  44.835  1.00  0.00     0.112 C 
HETATM    2  C2  UNL     1      29.348   8.358  45.146  1.00  0.00    -0.102 C 
HETATM    3  C3  UNL     1      30.473   8.002  45.404  1.00  0.00    -0.018 C 
ENDROOT
BRANCH   3   4
HETATM    4  C4  UNL     1      31.809   7.563  45.693  1.00  0.00     0.263 C 
HETATM    5  O1  UNL     1      32.767   8.357  45.402  1.00  0.00    -0.271 OA
BRANCH   4   6
HETATM    6  S1  UNL     1      32.183   5.979  46.428  1.00  0.00    -0.073 SA
BRANCH   6   7
HETATM    7  C5  UNL     1      31.759   6.057  48.175  1.00  0.00     0.142 C 
BRANCH   7   8
HETATM    8  C6  UNL     1      30.559   6.872  48.453  1.00  0.00     0.044 A 
HETATM    9  C7  UNL     1      29.253   6.441  48.343  1.00  0.00     0.041 A 
HETATM   10  C8  UNL     1      28.185   7.297  48.633  1.00  0.00    -0.002 A 
HETATM   11  C9  UNL     1      26.818   6.856  48.520  1.00  0.00    -0.023 A 
HETATM   12  C15 UNL     1      28.489   8.582  49.031  1.00  0.00     0.073 A 
HETATM   13  C10 UNL     1      25.810   7.586  47.924  1.00  0.00     0.012 A 
HETATM   14  C14 UNL     1      26.463   5.625  49.031  1.00  0.00     0.031 A 
HETATM   15  C11 UNL     1      24.508   7.090  47.854  1.00  0.00     0.002 A 
HETATM   16  C12 UNL     1      24.170   5.864  48.366  1.00  0.00     0.019 A 
HETATM   17  C13 UNL     1      25.165   5.132  48.959  1.00  0.00     0.011 A 
HETATM   18 BR1  UNL     1      24.682   3.420  49.674  1.00  0.00    -0.051 Br
HETATM   19  C16 UNL     1      27.482   9.539  49.352  1.00  0.00     0.102 C 
HETATM   20  C17 UNL     1      29.808   8.994  49.136  1.00  0.00     0.140 A 
HETATM   21  N1  UNL     1      26.670  10.310  49.596  1.00  0.00    -0.191 NA
HETATM   22  N2  UNL     1      30.807   8.139  48.847  1.00  0.00    -0.263 NA
ENDBRANCH   7   8
ENDBRANCH   6   7
ENDBRANCH   4   6
ENDBRANCH   3   4
TORSDOF 4
ENDMDL
MODEL 9
REMARK VINA RESULT:      -5.8      5.115      7.793
REMARK  4 active torsions:
REMARK  status: ('A' for Active; 'I' for Inactive)
REMARK    1  A    between atoms: C3_3  and  C4_4 
REMARK    2  A    between atoms: C4_4  and  S1_6 
REMARK    3  A    between atoms: S1_6  and  C5_7 
REMARK    4  A    between atoms: C5_7  and  C6_8 
ROOT
HETATM    1  C1  UNL     1      27.680   8.688  44.940  1.00  0.00     0.112 C 
HETATM    2  C2  UNL     1      27.418   8.382  46.349  1.00  0.00    -0.102 C 
HETATM    3  C3  UNL     1      27.198   8.111  47.505  1.00  0.00    -0.018 C 
ENDROOT
BRANCH   3   4
HETATM    4  C4  UNL     1      26.952   7.771  48.878  1.00  0.00     0.263 C 
HETATM    5  O1  UNL     1      27.501   8.498  49.774  1.00  0.00    -0.271 OA
BRANCH   4   6
HETATM    6  S1  UNL     1      25.926   6.397  49.379  1.00  0.00    -0.073 SA
BRANCH   6   7
HETATM    7  C5  UNL     1      24.811   6.971  50.669  1.00  0.00     0.142 C 
BRANCH   7   8
HETATM    8  C6  UNL     1      23.853   5.941  51.121  1.00  0.00     0.044 A 
HETATM    9  C7  UNL     1      24.177   4.652  51.492  1.00  0.00     0.041 A 
HETATM   10  C8  UNL     1      23.189   3.753  51.906  1.00  0.00    -0.002 A 
HETATM   11  C9  UNL     1      23.518   2.405  52.294  1.00  0.00    -0.023 A 
HETATM   12  C15 UNL     1      21.887   4.204  51.929  1.00  0.00     0.073 A 
HETATM   13  C10 UNL     1      22.820   1.285  51.890  1.00  0.00     0.012 A 
HETATM   14  C14 UNL     1      24.597   2.187  53.125  1.00  0.00     0.031 A 
HETATM   15  C11 UNL     1      23.201   0.010  52.310  1.00  0.00     0.002 A 
HETATM   16  C12 UNL     1      24.276  -0.191  53.136  1.00  0.00     0.019 A 
HETATM   17  C13 UNL     1      24.976   0.916  53.542  1.00  0.00     0.011 A 
HETATM   18 BR1  UNL     1      26.477   0.624  54.697  1.00  0.00    -0.051 Br
HETATM   19  C16 UNL     1      20.800   3.374  52.334  1.00  0.00     0.102 C 
HETATM   20  C17 UNL     1      21.583   5.502  51.553  1.00  0.00     0.140 A 
HETATM   21  N1  UNL     1      19.926   2.701  52.647  1.00  0.00    -0.191 NA
HETATM   22  N2  UNL     1      22.564   6.337  51.160  1.00  0.00    -0.263 NA
ENDBRANCH   7   8
ENDBRANCH   6   7
ENDBRANCH   4   6
ENDBRANCH   3   4
TORSDOF 4
ENDMDL
