MODEL 1
REMARK VINA RESULT:      -8.3      0.000      0.000
REMARK  4 active torsions:
REMARK  status: ('A' for Active; 'I' for Inactive)
REMARK    1  A    between atoms: O1_2  and  C2_3 
REMARK    2  A    between atoms: C6_9  and  N3_10 
REMARK    3  A    between atoms: N3_10  and  C7_11 
REMARK    4  A    between atoms: C15_21  and  N4_22 
ROOT
HETATM    1  N4  UNL     1      21.143  -0.547  54.091  1.00  0.00    -0.203 NA
HETATM    2  C16 UNL     1      21.997  -1.002  54.913  1.00  0.00     0.337 C 
HETATM    3  O2  UNL     1      22.852  -1.578  55.610  1.00  0.00    -0.260 OA
ENDROOT
BRANCH   1   4
HETATM    4  C15 UNL     1      21.622   0.218  52.985  1.00  0.00     0.095 A 
HETATM    5  C2  UNL     1      20.812   0.376  51.880  1.00  0.00     0.099 A 
HETATM    6  C3  UNL     1      21.295   1.116  50.829  1.00  0.00     0.071 A 
HETATM    7  C4  UNL     1      22.552   1.682  50.882  1.00  0.00     0.075 A 
HETATM    8  N1  UNL     1      22.910   2.379  49.799  1.00  0.00    -0.241 NA
HETATM    9  C13 UNL     1      23.392   1.549  51.968  1.00  0.00     0.041 A 
HETATM   10  C5  UNL     1      24.124   2.951  49.800  1.00  0.00     0.236 A 
HETATM   11  N2  UNL     1      24.927   2.813  50.858  1.00  0.00    -0.224 NA
HETATM   12  C6  UNL     1      24.634   2.135  51.967  1.00  0.00     0.142 A 
HETATM   13  C14 UNL     1      22.859   0.804  52.981  1.00  0.00     0.052 A 
BRANCH   5  14
HETATM   14  O1  UNL     1      19.557  -0.209  51.866  1.00  0.00    -0.353 OA
HETATM   15  C1  UNL     1      18.513   0.297  51.054  1.00  0.00     0.210 C 
ENDBRANCH   5  14
BRANCH  12  16
HETATM   16  N3  UNL     1      25.461   1.973  53.097  1.00  0.00    -0.340 N 
HETATM   17  H6  UNL     1      25.252   2.428  54.005  1.00  0.00     0.167 HD
BRANCH  16  18
HETATM   18  C7  UNL     1      26.654   1.222  53.235  1.00  0.00     0.035 A 
HETATM   19  C8  UNL     1      27.879   1.714  53.626  1.00  0.00     0.032 A 
HETATM   20  C9  UNL     1      29.024   0.983  53.755  1.00  0.00     0.046 A 
HETATM   21  C10 UNL     1      29.010  -0.356  53.485  1.00  0.00     0.138 A 
HETATM   22  F1  UNL     1      30.155  -1.039  53.624  1.00  0.00    -0.204 F 
HETATM   23  C11 UNL     1      27.802  -0.915  53.084  1.00  0.00     0.074 A 
HETATM   24 CL1  UNL     1      27.846  -2.632  52.752  1.00  0.00    -0.081 Cl
HETATM   25  C12 UNL     1      26.684  -0.130  52.972  1.00  0.00     0.056 A 
ENDBRANCH  16  18
ENDBRANCH  12  16
ENDBRANCH   1   4
TORSDOF 4
ENDMDL
MODEL 2
REMARK VINA RESULT:      -8.1      3.463      6.237
REMARK  4 active torsions:
REMARK  status: ('A' for Active; 'I' for Inactive)
REMARK    1  A    between atoms: O1_2  and  C2_3 
REMARK    2  A    between atoms: C6_9  and  N3_10 
REMARK    3  A    between atoms: N3_10  and  C7_11 
REMARK    4  A    between atoms: C15_21  and  N4_22 
ROOT
HETATM    1  N4  UNL     1      25.664  -0.835  55.335  1.00  0.00    -0.203 NA
HETATM    2  C16 UNL     1      24.467  -1.240  55.462  1.00  0.00     0.337 C 
HETATM    3  O2  UNL     1      23.265  -1.488  55.664  1.00  0.00    -0.260 OA
ENDROOT
BRANCH   1   4
HETATM    4  C15 UNL     1      25.970   0.009  54.227  1.00  0.00     0.095 A 
HETATM    5  C2  UNL     1      27.232  -0.046  53.672  1.00  0.00     0.099 A 
HETATM    6  C3  UNL     1      27.502   0.777  52.606  1.00  0.00     0.071 A 
HETATM    7  C4  UNL     1      26.539   1.629  52.109  1.00  0.00     0.075 A 
HETATM    8  N1  UNL     1      26.921   2.379  51.071  1.00  0.00    -0.241 NA
HETATM    9  C13 UNL     1      25.266   1.715  52.634  1.00  0.00     0.041 A 
HETATM   10  C5  UNL     1      26.021   3.226  50.550  1.00  0.00     0.236 A 
HETATM   11  N2  UNL     1      24.792   3.299  51.068  1.00  0.00    -0.224 NA
HETATM   12  C6  UNL     1      24.346   2.582  52.099  1.00  0.00     0.142 A 
HETATM   13  C14 UNL     1      25.055   0.875  53.691  1.00  0.00     0.052 A 
BRANCH   5  14
HETATM   14  O1  UNL     1      28.171  -0.916  54.201  1.00  0.00    -0.353 OA
HETATM   15  C1  UNL     1      29.548  -0.794  53.895  1.00  0.00     0.210 C 
ENDBRANCH   5  14
BRANCH  12  16
HETATM   16  N3  UNL     1      23.056   2.638  52.666  1.00  0.00    -0.340 N 
HETATM   17  H6  UNL     1      22.797   3.344  53.379  1.00  0.00     0.167 HD
BRANCH  16  18
HETATM   18  C7  UNL     1      21.930   1.818  52.413  1.00  0.00     0.035 A 
HETATM   19  C8  UNL     1      21.004   2.002  51.410  1.00  0.00     0.032 A 
HETATM   20  C9  UNL     1      19.920   1.208  51.174  1.00  0.00     0.046 A 
HETATM   21  C10 UNL     1      19.687   0.122  51.969  1.00  0.00     0.138 A 
HETATM   22  F1  UNL     1      18.612  -0.634  51.704  1.00  0.00    -0.204 F 
HETATM   23  C11 UNL     1      20.586  -0.120  53.001  1.00  0.00     0.074 A 
HETATM   24 CL1  UNL     1      20.234  -1.523  53.985  1.00  0.00    -0.081 Cl
HETATM   25  C12 UNL     1      21.657   0.714  53.191  1.00  0.00     0.056 A 
ENDBRANCH  16  18
ENDBRANCH  12  16
ENDBRANCH   1   4
TORSDOF 4
ENDMDL
MODEL 3
REMARK VINA RESULT:      -7.9      2.064      3.596
REMARK  4 active torsions:
REMARK  status: ('A' for Active; 'I' for Inactive)
REMARK    1  A    between atoms: O1_2  and  C2_3 
REMARK    2  A    between atoms: C6_9  and  N3_10 
REMARK    3  A    between atoms: N3_10  and  C7_11 
REMARK    4  A    between atoms: C15_21  and  N4_22 
ROOT
HETATM    1  N4  UNL     1      20.162   1.273  50.439  1.00  0.00    -0.203 NA
HETATM    2  C16 UNL     1      20.727   2.384  50.197  1.00  0.00     0.337 C 
HETATM    3  O2  UNL     1      21.164   3.542  50.064  1.00  0.00    -0.260 OA
ENDROOT
BRANCH   1   4
HETATM    4  C15 UNL     1      20.545   0.571  51.620  1.00  0.00     0.095 A 
HETATM    5  C2  UNL     1      19.568  -0.018  52.395  1.00  0.00     0.099 A 
HETATM    6  C3  UNL     1      19.962  -0.688  53.528  1.00  0.00     0.071 A 
HETATM    7  C4  UNL     1      21.294  -0.765  53.875  1.00  0.00     0.075 A 
HETATM    8  N1  UNL     1      21.553  -1.443  54.998  1.00  0.00    -0.241 NA
HETATM    9  C13 UNL     1      22.302  -0.190  53.128  1.00  0.00     0.041 A 
HETATM   10  C5  UNL     1      22.835  -1.548  55.380  1.00  0.00     0.236 A 
HETATM   11  N2  UNL     1      23.800  -0.987  54.648  1.00  0.00    -0.224 NA
HETATM   12  C6  UNL     1      23.613  -0.300  53.521  1.00  0.00     0.142 A 
HETATM   13  C14 UNL     1      21.851   0.461  52.015  1.00  0.00     0.052 A 
BRANCH   5  14
HETATM   14  O1  UNL     1      18.241   0.083  52.012  1.00  0.00    -0.353 OA
HETATM   15  C1  UNL     1      17.239  -0.734  52.589  1.00  0.00     0.210 C 
ENDBRANCH   5  14
BRANCH  12  16
HETATM   16  N3  UNL     1      24.611   0.303  52.728  1.00  0.00    -0.340 N 
HETATM   17  H6  UNL     1      24.390   0.805  51.849  1.00  0.00     0.167 HD
BRANCH  16  18
HETATM   18  C7  UNL     1      26.011   0.354  52.937  1.00  0.00     0.035 A 
HETATM   19  C8  UNL     1      26.761   1.495  53.118  1.00  0.00     0.032 A 
HETATM   20  C9  UNL     1      28.110   1.536  53.317  1.00  0.00     0.046 A 
HETATM   21  C10 UNL     1      28.828   0.374  53.350  1.00  0.00     0.138 A 
HETATM   22  F1  UNL     1      30.151   0.456  53.549  1.00  0.00    -0.204 F 
HETATM   23  C11 UNL     1      28.129  -0.814  53.173  1.00  0.00     0.074 A 
HETATM   24 CL1  UNL     1      29.102  -2.268  53.224  1.00  0.00    -0.081 Cl
HETATM   25  C12 UNL     1      26.773  -0.793  52.976  1.00  0.00     0.056 A 
ENDBRANCH  16  18
ENDBRANCH  12  16
ENDBRANCH   1   4
TORSDOF 4
ENDMDL
MODEL 4
REMARK VINA RESULT:      -7.8      4.142      5.960
REMARK  4 active torsions:
REMARK  status: ('A' for Active; 'I' for Inactive)
REMARK    1  A    between atoms: O1_2  and  C2_3 
REMARK    2  A    between atoms: C6_9  and  N3_10 
REMARK    3  A    between atoms: N3_10  and  C7_11 
REMARK    4  A    between atoms: C15_21  and  N4_22 
ROOT
HETATM    1  N4  UNL     1      26.937   1.457  54.397  1.00  0.00    -0.203 NA
HETATM    2  C16 UNL     1      28.044   1.576  53.787  1.00  0.00     0.337 C 
HETATM    3  O2  UNL     1      29.126   1.523  53.176  1.00  0.00    -0.260 OA
ENDROOT
BRANCH   1   4
HETATM    4  C15 UNL     1      25.749   1.348  53.614  1.00  0.00     0.095 A 
HETATM    5  C2  UNL     1      25.022   0.177  53.661  1.00  0.00     0.099 A 
HETATM    6  C3  UNL     1      23.882   0.097  52.898  1.00  0.00     0.071 A 
HETATM    7  C4  UNL     1      23.483   1.157  52.111  1.00  0.00     0.075 A 
HETATM    8  N1  UNL     1      22.359   0.959  51.415  1.00  0.00    -0.241 NA
HETATM    9  C13 UNL     1      24.182   2.344  52.037  1.00  0.00     0.041 A 
HETATM   10  C5  UNL     1      21.927   1.961  50.634  1.00  0.00     0.236 A 
HETATM   11  N2  UNL     1      22.613   3.105  50.571  1.00  0.00    -0.224 NA
HETATM   12  C6  UNL     1      23.737   3.368  51.237  1.00  0.00     0.142 A 
HETATM   13  C14 UNL     1      25.303   2.366  52.815  1.00  0.00     0.052 A 
BRANCH   5  14
HETATM   14  O1  UNL     1      25.457  -0.864  54.463  1.00  0.00    -0.353 OA
HETATM   15  C1  UNL     1      24.800  -1.191  55.675  1.00  0.00     0.210 C 
ENDBRANCH   5  14
BRANCH  12  16
HETATM   16  N3  UNL     1      24.482   4.565  51.190  1.00  0.00    -0.340 N 
HETATM   17  H6  UNL     1      24.351   5.324  51.883  1.00  0.00     0.167 HD
BRANCH  16  18
HETATM   18  C7  UNL     1      25.483   4.961  50.270  1.00  0.00     0.035 A 
HETATM   19  C8  UNL     1      26.432   4.139  49.703  1.00  0.00     0.032 A 
HETATM   20  C9  UNL     1      27.395   4.530  48.819  1.00  0.00     0.046 A 
HETATM   21  C10 UNL     1      27.468   5.836  48.427  1.00  0.00     0.138 A 
HETATM   22  F1  UNL     1      28.427   6.180  47.556  1.00  0.00    -0.204 F 
HETATM   23  C11 UNL     1      26.537   6.718  48.963  1.00  0.00     0.074 A 
HETATM   24 CL1  UNL     1      26.682   8.377  48.424  1.00  0.00    -0.081 Cl
HETATM   25  C12 UNL     1      25.593   6.268  49.849  1.00  0.00     0.056 A 
ENDBRANCH  16  18
ENDBRANCH  12  16
ENDBRANCH   1   4
TORSDOF 4
ENDMDL
MODEL 5
REMARK VINA RESULT:      -7.7      4.413      6.942
REMARK  4 active torsions:
REMARK  status: ('A' for Active; 'I' for Inactive)
REMARK    1  A    between atoms: O1_2  and  C2_3 
REMARK    2  A    between atoms: C6_9  and  N3_10 
REMARK    3  A    between atoms: N3_10  and  C7_11 
REMARK    4  A    between atoms: C15_21  and  N4_22 
ROOT
HETATM    1  N4  UNL     1      28.844   1.120  53.343  1.00  0.00    -0.203 NA
HETATM    2  C16 UNL     1      29.308   1.698  54.374  1.00  0.00     0.337 C 
HETATM    3  O2  UNL     1      29.700   2.408  55.317  1.00  0.00    -0.260 OA
ENDROOT
BRANCH   1   4
HETATM    4  C15 UNL     1      27.470   0.739  53.352  1.00  0.00     0.095 A 
HETATM    5  C2  UNL     1      27.141  -0.577  53.607  1.00  0.00     0.099 A 
HETATM    6  C3  UNL     1      25.811  -0.919  53.610  1.00  0.00     0.071 A 
HETATM    7  C4  UNL     1      24.838   0.027  53.364  1.00  0.00     0.075 A 
HETATM    8  N1  UNL     1      23.581  -0.427  53.394  1.00  0.00    -0.241 NA
HETATM    9  C13 UNL     1      25.124   1.351  53.105  1.00  0.00     0.041 A 
HETATM   10  C5  UNL     1      22.596   0.454  53.162  1.00  0.00     0.236 A 
HETATM   11  N2  UNL     1      22.886   1.733  52.912  1.00  0.00    -0.224 NA
HETATM   12  C6  UNL     1      24.114   2.251  52.868  1.00  0.00     0.142 A 
HETATM   13  C14 UNL     1      26.460   1.632  53.115  1.00  0.00     0.052 A 
BRANCH   5  14
HETATM   14  O1  UNL     1      28.149  -1.496  53.849  1.00  0.00    -0.353 OA
HETATM   15  C1  UNL     1      28.513  -2.466  52.884  1.00  0.00     0.210 C 
ENDBRANCH   5  14
BRANCH  12  16
HETATM   16  N3  UNL     1      24.450   3.595  52.607  1.00  0.00    -0.340 N 
HETATM   17  H6  UNL     1      24.865   4.211  53.330  1.00  0.00     0.167 HD
BRANCH  16  18
HETATM   18  C7  UNL     1      24.311   4.337  51.409  1.00  0.00     0.035 A 
HETATM   19  C8  UNL     1      24.746   3.949  50.161  1.00  0.00     0.032 A 
HETATM   20  C9  UNL     1      24.608   4.670  49.012  1.00  0.00     0.046 A 
HETATM   21  C10 UNL     1      23.993   5.889  49.044  1.00  0.00     0.138 A 
HETATM   22  F1  UNL     1      23.877   6.567  47.893  1.00  0.00    -0.204 F 
HETATM   23  C11 UNL     1      23.530   6.340  50.275  1.00  0.00     0.074 A 
HETATM   24 CL1  UNL     1      22.752   7.907  50.253  1.00  0.00    -0.081 Cl
HETATM   25  C12 UNL     1      23.697   5.571  51.397  1.00  0.00     0.056 A 
ENDBRANCH  16  18
ENDBRANCH  12  16
ENDBRANCH   1   4
TORSDOF 4
ENDMDL
MODEL 6
REMARK VINA RESULT:      -7.7      3.952      6.958
REMARK  4 active torsions:
REMARK  status: ('A' for Active; 'I' for Inactive)
REMARK    1  A    between atoms: O1_2  and  C2_3 
REMARK    2  A    between atoms: C6_9  and  N3_10 
REMARK    3  A    between atoms: N3_10  and  C7_11 
REMARK    4  A    between atoms: C15_21  and  N4_22 
ROOT
HETATM    1  N4  UNL     1      27.113   2.125  51.860  1.00  0.00    -0.203 NA
HETATM    2  C16 UNL     1      26.705   2.755  50.836  1.00  0.00     0.337 C 
HETATM    3  O2  UNL     1      26.335   3.228  49.747  1.00  0.00    -0.260 OA
ENDROOT
BRANCH   1   4
HETATM    4  C15 UNL     1      26.176   1.307  52.559  1.00  0.00     0.095 A 
HETATM    5  C2  UNL     1      26.645   0.285  53.358  1.00  0.00     0.099 A 
HETATM    6  C3  UNL     1      25.723  -0.488  54.021  1.00  0.00     0.071 A 
HETATM    7  C4  UNL     1      24.372  -0.248  53.887  1.00  0.00     0.075 A 
HETATM    8  N1  UNL     1      23.575  -1.066  54.580  1.00  0.00    -0.241 NA
HETATM    9  C13 UNL     1      23.862   0.763  53.098  1.00  0.00     0.041 A 
HETATM   10  C5  UNL     1      22.251  -0.874  54.484  1.00  0.00     0.236 A 
HETATM   11  N2  UNL     1      21.770   0.108  53.717  1.00  0.00    -0.224 NA
HETATM   12  C6  UNL     1      22.507   0.959  53.002  1.00  0.00     0.142 A 
HETATM   13  C14 UNL     1      24.824   1.498  52.465  1.00  0.00     0.052 A 
BRANCH   5  14
HETATM   14  O1  UNL     1      28.010   0.076  53.465  1.00  0.00    -0.353 OA
HETATM   15  C1  UNL     1      28.708   0.341  54.669  1.00  0.00     0.210 C 
ENDBRANCH   5  14
BRANCH  12  16
HETATM   16  N3  UNL     1      22.028   2.003  52.184  1.00  0.00    -0.340 N 
HETATM   17  H6  UNL     1      21.535   2.827  52.574  1.00  0.00     0.167 HD
BRANCH  16  18
HETATM   18  C7  UNL     1      22.106   2.147  50.778  1.00  0.00     0.035 A 
HETATM   19  C8  UNL     1      21.740   1.202  49.846  1.00  0.00     0.032 A 
HETATM   20  C9  UNL     1      21.820   1.348  48.492  1.00  0.00     0.046 A 
HETATM   21  C10 UNL     1      22.296   2.513  47.961  1.00  0.00     0.138 A 
HETATM   22  F1  UNL     1      22.358   2.619  46.626  1.00  0.00    -0.204 F 
HETATM   23  C11 UNL     1      22.683   3.510  48.850  1.00  0.00     0.074 A 
HETATM   24 CL1  UNL     1      23.285   4.977  48.111  1.00  0.00    -0.081 Cl
HETATM   25  C12 UNL     1      22.581   3.305  50.201  1.00  0.00     0.056 A 
ENDBRANCH  16  18
ENDBRANCH  12  16
ENDBRANCH   1   4
TORSDOF 4
ENDMDL
MODEL 7
REMARK VINA RESULT:      -7.6      4.112      5.943
REMARK  4 active torsions:
REMARK  status: ('A' for Active; 'I' for Inactive)
REMARK    1  A    between atoms: O1_2  and  C2_3 
REMARK    2  A    between atoms: C6_9  and  N3_10 
REMARK    3  A    between atoms: N3_10  and  C7_11 
REMARK    4  A    between atoms: C15_21  and  N4_22 
ROOT
HETATM    1  N4  UNL     1      21.623   1.767  50.599  1.00  0.00    -0.203 NA
HETATM    2  C16 UNL     1      21.633   1.227  49.450  1.00  0.00     0.337 C 
HETATM    3  O2  UNL     1      21.708   0.846  48.268  1.00  0.00    -0.260 OA
ENDROOT
BRANCH   1   4
HETATM    4  C15 UNL     1      22.827   1.732  51.365  1.00  0.00     0.095 A 
HETATM    5  C2  UNL     1      22.780   1.274  52.665  1.00  0.00     0.099 A 
HETATM    6  C3  UNL     1      23.952   1.251  53.381  1.00  0.00     0.071 A 
HETATM    7  C4  UNL     1      25.135   1.674  52.814  1.00  0.00     0.075 A 
HETATM    8  N1  UNL     1      26.207   1.604  53.609  1.00  0.00    -0.241 NA
HETATM    9  C13 UNL     1      25.225   2.138  51.518  1.00  0.00     0.041 A 
HETATM   10  C5  UNL     1      27.384   2.003  53.105  1.00  0.00     0.236 A 
HETATM   11  N2  UNL     1      27.457   2.451  51.849  1.00  0.00    -0.224 NA
HETATM   12  C6  UNL     1      26.431   2.546  51.003  1.00  0.00     0.142 A 
HETATM   13  C14 UNL     1      24.031   2.139  50.855  1.00  0.00     0.052 A 
BRANCH   5  14
HETATM   14  O1  UNL     1      21.571   0.859  53.198  1.00  0.00    -0.353 OA
HETATM   15  C1  UNL     1      21.512  -0.068  54.267  1.00  0.00     0.210 C 
ENDBRANCH   5  14
BRANCH  12  16
HETATM   16  N3  UNL     1      26.478   3.014  49.674  1.00  0.00    -0.340 N 
HETATM   17  H6  UNL     1      26.452   2.372  48.861  1.00  0.00     0.167 HD
BRANCH  16  18
HETATM   18  C7  UNL     1      26.562   4.344  49.195  1.00  0.00     0.035 A 
HETATM   19  C8  UNL     1      25.539   5.267  49.184  1.00  0.00     0.032 A 
HETATM   20  C9  UNL     1      25.629   6.546  48.719  1.00  0.00     0.046 A 
HETATM   21  C10 UNL     1      26.811   7.004  48.212  1.00  0.00     0.138 A 
HETATM   22  F1  UNL     1      26.859   8.267  47.766  1.00  0.00    -0.204 F 
HETATM   23  C11 UNL     1      27.885   6.121  48.194  1.00  0.00     0.074 A 
HETATM   24 CL1  UNL     1      29.371   6.764  47.532  1.00  0.00    -0.081 Cl
HETATM   25  C12 UNL     1      27.735   4.846  48.674  1.00  0.00     0.056 A 
ENDBRANCH  16  18
ENDBRANCH  12  16
ENDBRANCH   1   4
TORSDOF 4
ENDMDL
MODEL 8
REMARK VINA RESULT:      -7.6      2.205      3.899
REMARK  4 active torsions:
REMARK  status: ('A' for Active; 'I' for Inactive)
REMARK    1  A    between atoms: O1_2  and  C2_3 
REMARK    2  A    between atoms: C6_9  and  N3_10 
REMARK    3  A    between atoms: N3_10  and  C7_11 
REMARK    4  A    between atoms: C15_21  and  N4_22 
ROOT
HETATM    1  N4  UNL     1      22.846   2.587  49.664  1.00  0.00    -0.203 NA
HETATM    2  C16 UNL     1      23.703   3.517  49.775  1.00  0.00     0.337 C 
HETATM    3  O2  UNL     1      24.410   4.532  49.913  1.00  0.00    -0.260 OA
ENDROOT
BRANCH   1   4
HETATM    4  C15 UNL     1      22.391   1.951  50.858  1.00  0.00     0.095 A 
HETATM    5  C2  UNL     1      21.109   2.200  51.301  1.00  0.00     0.099 A 
HETATM    6  C3  UNL     1      20.694   1.575  52.453  1.00  0.00     0.071 A 
HETATM    7  C4  UNL     1      21.538   0.729  53.140  1.00  0.00     0.075 A 
HETATM    8  N1  UNL     1      21.022   0.182  54.245  1.00  0.00    -0.241 NA
HETATM    9  C13 UNL     1      22.827   0.454  52.731  1.00  0.00     0.041 A 
HETATM   10  C5  UNL     1      21.802  -0.651  54.950  1.00  0.00     0.236 A 
HETATM   11  N2  UNL     1      23.047  -0.908  54.543  1.00  0.00    -0.224 NA
HETATM   12  C6  UNL     1      23.623  -0.399  53.454  1.00  0.00     0.142 A 
HETATM   13  C14 UNL     1      23.183   1.101  51.582  1.00  0.00     0.052 A 
BRANCH   5  14
HETATM   14  O1  UNL     1      20.293   3.057  50.582  1.00  0.00    -0.353 OA
HETATM   15  C1  UNL     1      20.000   4.363  51.046  1.00  0.00     0.210 C 
ENDBRANCH   5  14
BRANCH  12  16
HETATM   16  N3  UNL     1      24.934  -0.652  53.000  1.00  0.00    -0.340 N 
HETATM   17  H6  UNL     1      25.148  -1.408  52.324  1.00  0.00     0.167 HD
BRANCH  16  18
HETATM   18  C7  UNL     1      26.141   0.009  53.334  1.00  0.00     0.035 A 
HETATM   19  C8  UNL     1      26.274   1.346  53.637  1.00  0.00     0.032 A 
HETATM   20  C9  UNL     1      27.442   1.975  53.957  1.00  0.00     0.046 A 
HETATM   21  C10 UNL     1      28.608   1.266  53.995  1.00  0.00     0.138 A 
HETATM   22  F1  UNL     1      29.734   1.920  54.313  1.00  0.00    -0.204 F 
HETATM   23  C11 UNL     1      28.542  -0.091  53.698  1.00  0.00     0.074 A 
HETATM   24 CL1  UNL     1      30.068  -0.945  53.761  1.00  0.00    -0.081 Cl
HETATM   25  C12 UNL     1      27.340  -0.669  53.382  1.00  0.00     0.056 A 
ENDBRANCH  16  18
ENDBRANCH  12  16
ENDBRANCH   1   4
TORSDOF 4
ENDMDL
MODEL 9
REMARK VINA RESULT:      -7.5      4.263      7.637
REMARK  4 active torsions:
REMARK  status: ('A' for Active; 'I' for Inactive)
REMARK    1  A    between atoms: O1_2  and  C2_3 
REMARK    2  A    between atoms: C6_9  and  N3_10 
REMARK    3  A    between atoms: N3_10  and  C7_11 
REMARK    4  A    between atoms: C15_21  and  N4_22 
ROOT
HETATM    1  N4  UNL     1      27.192   2.245  51.672  1.00  0.00    -0.203 NA
HETATM    2  C16 UNL     1      26.457   2.809  50.805  1.00  0.00     0.337 C 
HETATM    3  O2  UNL     1      25.754   3.220  49.864  1.00  0.00    -0.260 OA
ENDROOT
BRANCH   1   4
HETATM    4  C15 UNL     1      26.570   1.362  52.604  1.00  0.00     0.095 A 
HETATM    5  C2  UNL     1      27.357   0.678  53.506  1.00  0.00     0.099 A 
HETATM    6  C3  UNL     1      26.734  -0.167  54.393  1.00  0.00     0.071 A 
HETATM    7  C4  UNL     1      25.364  -0.323  54.376  1.00  0.00     0.075 A 
HETATM    8  N1  UNL     1      24.875  -1.171  55.286  1.00  0.00    -0.241 NA
HETATM    9  C13 UNL     1      24.541   0.343  53.491  1.00  0.00     0.041 A 
HETATM   10  C5  UNL     1      23.547  -1.357  55.313  1.00  0.00     0.236 A 
HETATM   11  N2  UNL     1      22.762  -0.708  54.450  1.00  0.00    -0.224 NA
HETATM   12  C6  UNL     1      23.182   0.150  53.520  1.00  0.00     0.142 A 
HETATM   13  C14 UNL     1      25.215   1.167  52.635  1.00  0.00     0.052 A 
BRANCH   5  14
HETATM   14  O1  UNL     1      28.729   0.862  53.490  1.00  0.00    -0.353 OA
HETATM   15  C1  UNL     1      29.625  -0.227  53.632  1.00  0.00     0.210 C 
ENDBRANCH   5  14
BRANCH  12  16
HETATM   16  N3  UNL     1      22.378   0.850  52.597  1.00  0.00    -0.340 N 
HETATM   17  H6  UNL     1      22.697   1.721  52.136  1.00  0.00     0.167 HD
BRANCH  16  18
HETATM   18  C7  UNL     1      21.074   0.547  52.135  1.00  0.00     0.035 A 
HETATM   19  C8  UNL     1      20.562   0.858  50.895  1.00  0.00     0.032 A 
HETATM   20  C9  UNL     1      19.304   0.563  50.457  1.00  0.00     0.046 A 
HETATM   21  C10 UNL     1      18.437  -0.098  51.279  1.00  0.00     0.138 A 
HETATM   22  F1  UNL     1      17.210  -0.370  50.813  1.00  0.00    -0.204 F 
HETATM   23  C11 UNL     1      18.892  -0.442  52.547  1.00  0.00     0.074 A 
HETATM   24 CL1  UNL     1      17.736  -1.286  53.553  1.00  0.00    -0.081 Cl
HETATM   25  C12 UNL     1      20.167  -0.118  52.931  1.00  0.00     0.056 A 
ENDBRANCH  16  18
ENDBRANCH  12  16
ENDBRANCH   1   4
TORSDOF 4
ENDMDL
