MODEL 1
REMARK VINA RESULT:      -8.3      0.000      0.000
REMARK  6 active torsions:
REMARK  status: ('A' for Active; 'I' for Inactive)
REMARK    1  A    between atoms: C5_5  and  N1_6 
REMARK    2  A    between atoms: N3_11  and  N4_12 
REMARK    3  A    between atoms: N4_12  and  C10_14 
REMARK    4  A    between atoms: C10_14  and  C11_15 
REMARK    5  A    between atoms: C19_24  and  S1_25 
REMARK    6  A    between atoms: S1_25  and  N6_26 
ROOT
HETATM    1  N1  UNL     1      23.881   5.336  50.265  1.00  0.00    -0.234 N 
HETATM    2  C6  UNL     1      23.151   6.558  50.257  1.00  0.00     0.234 A 
HETATM    3  N2  UNL     1      21.968   6.704  50.745  1.00  0.00    -0.253 NA
HETATM    4  C7  UNL     1      21.359   5.563  51.327  1.00  0.00     0.138 A 
HETATM    5  C8  UNL     1      21.905   4.356  51.413  1.00  0.00     0.150 A 
HETATM    6  N3  UNL     1      23.226   4.248  50.855  1.00  0.00    -0.219 N 
ENDROOT
BRANCH   1   7
HETATM    7  C5  UNL     1      25.187   5.274  49.711  1.00  0.00     0.060 A 
HETATM    8  C4  UNL     1      25.923   4.127  49.479  1.00  0.00     0.032 A 
HETATM    9  C3  UNL     1      27.205   4.233  48.959  1.00  0.00     0.011 A 
HETATM   10  C2  UNL     1      27.747   5.468  48.673  1.00  0.00    -0.039 A 
HETATM   11  C1  UNL     1      29.144   5.475  48.108  1.00  0.00     0.050 C 
HETATM   12  C19 UNL     1      27.018   6.625  48.900  1.00  0.00     0.087 A 
HETATM   13  C18 UNL     1      25.737   6.526  49.420  1.00  0.00     0.057 A 
BRANCH  12  14
HETATM   14  S1  UNL     1      27.787   8.167  48.518  1.00  0.00     0.257 S 
HETATM   15  O1  UNL     1      28.144   8.078  47.043  1.00  0.00    -0.201 OA
HETATM   16  O2  UNL     1      26.886   9.321  48.815  1.00  0.00    -0.201 OA
BRANCH  14  17
HETATM   17  N6  UNL     1      29.238   8.382  49.385  1.00  0.00    -0.324 N 
HETATM   18  H27 UNL     1      29.162   8.394  50.402  1.00  0.00     0.169 HD
HETATM   19  H28 UNL     1      30.087   8.019  48.957  1.00  0.00     0.169 HD
ENDBRANCH  14  17
ENDBRANCH  12  14
ENDBRANCH   1   7
BRANCH   6  20
HETATM   20  N4  UNL     1      23.880   2.986  50.954  1.00  0.00    -0.210 NA
HETATM   21  C9  UNL     1      23.004   2.008  50.391  1.00  0.00     0.139 C 
BRANCH  20  22
HETATM   22  C10 UNL     1      24.220   2.740  52.347  1.00  0.00     0.151 C 
BRANCH  22  23
HETATM   23  C11 UNL     1      24.914   1.461  52.587  1.00  0.00    -0.047 C 
HETATM   24  C12 UNL     1      25.960   1.167  51.793  1.00  0.00    -0.019 C 
HETATM   25  C13 UNL     1      26.772  -0.062  51.881  1.00  0.00     0.047 C 
HETATM   26  C14 UNL     1      26.346  -0.965  53.006  1.00  0.00     0.121 C 
HETATM   27  N5  UNL     1      25.628  -0.299  54.041  1.00  0.00    -0.409 N 
HETATM   28  C15 UNL     1      26.407   0.164  55.133  1.00  0.00     0.143 C 
HETATM   29  C16 UNL     1      24.518   0.494  53.645  1.00  0.00     0.104 C 
HETATM   30  C17 UNL     1      23.429  -0.448  53.111  1.00  0.00     0.037 C 
ENDBRANCH  22  23
ENDBRANCH  20  22
ENDBRANCH   6  20
TORSDOF 6
ENDMDL
MODEL 2
REMARK VINA RESULT:      -8.2      3.885      8.314
REMARK  6 active torsions:
REMARK  status: ('A' for Active; 'I' for Inactive)
REMARK    1  A    between atoms: C5_5  and  N1_6 
REMARK    2  A    between atoms: N3_11  and  N4_12 
REMARK    3  A    between atoms: N4_12  and  C10_14 
REMARK    4  A    between atoms: C10_14  and  C11_15 
REMARK    5  A    between atoms: C19_24  and  S1_25 
REMARK    6  A    between atoms: S1_25  and  N6_26 
ROOT
HETATM    1  N1  UNL     1      29.001   8.398  48.055  1.00  0.00    -0.234 N 
HETATM    2  C6  UNL     1      28.380   9.628  47.696  1.00  0.00     0.234 A 
HETATM    3  N2  UNL     1      29.017  10.690  47.340  1.00  0.00    -0.253 NA
HETATM    4  C7  UNL     1      30.433  10.618  47.308  1.00  0.00     0.138 A 
HETATM    5  C8  UNL     1      31.159   9.550  47.612  1.00  0.00     0.150 A 
HETATM    6  N3  UNL     1      30.399   8.392  48.001  1.00  0.00    -0.219 N 
ENDROOT
BRANCH   1   7
HETATM    7  C5  UNL     1      28.213   7.277  48.426  1.00  0.00     0.060 A 
HETATM    8  C4  UNL     1      28.527   5.949  48.205  1.00  0.00     0.032 A 
HETATM    9  C3  UNL     1      27.634   4.962  48.599  1.00  0.00     0.011 A 
HETATM   10  C2  UNL     1      26.442   5.295  49.206  1.00  0.00    -0.039 A 
HETATM   11  C1  UNL     1      25.544   4.152  49.599  1.00  0.00     0.050 C 
HETATM   12  C19 UNL     1      26.117   6.625  49.433  1.00  0.00     0.087 A 
HETATM   13  C18 UNL     1      27.004   7.614  49.042  1.00  0.00     0.057 A 
BRANCH  12  14
HETATM   14  S1  UNL     1      24.568   6.968  50.206  1.00  0.00     0.257 S 
HETATM   15  O1  UNL     1      24.388   8.473  50.086  1.00  0.00    -0.201 OA
HETATM   16  O2  UNL     1      23.452   6.210  49.564  1.00  0.00    -0.201 OA
BRANCH  14  17
HETATM   17  N6  UNL     1      24.591   6.586  51.867  1.00  0.00    -0.324 N 
HETATM   18  H27 UNL     1      24.735   7.364  52.510  1.00  0.00     0.169 HD
HETATM   19  H28 UNL     1      24.021   5.797  52.165  1.00  0.00     0.169 HD
ENDBRANCH  14  17
ENDBRANCH  12  14
ENDBRANCH   1   7
BRANCH   6  20
HETATM   20  N4  UNL     1      31.123   7.202  48.301  1.00  0.00    -0.210 NA
HETATM   21  C9  UNL     1      31.696   7.368  49.599  1.00  0.00     0.139 C 
BRANCH  20  22
HETATM   22  C10 UNL     1      32.102   6.969  47.250  1.00  0.00     0.151 C 
BRANCH  22  23
HETATM   23  C11 UNL     1      32.754   5.648  47.310  1.00  0.00    -0.047 C 
HETATM   24  C12 UNL     1      31.956   4.565  47.343  1.00  0.00    -0.019 C 
HETATM   25  C13 UNL     1      32.425   3.168  47.405  1.00  0.00     0.047 C 
HETATM   26  C14 UNL     1      33.925   3.052  47.376  1.00  0.00     0.121 C 
HETATM   27  N5  UNL     1      34.580   4.185  46.813  1.00  0.00    -0.409 N 
HETATM   28  C15 UNL     1      34.867   4.104  45.425  1.00  0.00     0.143 C 
HETATM   29  C16 UNL     1      34.229   5.457  47.337  1.00  0.00     0.104 C 
HETATM   30  C17 UNL     1      34.739   5.531  48.784  1.00  0.00     0.037 C 
ENDBRANCH  22  23
ENDBRANCH  20  22
ENDBRANCH   6  20
TORSDOF 6
ENDMDL
MODEL 3
REMARK VINA RESULT:      -8.1      3.460      6.438
REMARK  6 active torsions:
REMARK  status: ('A' for Active; 'I' for Inactive)
REMARK    1  A    between atoms: C5_5  and  N1_6 
REMARK    2  A    between atoms: N3_11  and  N4_12 
REMARK    3  A    between atoms: N4_12  and  C10_14 
REMARK    4  A    between atoms: C10_14  and  C11_15 
REMARK    5  A    between atoms: C19_24  and  S1_25 
REMARK    6  A    between atoms: S1_25  and  N6_26 
ROOT
HETATM    1  N1  UNL     1      21.555   1.646  49.959  1.00  0.00    -0.234 N 
HETATM    2  C6  UNL     1      21.913   1.382  48.606  1.00  0.00     0.234 A 
HETATM    3  N2  UNL     1      21.281   1.843  47.582  1.00  0.00    -0.253 NA
HETATM    4  C7  UNL     1      20.155   2.668  47.830  1.00  0.00     0.138 A 
HETATM    5  C8  UNL     1      19.695   3.008  49.028  1.00  0.00     0.150 A 
HETATM    6  N3  UNL     1      20.436   2.468  50.136  1.00  0.00    -0.219 N 
ENDROOT
BRANCH   1   7
HETATM    7  C5  UNL     1      22.319   1.100  51.024  1.00  0.00     0.060 A 
HETATM    8  C4  UNL     1      21.884   0.168  51.947  1.00  0.00     0.032 A 
HETATM    9  C3  UNL     1      22.743  -0.247  52.955  1.00  0.00     0.011 A 
HETATM   10  C2  UNL     1      24.021   0.263  53.043  1.00  0.00    -0.039 A 
HETATM   11  C1  UNL     1      24.876  -0.253  54.170  1.00  0.00     0.050 C 
HETATM   12  C19 UNL     1      24.469   1.198  52.121  1.00  0.00     0.087 A 
HETATM   13  C18 UNL     1      23.616   1.616  51.113  1.00  0.00     0.057 A 
BRANCH  12  14
HETATM   14  S1  UNL     1      26.114   1.809  52.308  1.00  0.00     0.257 S 
HETATM   15  O1  UNL     1      27.008   0.584  52.199  1.00  0.00    -0.201 OA
HETATM   16  O2  UNL     1      26.439   2.841  51.277  1.00  0.00    -0.201 OA
BRANCH  14  17
HETATM   17  N6  UNL     1      26.365   2.492  53.849  1.00  0.00    -0.324 N 
HETATM   18  H27 UNL     1      25.713   3.223  54.132  1.00  0.00     0.169 HD
HETATM   19  H28 UNL     1      26.768   1.885  54.560  1.00  0.00     0.169 HD
ENDBRANCH  14  17
ENDBRANCH  12  14
ENDBRANCH   1   7
BRANCH   6  20
HETATM   20  N4  UNL     1      20.014   2.830  51.447  1.00  0.00    -0.210 NA
HETATM   21  C9  UNL     1      18.717   2.265  51.648  1.00  0.00     0.139 C 
BRANCH  20  22
HETATM   22  C10 UNL     1      20.050   4.280  51.570  1.00  0.00     0.151 C 
BRANCH  22  23
HETATM   23  C11 UNL     1      21.401   4.863  51.482  1.00  0.00    -0.047 C 
HETATM   24  C12 UNL     1      22.277   4.546  52.453  1.00  0.00    -0.019 C 
HETATM   25  C13 UNL     1      23.667   5.034  52.534  1.00  0.00     0.047 C 
HETATM   26  C14 UNL     1      24.050   5.905  51.368  1.00  0.00     0.121 C 
HETATM   27  N5  UNL     1      23.243   5.708  50.210  1.00  0.00    -0.409 N 
HETATM   28  C15 UNL     1      23.741   4.775  49.264  1.00  0.00     0.143 C 
HETATM   29  C16 UNL     1      21.836   5.774  50.389  1.00  0.00     0.104 C 
HETATM   30  C17 UNL     1      21.470   7.224  50.741  1.00  0.00     0.037 C 
ENDBRANCH  22  23
ENDBRANCH  20  22
ENDBRANCH   6  20
TORSDOF 6
ENDMDL
MODEL 4
REMARK VINA RESULT:      -8.1      5.090      7.503
REMARK  6 active torsions:
REMARK  status: ('A' for Active; 'I' for Inactive)
REMARK    1  A    between atoms: C5_5  and  N1_6 
REMARK    2  A    between atoms: N3_11  and  N4_12 
REMARK    3  A    between atoms: N4_12  and  C10_14 
REMARK    4  A    between atoms: C10_14  and  C11_15 
REMARK    5  A    between atoms: C19_24  and  S1_25 
REMARK    6  A    between atoms: S1_25  and  N6_26 
ROOT
HETATM    1  N1  UNL     1      21.784   0.097  52.926  1.00  0.00    -0.234 N 
HETATM    2  C6  UNL     1      21.608  -1.089  53.694  1.00  0.00     0.234 A 
HETATM    3  N2  UNL     1      20.465  -1.608  53.982  1.00  0.00    -0.253 NA
HETATM    4  C7  UNL     1      19.309  -0.945  53.496  1.00  0.00     0.138 A 
HETATM    5  C8  UNL     1      19.304   0.165  52.769  1.00  0.00     0.150 A 
HETATM    6  N3  UNL     1      20.605   0.702  52.475  1.00  0.00    -0.219 N 
ENDROOT
BRANCH   1   7
HETATM    7  C5  UNL     1      23.088   0.589  52.651  1.00  0.00     0.060 A 
HETATM    8  C4  UNL     1      23.435   1.463  51.639  1.00  0.00     0.032 A 
HETATM    9  C3  UNL     1      24.764   1.828  51.478  1.00  0.00     0.011 A 
HETATM   10  C2  UNL     1      25.736   1.327  52.317  1.00  0.00    -0.039 A 
HETATM   11  C1  UNL     1      27.148   1.786  52.062  1.00  0.00     0.050 C 
HETATM   12  C19 UNL     1      25.400   0.448  53.337  1.00  0.00     0.087 A 
HETATM   13  C18 UNL     1      24.074   0.080  53.502  1.00  0.00     0.057 A 
BRANCH  12  14
HETATM   14  S1  UNL     1      26.704  -0.157  54.360  1.00  0.00     0.257 S 
HETATM   15  O1  UNL     1      26.014  -0.711  55.597  1.00  0.00    -0.201 OA
HETATM   16  O2  UNL     1      27.522  -1.190  53.656  1.00  0.00    -0.201 OA
BRANCH  14  17
HETATM   17  N6  UNL     1      27.742   1.095  54.869  1.00  0.00    -0.324 N 
HETATM   18  H27 UNL     1      27.463   1.603  55.707  1.00  0.00     0.169 HD
HETATM   19  H28 UNL     1      28.733   0.981  54.666  1.00  0.00     0.169 HD
ENDBRANCH  14  17
ENDBRANCH  12  14
ENDBRANCH   1   7
BRANCH   6  20
HETATM   20  N4  UNL     1      20.665   1.872  51.663  1.00  0.00    -0.210 NA
HETATM   21  C9  UNL     1      20.079   2.939  52.411  1.00  0.00     0.139 C 
BRANCH  20  22
HETATM   22  C10 UNL     1      19.998   1.602  50.399  1.00  0.00     0.151 C 
BRANCH  22  23
HETATM   23  C11 UNL     1      20.637   2.231  49.228  1.00  0.00    -0.047 C 
HETATM   24  C12 UNL     1      21.619   1.545  48.616  1.00  0.00    -0.019 C 
HETATM   25  C13 UNL     1      22.372   2.012  47.437  1.00  0.00     0.047 C 
HETATM   26  C14 UNL     1      21.896   3.346  46.930  1.00  0.00     0.121 C 
HETATM   27  N5  UNL     1      20.564   3.670  47.319  1.00  0.00    -0.409 N 
HETATM   28  C15 UNL     1      19.548   3.316  46.393  1.00  0.00     0.143 C 
HETATM   29  C16 UNL     1      20.257   3.569  48.701  1.00  0.00     0.104 C 
HETATM   30  C17 UNL     1      21.038   4.664  49.443  1.00  0.00     0.037 C 
ENDBRANCH  22  23
ENDBRANCH  20  22
ENDBRANCH   6  20
TORSDOF 6
ENDMDL
MODEL 5
REMARK VINA RESULT:      -7.9      3.740      6.102
REMARK  6 active torsions:
REMARK  status: ('A' for Active; 'I' for Inactive)
REMARK    1  A    between atoms: C5_5  and  N1_6 
REMARK    2  A    between atoms: N3_11  and  N4_12 
REMARK    3  A    between atoms: N4_12  and  C10_14 
REMARK    4  A    between atoms: C10_14  and  C11_15 
REMARK    5  A    between atoms: C19_24  and  S1_25 
REMARK    6  A    between atoms: S1_25  and  N6_26 
ROOT
HETATM    1  N1  UNL     1      25.000   1.466  52.451  1.00  0.00    -0.234 N 
HETATM    2  C6  UNL     1      26.393   1.375  52.171  1.00  0.00     0.234 A 
HETATM    3  N2  UNL     1      27.109   0.322  52.367  1.00  0.00    -0.253 NA
HETATM    4  C7  UNL     1      26.455  -0.820  52.896  1.00  0.00     0.138 A 
HETATM    5  C8  UNL     1      25.167  -0.896  53.208  1.00  0.00     0.150 A 
HETATM    6  N3  UNL     1      24.414   0.306  52.970  1.00  0.00    -0.219 N 
ENDROOT
BRANCH   1   7
HETATM    7  C5  UNL     1      24.291   2.669  52.193  1.00  0.00     0.060 A 
HETATM    8  C4  UNL     1      23.970   3.642  53.120  1.00  0.00     0.032 A 
HETATM    9  C3  UNL     1      23.241   4.753  52.719  1.00  0.00     0.011 A 
HETATM   10  C2  UNL     1      22.837   4.892  51.409  1.00  0.00    -0.039 A 
HETATM   11  C1  UNL     1      22.054   6.134  51.073  1.00  0.00     0.050 C 
HETATM   12  C19 UNL     1      23.154   3.921  50.469  1.00  0.00     0.087 A 
HETATM   13  C18 UNL     1      23.881   2.810  50.864  1.00  0.00     0.057 A 
BRANCH  12  14
HETATM   14  S1  UNL     1      22.590   4.168  48.815  1.00  0.00     0.257 S 
HETATM   15  O1  UNL     1      22.959   2.892  48.075  1.00  0.00    -0.201 OA
HETATM   16  O2  UNL     1      21.123   4.447  48.768  1.00  0.00    -0.201 OA
BRANCH  14  17
HETATM   17  N6  UNL     1      23.406   5.456  48.054  1.00  0.00    -0.324 N 
HETATM   18  H27 UNL     1      24.143   5.909  48.594  1.00  0.00     0.169 HD
HETATM   19  H28 UNL     1      23.492   5.411  47.040  1.00  0.00     0.169 HD
ENDBRANCH  14  17
ENDBRANCH  12  14
ENDBRANCH   1   7
BRANCH   6  20
HETATM   20  N4  UNL     1      23.017   0.271  53.248  1.00  0.00    -0.210 NA
HETATM   21  C9  UNL     1      22.853  -0.335  54.531  1.00  0.00     0.139 C 
BRANCH  20  22
HETATM   22  C10 UNL     1      22.340  -0.436  52.172  1.00  0.00     0.151 C 
BRANCH  22  23
HETATM   23  C11 UNL     1      21.220   0.308  51.566  1.00  0.00    -0.047 C 
HETATM   24  C12 UNL     1      21.247   0.489  50.232  1.00  0.00    -0.019 C 
HETATM   25  C13 UNL     1      20.220   1.206  49.453  1.00  0.00     0.047 C 
HETATM   26  C14 UNL     1      19.076   1.692  50.301  1.00  0.00     0.121 C 
HETATM   27  N5  UNL     1      18.926   0.985  51.529  1.00  0.00    -0.409 N 
HETATM   28  C15 UNL     1      18.023  -0.110  51.504  1.00  0.00     0.143 C 
HETATM   29  C16 UNL     1      20.082   0.864  52.345  1.00  0.00     0.104 C 
HETATM   30  C17 UNL     1      20.440   2.262  52.870  1.00  0.00     0.037 C 
ENDBRANCH  22  23
ENDBRANCH  20  22
ENDBRANCH   6  20
TORSDOF 6
ENDMDL
MODEL 6
REMARK VINA RESULT:      -7.9      3.180      6.240
REMARK  6 active torsions:
REMARK  status: ('A' for Active; 'I' for Inactive)
REMARK    1  A    between atoms: C5_5  and  N1_6 
REMARK    2  A    between atoms: N3_11  and  N4_12 
REMARK    3  A    between atoms: N4_12  and  C10_14 
REMARK    4  A    between atoms: C10_14  and  C11_15 
REMARK    5  A    between atoms: C19_24  and  S1_25 
REMARK    6  A    between atoms: S1_25  and  N6_26 
ROOT
HETATM    1  N1  UNL     1      24.329   0.379  53.582  1.00  0.00    -0.234 N 
HETATM    2  C6  UNL     1      25.296  -0.380  54.299  1.00  0.00     0.234 A 
HETATM    3  N2  UNL     1      25.012  -1.278  55.179  1.00  0.00    -0.253 NA
HETATM    4  C7  UNL     1      23.639  -1.518  55.443  1.00  0.00     0.138 A 
HETATM    5  C8  UNL     1      22.621  -0.898  54.860  1.00  0.00     0.150 A 
HETATM    6  N3  UNL     1      22.993   0.094  53.887  1.00  0.00    -0.219 N 
ENDROOT
BRANCH   1   7
HETATM    7  C5  UNL     1      24.738   1.343  52.623  1.00  0.00     0.060 A 
HETATM    8  C4  UNL     1      25.796   1.222  51.742  1.00  0.00     0.032 A 
HETATM    9  C3  UNL     1      26.092   2.270  50.882  1.00  0.00     0.011 A 
HETATM   10  C2  UNL     1      25.343   3.427  50.902  1.00  0.00    -0.039 A 
HETATM   11  C1  UNL     1      25.743   4.505  49.928  1.00  0.00     0.050 C 
HETATM   12  C19 UNL     1      24.279   3.561  51.781  1.00  0.00     0.087 A 
HETATM   13  C18 UNL     1      23.978   2.517  52.642  1.00  0.00     0.057 A 
BRANCH  12  14
HETATM   14  S1  UNL     1      23.376   5.077  51.751  1.00  0.00     0.257 S 
HETATM   15  O1  UNL     1      22.921   5.240  50.310  1.00  0.00    -0.201 OA
HETATM   16  O2  UNL     1      22.230   5.055  52.710  1.00  0.00    -0.201 OA
BRANCH  14  17
HETATM   17  N6  UNL     1      24.367   6.411  52.130  1.00  0.00    -0.324 N 
HETATM   18  H27 UNL     1      24.179   6.879  53.016  1.00  0.00     0.169 HD
HETATM   19  H28 UNL     1      25.321   6.391  51.774  1.00  0.00     0.169 HD
ENDBRANCH  14  17
ENDBRANCH  12  14
ENDBRANCH   1   7
BRANCH   6  20
HETATM   20  N4  UNL     1      21.941   0.765  53.199  1.00  0.00    -0.210 NA
HETATM   21  C9  UNL     1      20.859   0.916  54.119  1.00  0.00     0.139 C 
BRANCH  20  22
HETATM   22  C10 UNL     1      21.599   0.007  52.006  1.00  0.00     0.151 C 
BRANCH  22  23
HETATM   23  C11 UNL     1      20.712   0.718  51.067  1.00  0.00    -0.047 C 
HETATM   24  C12 UNL     1      19.454   0.258  50.935  1.00  0.00    -0.019 C 
HETATM   25  C13 UNL     1      18.429   0.836  50.046  1.00  0.00     0.047 C 
HETATM   26  C14 UNL     1      18.912   2.058  49.312  1.00  0.00     0.121 C 
HETATM   27  N5  UNL     1      20.015   2.708  49.938  1.00  0.00    -0.409 N 
HETATM   28  C15 UNL     1      19.685   3.765  50.826  1.00  0.00     0.143 C 
HETATM   29  C16 UNL     1      21.134   1.899  50.269  1.00  0.00     0.104 C 
HETATM   30  C17 UNL     1      21.790   1.438  48.958  1.00  0.00     0.037 C 
ENDBRANCH  22  23
ENDBRANCH  20  22
ENDBRANCH   6  20
TORSDOF 6
ENDMDL
MODEL 7
REMARK VINA RESULT:      -7.9      4.098      7.201
REMARK  6 active torsions:
REMARK  status: ('A' for Active; 'I' for Inactive)
REMARK    1  A    between atoms: C5_5  and  N1_6 
REMARK    2  A    between atoms: N3_11  and  N4_12 
REMARK    3  A    between atoms: N4_12  and  C10_14 
REMARK    4  A    between atoms: C10_14  and  C11_15 
REMARK    5  A    between atoms: C19_24  and  S1_25 
REMARK    6  A    between atoms: S1_25  and  N6_26 
ROOT
HETATM    1  N1  UNL     1      23.174   2.426  50.599  1.00  0.00    -0.234 N 
HETATM    2  C6  UNL     1      22.237   1.377  50.378  1.00  0.00     0.234 A 
HETATM    3  N2  UNL     1      21.061   1.543  49.879  1.00  0.00    -0.253 NA
HETATM    4  C7  UNL     1      20.683   2.865  49.530  1.00  0.00     0.138 A 
HETATM    5  C8  UNL     1      21.439   3.947  49.673  1.00  0.00     0.150 A 
HETATM    6  N3  UNL     1      22.742   3.706  50.232  1.00  0.00    -0.219 N 
ENDROOT
BRANCH   1   7
HETATM    7  C5  UNL     1      24.454   2.144  51.146  1.00  0.00     0.060 A 
HETATM    8  C4  UNL     1      25.643   2.756  50.801  1.00  0.00     0.032 A 
HETATM    9  C3  UNL     1      26.823   2.345  51.405  1.00  0.00     0.011 A 
HETATM   10  C2  UNL     1      26.817   1.334  52.343  1.00  0.00    -0.039 A 
HETATM   11  C1  UNL     1      28.148   0.964  52.943  1.00  0.00     0.050 C 
HETATM   12  C19 UNL     1      25.628   0.713  52.697  1.00  0.00     0.087 A 
HETATM   13  C18 UNL     1      24.447   1.118  52.097  1.00  0.00     0.057 A 
BRANCH  12  14
HETATM   14  S1  UNL     1      25.706  -0.579  53.898  1.00  0.00     0.257 S 
HETATM   15  O1  UNL     1      24.258  -0.924  54.205  1.00  0.00    -0.201 OA
HETATM   16  O2  UNL     1      26.475  -1.756  53.391  1.00  0.00    -0.201 OA
BRANCH  14  17
HETATM   17  N6  UNL     1      26.427  -0.052  55.349  1.00  0.00    -0.324 N 
HETATM   18  H27 UNL     1      26.406   0.951  55.528  1.00  0.00     0.169 HD
HETATM   19  H28 UNL     1      26.399  -0.696  56.137  1.00  0.00     0.169 HD
ENDBRANCH  14  17
ENDBRANCH  12  14
ENDBRANCH   1   7
BRANCH   6  20
HETATM   20  N4  UNL     1      23.614   4.824  50.372  1.00  0.00    -0.210 NA
HETATM   21  C9  UNL     1      23.153   5.586  51.489  1.00  0.00     0.139 C 
BRANCH  20  22
HETATM   22  C10 UNL     1      23.634   5.565  49.120  1.00  0.00     0.151 C 
BRANCH  22  23
HETATM   23  C11 UNL     1      24.894   6.284  48.860  1.00  0.00    -0.047 C 
HETATM   24  C12 UNL     1      26.021   5.552  48.788  1.00  0.00    -0.019 C 
HETATM   25  C13 UNL     1      27.370   6.094  48.538  1.00  0.00     0.047 C 
HETATM   26  C14 UNL     1      27.370   7.581  48.312  1.00  0.00     0.121 C 
HETATM   27  N5  UNL     1      26.112   8.102  47.892  1.00  0.00    -0.409 N 
HETATM   28  C15 UNL     1      25.927   8.211  46.489  1.00  0.00     0.143 C 
HETATM   29  C16 UNL     1      24.980   7.758  48.679  1.00  0.00     0.104 C 
HETATM   30  C17 UNL     1      25.125   8.445  50.045  1.00  0.00     0.037 C 
ENDBRANCH  22  23
ENDBRANCH  20  22
ENDBRANCH   6  20
TORSDOF 6
ENDMDL
MODEL 8
REMARK VINA RESULT:      -7.9      4.962      7.156
REMARK  6 active torsions:
REMARK  status: ('A' for Active; 'I' for Inactive)
REMARK    1  A    between atoms: C5_5  and  N1_6 
REMARK    2  A    between atoms: N3_11  and  N4_12 
REMARK    3  A    between atoms: N4_12  and  C10_14 
REMARK    4  A    between atoms: C10_14  and  C11_15 
REMARK    5  A    between atoms: C19_24  and  S1_25 
REMARK    6  A    between atoms: S1_25  and  N6_26 
ROOT
HETATM    1  N1  UNL     1      21.595   2.996  51.547  1.00  0.00    -0.234 N 
HETATM    2  C6  UNL     1      21.796   4.370  51.862  1.00  0.00     0.234 A 
HETATM    3  N2  UNL     1      21.202   5.348  51.271  1.00  0.00    -0.253 NA
HETATM    4  C7  UNL     1      20.287   5.024  50.236  1.00  0.00     0.138 A 
HETATM    5  C8  UNL     1      19.991   3.798  49.825  1.00  0.00     0.150 A 
HETATM    6  N3  UNL     1      20.680   2.743  50.518  1.00  0.00    -0.219 N 
ENDROOT
BRANCH   1   7
HETATM    7  C5  UNL     1      22.290   1.985  52.262  1.00  0.00     0.060 A 
HETATM    8  C4  UNL     1      21.718   0.955  52.984  1.00  0.00     0.032 A 
HETATM    9  C3  UNL     1      22.535   0.060  53.659  1.00  0.00     0.011 A 
HETATM   10  C2  UNL     1      23.907   0.189  53.615  1.00  0.00    -0.039 A 
HETATM   11  C1  UNL     1      24.705  -0.835  54.378  1.00  0.00     0.050 C 
HETATM   12  C19 UNL     1      24.492   1.219  52.893  1.00  0.00     0.087 A 
HETATM   13  C18 UNL     1      23.682   2.117  52.217  1.00  0.00     0.057 A 
BRANCH  12  14
HETATM   14  S1  UNL     1      26.254   1.323  52.895  1.00  0.00     0.257 S 
HETATM   15  O1  UNL     1      26.635   1.587  54.343  1.00  0.00    -0.201 OA
HETATM   16  O2  UNL     1      26.880   0.076  52.362  1.00  0.00    -0.201 OA
BRANCH  14  17
HETATM   17  N6  UNL     1      26.811   2.641  51.969  1.00  0.00    -0.324 N 
HETATM   18  H27 UNL     1      27.633   2.473  51.389  1.00  0.00     0.169 HD
HETATM   19  H28 UNL     1      26.111   3.310  51.654  1.00  0.00     0.169 HD
ENDBRANCH  14  17
ENDBRANCH  12  14
ENDBRANCH   1   7
BRANCH   6  20
HETATM   20  N4  UNL     1      20.372   1.402  50.148  1.00  0.00    -0.210 NA
HETATM   21  C9  UNL     1      21.320   1.006  49.155  1.00  0.00     0.139 C 
BRANCH  20  22
HETATM   22  C10 UNL     1      18.989   1.344  49.698  1.00  0.00     0.151 C 
BRANCH  22  23
HETATM   23  C11 UNL     1      18.104   0.539  50.559  1.00  0.00    -0.047 C 
HETATM   24  C12 UNL     1      18.666  -0.097  51.604  1.00  0.00    -0.019 C 
HETATM   25  C13 UNL     1      17.944  -0.946  52.569  1.00  0.00     0.047 C 
HETATM   26  C14 UNL     1      16.463  -1.000  52.307  1.00  0.00     0.121 C 
HETATM   27  N5  UNL     1      15.970   0.102  51.549  1.00  0.00    -0.409 N 
HETATM   28  C15 UNL     1      15.472   1.196  52.304  1.00  0.00     0.143 C 
HETATM   29  C16 UNL     1      16.641   0.396  50.332  1.00  0.00     0.104 C 
HETATM   30  C17 UNL     1      16.374  -0.758  49.353  1.00  0.00     0.037 C 
ENDBRANCH  22  23
ENDBRANCH  20  22
ENDBRANCH   6  20
TORSDOF 6
ENDMDL
MODEL 9
REMARK VINA RESULT:      -7.8      2.603      5.587
REMARK  6 active torsions:
REMARK  status: ('A' for Active; 'I' for Inactive)
REMARK    1  A    between atoms: C5_5  and  N1_6 
REMARK    2  A    between atoms: N3_11  and  N4_12 
REMARK    3  A    between atoms: N4_12  and  C10_14 
REMARK    4  A    between atoms: C10_14  and  C11_15 
REMARK    5  A    between atoms: C19_24  and  S1_25 
REMARK    6  A    between atoms: S1_25  and  N6_26 
ROOT
HETATM    1  N1  UNL     1      24.736   1.802  52.818  1.00  0.00    -0.234 N 
HETATM    2  C6  UNL     1      26.091   1.441  53.064  1.00  0.00     0.234 A 
HETATM    3  N2  UNL     1      26.479   0.268  53.427  1.00  0.00    -0.253 NA
HETATM    4  C7  UNL     1      25.480  -0.726  53.590  1.00  0.00     0.138 A 
HETATM    5  C8  UNL     1      24.178  -0.550  53.400  1.00  0.00     0.150 A 
HETATM    6  N3  UNL     1      23.799   0.777  52.996  1.00  0.00    -0.219 N 
ENDROOT
BRANCH   1   7
HETATM    7  C5  UNL     1      24.405   3.122  52.413  1.00  0.00     0.060 A 
HETATM    8  C4  UNL     1      23.463   3.945  52.999  1.00  0.00     0.032 A 
HETATM    9  C3  UNL     1      23.229   5.204  52.465  1.00  0.00     0.011 A 
HETATM   10  C2  UNL     1      23.925   5.637  51.356  1.00  0.00    -0.039 A 
HETATM   11  C1  UNL     1      23.601   7.019  50.855  1.00  0.00     0.050 C 
HETATM   12  C19 UNL     1      24.873   4.819  50.759  1.00  0.00     0.087 A 
HETATM   13  C18 UNL     1      25.111   3.561  51.288  1.00  0.00     0.057 A 
BRANCH  12  14
HETATM   14  S1  UNL     1      25.714   5.442  49.338  1.00  0.00     0.257 S 
HETATM   15  O1  UNL     1      26.660   4.329  48.916  1.00  0.00    -0.201 OA
HETATM   16  O2  UNL     1      24.758   5.816  48.252  1.00  0.00    -0.201 OA
BRANCH  14  17
HETATM   17  N6  UNL     1      26.662   6.808  49.712  1.00  0.00    -0.324 N 
HETATM   18  H27 UNL     1      27.398   6.673  50.404  1.00  0.00     0.169 HD
HETATM   19  H28 UNL     1      26.801   7.489  48.968  1.00  0.00     0.169 HD
ENDBRANCH  14  17
ENDBRANCH  12  14
ENDBRANCH   1   7
BRANCH   6  20
HETATM   20  N4  UNL     1      22.418   1.016  52.738  1.00  0.00    -0.210 NA
HETATM   21  C9  UNL     1      21.678   0.430  53.810  1.00  0.00     0.139 C 
BRANCH  20  22
HETATM   22  C10 UNL     1      22.083   0.478  51.428  1.00  0.00     0.151 C 
BRANCH  22  23
HETATM   23  C11 UNL     1      21.219   1.353  50.615  1.00  0.00    -0.047 C 
HETATM   24  C12 UNL     1      19.992   0.895  50.306  1.00  0.00    -0.019 C 
HETATM   25  C13 UNL     1      18.992   1.625  49.503  1.00  0.00     0.047 C 
HETATM   26  C14 UNL     1      19.461   2.993  49.088  1.00  0.00     0.121 C 
HETATM   27  N5  UNL     1      20.498   3.522  49.910  1.00  0.00    -0.409 N 
HETATM   28  C15 UNL     1      20.073   4.344  50.987  1.00  0.00     0.143 C 
HETATM   29  C16 UNL     1      21.632   2.695  50.125  1.00  0.00     0.104 C 
HETATM   30  C17 UNL     1      22.378   2.557  48.789  1.00  0.00     0.037 C 
ENDBRANCH  22  23
ENDBRANCH  20  22
ENDBRANCH   6  20
TORSDOF 6
ENDMDL
