MODEL 1
REMARK VINA RESULT:      -6.4      0.000      0.000
REMARK  8 active torsions:
REMARK  status: ('A' for Active; 'I' for Inactive)
REMARK    1  A    between atoms: O1_2  and  C2_3 
REMARK    2  A    between atoms: C2_3  and  C3_4 
REMARK    3  A    between atoms: C3_4  and  O2_5 
REMARK    4  A    between atoms: O2_5  and  C4_6 
REMARK    5  A    between atoms: C9_11  and  O3_12 
REMARK    6  A    between atoms: O3_12  and  C10_13 
REMARK    7  A    between atoms: C10_13  and  C11_14 
REMARK    8  A    between atoms: C11_14  and  O4_15 
ROOT
HETATM    1  C4  UNL     1      24.562   1.401  53.238  1.00  0.00     0.104 A 
HETATM    2  C5  UNL     1      25.578   2.313  53.263  1.00  0.00     0.069 A 
HETATM    3  C6  UNL     1      26.791   1.787  53.722  1.00  0.00     0.045 A 
HETATM    4  C7  UNL     1      27.020   0.415  54.146  1.00  0.00     0.028 A 
HETATM    5  C8  UNL     1      25.833  -0.362  54.039  1.00  0.00     0.053 A 
HETATM    6  C9  UNL     1      24.593   0.046  53.605  1.00  0.00     0.102 A 
HETATM    7  C13 UNL     1      28.424   0.014  54.646  1.00  0.00     0.227 A 
HETATM    8  N1  UNL     1      28.878   0.936  54.534  1.00  0.00    -0.228 N 
HETATM    9  C14 UNL     1      29.360   1.916  54.414  1.00  0.00     0.290 A 
HETATM   10  N2  UNL     1      28.913   1.010  54.524  1.00  0.00    -0.228 N 
HETATM   11  N3  UNL     1      28.069   2.526  53.889  1.00  0.00    -0.338 N 
HETATM   12  H17 UNL     1      27.852   3.566  53.557  1.00  0.00     0.164 HD
ENDROOT
BRANCH   1  13
HETATM   13  O2  UNL     1      23.361   1.906  52.779  1.00  0.00    -0.346 OA
BRANCH  13  14
HETATM   14  C3  UNL     1      23.363   2.901  51.747  1.00  0.00     0.201 C 
BRANCH  14  15
HETATM   15  C2  UNL     1      23.034   2.235  50.427  1.00  0.00     0.193 C 
BRANCH  15  16
HETATM   16  O1  UNL     1      22.253   1.119  50.573  1.00  0.00    -0.394 OA
HETATM   17  C1  UNL     1      21.431   0.872  49.511  1.00  0.00     0.201 C 
ENDBRANCH  15  16
ENDBRANCH  14  15
ENDBRANCH  13  14
ENDBRANCH   1  13
BRANCH   6  18
HETATM   18  O3  UNL     1      23.526  -0.560  53.485  1.00  0.00    -0.346 OA
BRANCH  18  19
HETATM   19  C10 UNL     1      22.417  -1.210  53.328  1.00  0.00     0.201 C 
BRANCH  19  20
HETATM   20  C11 UNL     1      21.495  -1.060  54.546  1.00  0.00     0.193 C 
BRANCH  20  21
HETATM   21  O4  UNL     1      20.842   0.124  54.521  1.00  0.00    -0.394 OA
HETATM   22  C12 UNL     1      20.191   0.549  53.416  1.00  0.00     0.201 C 
ENDBRANCH  20  21
ENDBRANCH  19  20
ENDBRANCH  18  19
ENDBRANCH   6  18
TORSDOF 8
ENDMDL
MODEL 2
REMARK VINA RESULT:      -6.3      0.965      1.604
REMARK  8 active torsions:
REMARK  status: ('A' for Active; 'I' for Inactive)
REMARK    1  A    between atoms: O1_2  and  C2_3 
REMARK    2  A    between atoms: C2_3  and  C3_4 
REMARK    3  A    between atoms: C3_4  and  O2_5 
REMARK    4  A    between atoms: O2_5  and  C4_6 
REMARK    5  A    between atoms: C9_11  and  O3_12 
REMARK    6  A    between atoms: O3_12  and  C10_13 
REMARK    7  A    between atoms: C10_13  and  C11_14 
REMARK    8  A    between atoms: C11_14  and  O4_15 
ROOT
HETATM    1  C4  UNL     1      24.524   1.364  53.350  1.00  0.00     0.104 A 
HETATM    2  C5  UNL     1      25.521   2.297  53.367  1.00  0.00     0.069 A 
HETATM    3  C6  UNL     1      26.760   1.784  53.769  1.00  0.00     0.045 A 
HETATM    4  C7  UNL     1      27.031   0.407  54.146  1.00  0.00     0.028 A 
HETATM    5  C8  UNL     1      25.857  -0.393  54.058  1.00  0.00     0.053 A 
HETATM    6  C9  UNL     1      24.595   0.001  53.678  1.00  0.00     0.102 A 
HETATM    7  C13 UNL     1      28.460   0.022  54.587  1.00  0.00     0.227 A 
HETATM    8  N1  UNL     1      28.891   0.956  54.485  1.00  0.00    -0.228 N 
HETATM    9  C14 UNL     1      29.348   1.950  54.377  1.00  0.00     0.290 A 
HETATM   10  N2  UNL     1      28.924   1.031  54.477  1.00  0.00    -0.228 N 
HETATM   11  N3  UNL     1      28.028   2.546  53.914  1.00  0.00    -0.338 N 
HETATM   12  H17 UNL     1      27.778   3.590  53.619  1.00  0.00     0.164 HD
ENDROOT
BRANCH   1  13
HETATM   13  O2  UNL     1      23.297   1.856  52.947  1.00  0.00    -0.346 OA
BRANCH  13  14
HETATM   14  C3  UNL     1      23.177   2.483  51.664  1.00  0.00     0.201 C 
BRANCH  14  15
HETATM   15  C2  UNL     1      22.328   3.730  51.806  1.00  0.00     0.193 C 
BRANCH  15  16
HETATM   16  O1  UNL     1      22.975   4.742  52.466  1.00  0.00    -0.394 OA
HETATM   17  C1  UNL     1      23.664   5.589  51.644  1.00  0.00     0.201 C 
ENDBRANCH  15  16
ENDBRANCH  14  15
ENDBRANCH  13  14
ENDBRANCH   1  13
BRANCH   6  18
HETATM   18  O3  UNL     1      23.538  -0.625  53.576  1.00  0.00    -0.346 OA
BRANCH  18  19
HETATM   19  C10 UNL     1      22.431  -1.282  53.435  1.00  0.00     0.201 C 
BRANCH  19  20
HETATM   20  C11 UNL     1      21.463  -1.020  54.598  1.00  0.00     0.193 C 
BRANCH  20  21
HETATM   21  O4  UNL     1      20.779   0.131  54.413  1.00  0.00    -0.394 OA
HETATM   22  C12 UNL     1      20.124   0.388  53.259  1.00  0.00     0.201 C 
ENDBRANCH  20  21
ENDBRANCH  19  20
ENDBRANCH  18  19
ENDBRANCH   6  18
TORSDOF 8
ENDMDL
MODEL 3
REMARK VINA RESULT:      -6.2      1.664      3.918
REMARK  8 active torsions:
REMARK  status: ('A' for Active; 'I' for Inactive)
REMARK    1  A    between atoms: O1_2  and  C2_3 
REMARK    2  A    between atoms: C2_3  and  C3_4 
REMARK    3  A    between atoms: C3_4  and  O2_5 
REMARK    4  A    between atoms: O2_5  and  C4_6 
REMARK    5  A    between atoms: C9_11  and  O3_12 
REMARK    6  A    between atoms: O3_12  and  C10_13 
REMARK    7  A    between atoms: C10_13  and  C11_14 
REMARK    8  A    between atoms: C11_14  and  O4_15 
ROOT
HETATM    1  C4  UNL     1      25.109   0.632  52.899  1.00  0.00     0.104 A 
HETATM    2  C5  UNL     1      25.807  -0.542  52.936  1.00  0.00     0.069 A 
HETATM    3  C6  UNL     1      27.164  -0.376  53.241  1.00  0.00     0.045 A 
HETATM    4  C7  UNL     1      27.831   0.888  53.504  1.00  0.00     0.028 A 
HETATM    5  C8  UNL     1      26.922   1.979  53.414  1.00  0.00     0.053 A 
HETATM    6  C9  UNL     1      25.578   1.936  53.124  1.00  0.00     0.102 A 
HETATM    7  C13 UNL     1      29.346   0.884  53.803  1.00  0.00     0.227 A 
HETATM    8  N1  UNL     1      29.498  -0.136  53.726  1.00  0.00    -0.228 N 
HETATM    9  C14 UNL     1      29.658  -1.220  53.644  1.00  0.00     0.290 A 
HETATM   10  N2  UNL     1      29.509  -0.217  53.719  1.00  0.00    -0.228 N 
HETATM   11  N3  UNL     1      28.188  -1.450  53.331  1.00  0.00    -0.338 N 
HETATM   12  H17 UNL     1      27.639  -2.396  53.122  1.00  0.00     0.164 HD
ENDROOT
BRANCH   1  13
HETATM   13  O2  UNL     1      23.768   0.481  52.607  1.00  0.00    -0.346 OA
BRANCH  13  14
HETATM   14  C3  UNL     1      23.068  -0.674  53.086  1.00  0.00     0.201 C 
BRANCH  14  15
HETATM   15  C2  UNL     1      22.064  -0.238  54.133  1.00  0.00     0.193 C 
BRANCH  15  16
HETATM   16  O1  UNL     1      22.064  -1.047  55.240  1.00  0.00    -0.394 OA
HETATM   17  C1  UNL     1      23.311  -1.425  55.650  1.00  0.00     0.201 C 
ENDBRANCH  15  16
ENDBRANCH  14  15
ENDBRANCH  13  14
ENDBRANCH   1  13
BRANCH   6  18
HETATM   18  O3  UNL     1      24.731   2.827  53.029  1.00  0.00    -0.346 OA
BRANCH  18  19
HETATM   19  C10 UNL     1      23.865   3.786  52.940  1.00  0.00     0.201 C 
BRANCH  19  20
HETATM   20  C11 UNL     1      23.708   4.274  51.492  1.00  0.00     0.193 C 
BRANCH  20  21
HETATM   21  O4  UNL     1      23.390   3.254  50.665  1.00  0.00    -0.394 OA
HETATM   22  C12 UNL     1      23.728   3.272  49.357  1.00  0.00     0.201 C 
ENDBRANCH  20  21
ENDBRANCH  19  20
ENDBRANCH  18  19
ENDBRANCH   6  18
TORSDOF 8
ENDMDL
MODEL 4
REMARK VINA RESULT:      -5.9      3.782      5.841
REMARK  8 active torsions:
REMARK  status: ('A' for Active; 'I' for Inactive)
REMARK    1  A    between atoms: O1_2  and  C2_3 
REMARK    2  A    between atoms: C2_3  and  C3_4 
REMARK    3  A    between atoms: C3_4  and  O2_5 
REMARK    4  A    between atoms: O2_5  and  C4_6 
REMARK    5  A    between atoms: C9_11  and  O3_12 
REMARK    6  A    between atoms: O3_12  and  C10_13 
REMARK    7  A    between atoms: C10_13  and  C11_14 
REMARK    8  A    between atoms: C11_14  and  O4_15 
ROOT
HETATM    1  C4  UNL     1      24.353   1.547  52.721  1.00  0.00     0.104 A 
HETATM    2  C5  UNL     1      23.016   1.821  52.670  1.00  0.00     0.069 A 
HETATM    3  C6  UNL     1      22.213   0.781  53.154  1.00  0.00     0.045 A 
HETATM    4  C7  UNL     1      22.687  -0.492  53.674  1.00  0.00     0.028 A 
HETATM    5  C8  UNL     1      24.108  -0.567  53.636  1.00  0.00     0.053 A 
HETATM    6  C9  UNL     1      24.992   0.386  53.186  1.00  0.00     0.102 A 
HETATM    7  C13 UNL     1      21.653  -1.536  54.146  1.00  0.00     0.227 A 
HETATM    8  N1  UNL     1      20.801  -0.987  53.941  1.00  0.00    -0.228 N 
HETATM    9  C14 UNL     1      19.896  -0.403  53.723  1.00  0.00     0.290 A 
HETATM   10  N2  UNL     1      20.734  -0.942  53.924  1.00  0.00    -0.228 N 
HETATM   11  N3  UNL     1      20.729   0.761  53.208  1.00  0.00    -0.338 N 
HETATM   12  H17 UNL     1      20.408   1.747  52.802  1.00  0.00     0.164 HD
ENDROOT
BRANCH   1  13
HETATM   13  O2  UNL     1      25.157   2.569  52.254  1.00  0.00    -0.346 OA
BRANCH  13  14
HETATM   14  C3  UNL     1      25.149   2.888  50.856  1.00  0.00     0.201 C 
BRANCH  14  15
HETATM   15  C2  UNL     1      26.550   2.710  50.307  1.00  0.00     0.193 C 
BRANCH  15  16
HETATM   16  O1  UNL     1      27.057   3.859  49.760  1.00  0.00    -0.394 OA
HETATM   17  C1  UNL     1      26.106   4.774  49.408  1.00  0.00     0.201 C 
ENDBRANCH  15  16
ENDBRANCH  14  15
ENDBRANCH  13  14
ENDBRANCH   1  13
BRANCH   6  18
HETATM   18  O3  UNL     1      26.223   0.396  53.121  1.00  0.00    -0.346 OA
BRANCH  18  19
HETATM   19  C10 UNL     1      27.517   0.413  53.088  1.00  0.00     0.201 C 
BRANCH  19  20
HETATM   20  C11 UNL     1      28.125   0.009  54.439  1.00  0.00     0.193 C 
BRANCH  20  21
HETATM   21  O4  UNL     1      28.645   1.080  55.080  1.00  0.00    -0.394 OA
HETATM   22  C12 UNL     1      29.429   1.975  54.440  1.00  0.00     0.201 C 
ENDBRANCH  20  21
ENDBRANCH  19  20
ENDBRANCH  18  19
ENDBRANCH   6  18
TORSDOF 8
ENDMDL
MODEL 5
REMARK VINA RESULT:      -5.8      2.835      4.996
REMARK  8 active torsions:
REMARK  status: ('A' for Active; 'I' for Inactive)
REMARK    1  A    between atoms: O1_2  and  C2_3 
REMARK    2  A    between atoms: C2_3  and  C3_4 
REMARK    3  A    between atoms: C3_4  and  O2_5 
REMARK    4  A    between atoms: O2_5  and  C4_6 
REMARK    5  A    between atoms: C9_11  and  O3_12 
REMARK    6  A    between atoms: O3_12  and  C10_13 
REMARK    7  A    between atoms: C10_13  and  C11_14 
REMARK    8  A    between atoms: C11_14  and  O4_15 
ROOT
HETATM    1  C4  UNL     1      25.751   1.130  52.338  1.00  0.00     0.104 A 
HETATM    2  C5  UNL     1      26.688   1.967  51.802  1.00  0.00     0.069 A 
HETATM    3  C6  UNL     1      26.153   2.922  50.929  1.00  0.00     0.045 A 
HETATM    4  C7  UNL     1      24.749   3.066  50.581  1.00  0.00     0.028 A 
HETATM    5  C8  UNL     1      23.950   2.097  51.249  1.00  0.00     0.053 A 
HETATM    6  C9  UNL     1      24.364   1.118  52.122  1.00  0.00     0.102 A 
HETATM    7  C13 UNL     1      24.339   4.167  49.579  1.00  0.00     0.227 A 
HETATM    8  N1  UNL     1      25.283   4.550  49.402  1.00  0.00    -0.228 N 
HETATM    9  C14 UNL     1      26.287   4.956  49.215  1.00  0.00     0.290 A 
HETATM   10  N2  UNL     1      25.359   4.579  49.389  1.00  0.00    -0.228 N 
HETATM   11  N3  UNL     1      26.910   3.952  50.172  1.00  0.00    -0.338 N 
HETATM   12  H17 UNL     1      27.975   3.806  50.464  1.00  0.00     0.164 HD
ENDROOT
BRANCH   1  13
HETATM   13  O2  UNL     1      26.266   0.188  53.207  1.00  0.00    -0.346 OA
BRANCH  13  14
HETATM   14  C3  UNL     1      26.724   0.601  54.501  1.00  0.00     0.201 C 
BRANCH  14  15
HETATM   15  C2  UNL     1      28.170   0.178  54.665  1.00  0.00     0.193 C 
BRANCH  15  16
HETATM   16  O1  UNL     1      28.675  -0.437  53.549  1.00  0.00    -0.394 OA
HETATM   17  C1  UNL     1      29.883  -1.043  53.747  1.00  0.00     0.201 C 
ENDBRANCH  15  16
ENDBRANCH  14  15
ENDBRANCH  13  14
ENDBRANCH   1  13
BRANCH   6  18
HETATM   18  O3  UNL     1      23.740   0.250  52.735  1.00  0.00    -0.346 OA
BRANCH  18  19
HETATM   19  C10 UNL     1      23.064  -0.666  53.353  1.00  0.00     0.201 C 
BRANCH  19  20
HETATM   20  C11 UNL     1      21.556  -0.527  53.097  1.00  0.00     0.193 C 
BRANCH  20  21
HETATM   21  O4  UNL     1      21.061   0.584  53.687  1.00  0.00    -0.394 OA
HETATM   22  C12 UNL     1      20.501   1.579  52.964  1.00  0.00     0.201 C 
ENDBRANCH  20  21
ENDBRANCH  19  20
ENDBRANCH  18  19
ENDBRANCH   6  18
TORSDOF 8
ENDMDL
MODEL 6
REMARK VINA RESULT:      -5.7      3.820      6.585
REMARK  8 active torsions:
REMARK  status: ('A' for Active; 'I' for Inactive)
REMARK    1  A    between atoms: O1_2  and  C2_3 
REMARK    2  A    between atoms: C2_3  and  C3_4 
REMARK    3  A    between atoms: C3_4  and  O2_5 
REMARK    4  A    between atoms: O2_5  and  C4_6 
REMARK    5  A    between atoms: C9_11  and  O3_12 
REMARK    6  A    between atoms: O3_12  and  C10_13 
REMARK    7  A    between atoms: C10_13  and  C11_14 
REMARK    8  A    between atoms: C11_14  and  O4_15 
ROOT
HETATM    1  C4  UNL     1      24.635   0.644  52.832  1.00  0.00     0.104 A 
HETATM    2  C5  UNL     1      24.131  -0.436  53.499  1.00  0.00     0.069 A 
HETATM    3  C6  UNL     1      22.732  -0.497  53.488  1.00  0.00     0.045 A 
HETATM    4  C7  UNL     1      21.841   0.459  52.851  1.00  0.00     0.028 A 
HETATM    5  C8  UNL     1      22.573   1.501  52.216  1.00  0.00     0.053 A 
HETATM    6  C9  UNL     1      23.938   1.662  52.162  1.00  0.00     0.102 A 
HETATM    7  C13 UNL     1      20.317   0.244  52.960  1.00  0.00     0.227 A 
HETATM    8  N1  UNL     1      20.340  -0.622  53.524  1.00  0.00    -0.228 N 
HETATM    9  C14 UNL     1      20.366  -1.543  54.123  1.00  0.00     0.290 A 
HETATM   10  N2  UNL     1      20.343  -0.691  53.569  1.00  0.00    -0.228 N 
HETATM   11  N3  UNL     1      21.887  -1.529  54.142  1.00  0.00    -0.338 N 
HETATM   12  H17 UNL     1      22.603  -2.237  54.618  1.00  0.00     0.164 HD
ENDROOT
BRANCH   1  13
HETATM   13  O2  UNL     1      26.015   0.711  52.828  1.00  0.00    -0.346 OA
BRANCH  13  14
HETATM   14  C3  UNL     1      26.767  -0.286  52.126  1.00  0.00     0.201 C 
BRANCH  14  15
HETATM   15  C2  UNL     1      27.751  -0.922  53.087  1.00  0.00     0.193 C 
BRANCH  15  16
HETATM   16  O1  UNL     1      27.604  -0.474  54.373  1.00  0.00    -0.394 OA
HETATM   17  C1  UNL     1      28.699   0.181  54.862  1.00  0.00     0.201 C 
ENDBRANCH  15  16
ENDBRANCH  14  15
ENDBRANCH  13  14
ENDBRANCH   1  13
BRANCH   6  18
HETATM   18  O3  UNL     1      24.641   2.528  51.637  1.00  0.00    -0.346 OA
BRANCH  18  19
HETATM   19  C10 UNL     1      25.407   3.424  51.101  1.00  0.00     0.201 C 
BRANCH  19  20
HETATM   20  C11 UNL     1      26.416   2.798  50.127  1.00  0.00     0.193 C 
BRANCH  20  21
HETATM   21  O4  UNL     1      26.821   3.695  49.200  1.00  0.00    -0.394 OA
HETATM   22  C12 UNL     1      26.345   4.960  49.185  1.00  0.00     0.201 C 
ENDBRANCH  20  21
ENDBRANCH  19  20
ENDBRANCH  18  19
ENDBRANCH   6  18
TORSDOF 8
ENDMDL
MODEL 7
REMARK VINA RESULT:      -5.6      2.365      3.322
REMARK  8 active torsions:
REMARK  status: ('A' for Active; 'I' for Inactive)
REMARK    1  A    between atoms: O1_2  and  C2_3 
REMARK    2  A    between atoms: C2_3  and  C3_4 
REMARK    3  A    between atoms: C3_4  and  O2_5 
REMARK    4  A    between atoms: O2_5  and  C4_6 
REMARK    5  A    between atoms: C9_11  and  O3_12 
REMARK    6  A    between atoms: O3_12  and  C10_13 
REMARK    7  A    between atoms: C10_13  and  C11_14 
REMARK    8  A    between atoms: C11_14  and  O4_15 
ROOT
HETATM    1  C4  UNL     1      25.539   2.417  51.362  1.00  0.00     0.104 A 
HETATM    2  C5  UNL     1      26.856   2.128  51.579  1.00  0.00     0.069 A 
HETATM    3  C6  UNL     1      27.084   1.411  52.760  1.00  0.00     0.045 A 
HETATM    4  C7  UNL     1      26.068   0.983  53.708  1.00  0.00     0.028 A 
HETATM    5  C8  UNL     1      24.770   1.386  53.289  1.00  0.00     0.053 A 
HETATM    6  C9  UNL     1      24.428   2.089  52.156  1.00  0.00     0.102 A 
HETATM    7  C13 UNL     1      26.506   0.217  54.974  1.00  0.00     0.227 A 
HETATM    8  N1  UNL     1      27.523   0.215  54.789  1.00  0.00    -0.228 N 
HETATM    9  C14 UNL     1      28.604   0.213  54.590  1.00  0.00     0.290 A 
HETATM   10  N2  UNL     1      27.604   0.215  54.773  1.00  0.00    -0.228 N 
HETATM   11  N3  UNL     1      28.402   0.972  53.287  1.00  0.00    -0.338 N 
HETATM   12  H17 UNL     1      29.148   1.319  52.538  1.00  0.00     0.164 HD
ENDROOT
BRANCH   1  13
HETATM   13  O2  UNL     1      25.299   3.117  50.195  1.00  0.00    -0.346 OA
BRANCH  13  14
HETATM   14  C3  UNL     1      26.258   4.083  49.744  1.00  0.00     0.201 C 
BRANCH  14  15
HETATM   15  C2  UNL     1      25.648   5.465  49.856  1.00  0.00     0.193 C 
BRANCH  15  16
HETATM   16  O1  UNL     1      24.497   5.481  50.600  1.00  0.00    -0.394 OA
HETATM   17  C1  UNL     1      24.197   6.701  51.134  1.00  0.00     0.201 C 
ENDBRANCH  15  16
ENDBRANCH  14  15
ENDBRANCH  13  14
ENDBRANCH   1  13
BRANCH   6  18
HETATM   18  O3  UNL     1      23.338   2.472  51.727  1.00  0.00    -0.346 OA
BRANCH  18  19
HETATM   19  C10 UNL     1      22.208   2.879  51.245  1.00  0.00     0.201 C 
BRANCH  19  20
HETATM   20  C11 UNL     1      21.519   3.881  52.183  1.00  0.00     0.193 C 
BRANCH  20  21
HETATM   21  O4  UNL     1      20.338   3.398  52.630  1.00  0.00    -0.394 OA
HETATM   22  C12 UNL     1      19.983   2.108  52.438  1.00  0.00     0.201 C 
ENDBRANCH  20  21
ENDBRANCH  19  20
ENDBRANCH  18  19
ENDBRANCH   6  18
TORSDOF 8
ENDMDL
MODEL 8
REMARK VINA RESULT:      -5.6      2.264      4.197
REMARK  8 active torsions:
REMARK  status: ('A' for Active; 'I' for Inactive)
REMARK    1  A    between atoms: O1_2  and  C2_3 
REMARK    2  A    between atoms: C2_3  and  C3_4 
REMARK    3  A    between atoms: C3_4  and  O2_5 
REMARK    4  A    between atoms: O2_5  and  C4_6 
REMARK    5  A    between atoms: C9_11  and  O3_12 
REMARK    6  A    between atoms: O3_12  and  C10_13 
REMARK    7  A    between atoms: C10_13  and  C11_14 
REMARK    8  A    between atoms: C11_14  and  O4_15 
ROOT
HETATM    1  C4  UNL     1      22.687   0.303  53.609  1.00  0.00     0.104 A 
HETATM    2  C5  UNL     1      23.638  -0.576  54.044  1.00  0.00     0.069 A 
HETATM    3  C6  UNL     1      24.886  -0.396  53.437  1.00  0.00     0.045 A 
HETATM    4  C7  UNL     1      25.211   0.606  52.435  1.00  0.00     0.028 A 
HETATM    5  C8  UNL     1      24.080   1.413  52.128  1.00  0.00     0.053 A 
HETATM    6  C9  UNL     1      22.813   1.328  52.658  1.00  0.00     0.102 A 
HETATM    7  C13 UNL     1      26.641   0.645  51.855  1.00  0.00     0.227 A 
HETATM    8  N1  UNL     1      27.030  -0.145  52.397  1.00  0.00    -0.228 N 
HETATM    9  C14 UNL     1      27.442  -0.985  52.974  1.00  0.00     0.290 A 
HETATM   10  N2  UNL     1      27.060  -0.208  52.441  1.00  0.00    -0.228 N 
HETATM   11  N3  UNL     1      26.111  -1.203  53.675  1.00  0.00    -0.338 N 
HETATM   12  H17 UNL     1      25.820  -1.956  54.442  1.00  0.00     0.164 HD
ENDROOT
BRANCH   1  13
HETATM   13  O2  UNL     1      21.452   0.141  54.207  1.00  0.00    -0.346 OA
BRANCH  13  14
HETATM   14  C3  UNL     1      20.718  -1.071  53.989  1.00  0.00     0.201 C 
BRANCH  14  15
HETATM   15  C2  UNL     1      19.371  -0.724  53.387  1.00  0.00     0.193 C 
BRANCH  15  16
HETATM   16  O1  UNL     1      18.449  -1.727  53.535  1.00  0.00    -0.394 OA
HETATM   17  C1  UNL     1      17.249  -1.470  52.935  1.00  0.00     0.201 C 
ENDBRANCH  15  16
ENDBRANCH  14  15
ENDBRANCH  13  14
ENDBRANCH   1  13
BRANCH   6  18
HETATM   18  O3  UNL     1      21.791   1.984  52.447  1.00  0.00    -0.346 OA
BRANCH  18  19
HETATM   19  C10 UNL     1      20.715   2.680  52.260  1.00  0.00     0.201 C 
BRANCH  19  20
HETATM   20  C11 UNL     1      21.034   4.161  52.010  1.00  0.00     0.193 C 
BRANCH  20  21
HETATM   21  O4  UNL     1      22.135   4.300  51.237  1.00  0.00    -0.394 OA
HETATM   22  C12 UNL     1      23.127   5.156  51.566  1.00  0.00     0.201 C 
ENDBRANCH  20  21
ENDBRANCH  19  20
ENDBRANCH  18  19
ENDBRANCH   6  18
TORSDOF 8
ENDMDL
MODEL 9
REMARK VINA RESULT:      -5.4      4.040      6.423
REMARK  8 active torsions:
REMARK  status: ('A' for Active; 'I' for Inactive)
REMARK    1  A    between atoms: O1_2  and  C2_3 
REMARK    2  A    between atoms: C2_3  and  C3_4 
REMARK    3  A    between atoms: C3_4  and  O2_5 
REMARK    4  A    between atoms: O2_5  and  C4_6 
REMARK    5  A    between atoms: C9_11  and  O3_12 
REMARK    6  A    between atoms: O3_12  and  C10_13 
REMARK    7  A    between atoms: C10_13  and  C11_14 
REMARK    8  A    between atoms: C11_14  and  O4_15 
ROOT
HETATM    1  C4  UNL     1      23.102   0.407  52.429  1.00  0.00     0.104 A 
HETATM    2  C5  UNL     1      22.099   0.767  51.575  1.00  0.00     0.069 A 
HETATM    3  C6  UNL     1      20.837   0.304  51.967  1.00  0.00     0.045 A 
HETATM    4  C7  UNL     1      20.549  -0.486  53.153  1.00  0.00     0.028 A 
HETATM    5  C8  UNL     1      21.733  -0.747  53.899  1.00  0.00     0.053 A 
HETATM    6  C9  UNL     1      23.017  -0.346  53.611  1.00  0.00     0.102 A 
HETATM    7  C13 UNL     1      19.095  -0.930  53.418  1.00  0.00     0.227 A 
HETATM    8  N1  UNL     1      18.665  -0.497  52.583  1.00  0.00    -0.228 N 
HETATM    9  C14 UNL     1      18.209  -0.035  51.696  1.00  0.00     0.290 A 
HETATM   10  N2  UNL     1      18.632  -0.461  52.516  1.00  0.00    -0.228 N 
HETATM   11  N3  UNL     1      19.556   0.506  51.242  1.00  0.00    -0.338 N 
HETATM   12  H17 UNL     1      19.820   1.110  50.345  1.00  0.00     0.164 HD
ENDROOT
BRANCH   1  13
HETATM   13  O2  UNL     1      24.352   0.864  52.057  1.00  0.00    -0.346 OA
BRANCH  13  14
HETATM   14  C3  UNL     1      24.505   2.223  51.627  1.00  0.00     0.201 C 
BRANCH  14  15
HETATM   15  C2  UNL     1      24.392   3.133  52.834  1.00  0.00     0.193 C 
BRANCH  15  16
HETATM   16  O1  UNL     1      23.303   3.961  52.776  1.00  0.00    -0.394 OA
HETATM   17  C1  UNL     1      23.520   5.117  52.080  1.00  0.00     0.201 C 
ENDBRANCH  15  16
ENDBRANCH  14  15
ENDBRANCH  13  14
ENDBRANCH   1  13
BRANCH   6  18
HETATM   18  O3  UNL     1      24.084  -0.529  54.201  1.00  0.00    -0.346 OA
BRANCH  18  19
HETATM   19  C10 UNL     1      25.190  -0.709  54.849  1.00  0.00     0.201 C 
BRANCH  19  20
HETATM   20  C11 UNL     1      26.378  -0.039  54.143  1.00  0.00     0.193 C 
BRANCH  20  21
HETATM   21  O4  UNL     1      27.550  -0.583  54.538  1.00  0.00    -0.394 OA
HETATM   22  C12 UNL     1      28.617   0.186  54.851  1.00  0.00     0.201 C 
ENDBRANCH  20  21
ENDBRANCH  19  20
ENDBRANCH  18  19
ENDBRANCH   6  18
TORSDOF 8
ENDMDL
