MODEL 1
REMARK VINA RESULT:      -9.1      0.000      0.000
REMARK  3 active torsions:
REMARK  status: ('A' for Active; 'I' for Inactive)
REMARK    1  A    between atoms: C5_8  and  N2_9 
REMARK    2  A    between atoms: C5_8  and  C6_10 
REMARK    3  A    between atoms: C13_18  and  C14_19 
ROOT
HETATM    1  C1  UNL     1      23.173   5.037  53.013  1.00  0.00     0.187 C 
HETATM    2  N1  UNL     1      23.386   4.305  51.759  1.00  0.00    -0.259 N 
HETATM    3  C2  UNL     1      22.189   3.702  51.128  1.00  0.00     0.231 C 
HETATM    4  S1  UNL     1      21.570   2.302  52.003  1.00  0.00    -0.121 SA
HETATM    5  C3  UNL     1      22.450   0.762  51.947  1.00  0.00     0.243 C 
HETATM    6  O1  UNL     1      23.776   0.822  52.413  1.00  0.00    -0.378 OA
HETATM    7  C4  UNL     1      24.549   1.471  51.428  1.00  0.00     0.215 C 
HETATM    8  C5  UNL     1      25.863   1.938  51.949  1.00  0.00     0.209 C 
HETATM    9  C12 UNL     1      26.486   2.834  50.874  1.00  0.00     0.124 C 
HETATM   10  C13 UNL     1      25.573   4.022  50.639  1.00  0.00     0.121 C 
HETATM   11  N3  UNL     1      24.533   4.120  51.195  1.00  0.00    -0.332 NA
ENDROOT
BRANCH   8  12
HETATM   12  N2  UNL     1      25.583   2.797  53.124  1.00  0.00     0.095 N 
HETATM   13  H10 UNL     1      25.146   2.146  53.810  1.00  0.00     0.314 HD
HETATM   14  H11 UNL     1      26.508   3.076  53.524  1.00  0.00     0.314 HD
ENDBRANCH   8  12
BRANCH   8  15
HETATM   15  C6  UNL     1      26.740   0.859  52.392  1.00  0.00    -0.017 A 
HETATM   16  C7  UNL     1      27.884   1.274  53.054  1.00  0.00     0.013 A 
HETATM   17  C8  UNL     1      28.821   0.410  53.538  1.00  0.00     0.043 A 
HETATM   18  C9  UNL     1      28.635  -0.954  53.365  1.00  0.00     0.116 A 
HETATM   19  F1  UNL     1      29.576  -1.825  53.852  1.00  0.00    -0.206 F 
HETATM   20  C10 UNL     1      27.499  -1.408  52.705  1.00  0.00     0.043 A 
HETATM   21  C11 UNL     1      26.567  -0.504  52.227  1.00  0.00     0.013 A 
ENDBRANCH   8  15
BRANCH  10  22
HETATM   22  C14 UNL     1      26.026   5.018  49.685  1.00  0.00     0.003 A 
HETATM   23  C15 UNL     1      27.267   5.006  49.111  1.00  0.00     0.016 A 
HETATM   24  C16 UNL     1      27.851   5.851  48.202  1.00  0.00     0.024 A 
HETATM   25  C17 UNL     1      26.984   6.889  47.829  1.00  0.00     0.034 A 
HETATM   26 CL1  UNL     1      27.569   8.079  46.662  1.00  0.00    -0.084 Cl
HETATM   27  C18 UNL     1      25.703   7.016  48.334  1.00  0.00     0.024 A 
HETATM   28  C19 UNL     1      25.223   6.085  49.260  1.00  0.00     0.016 A 
ENDBRANCH  10  22
TORSDOF 3
ENDMDL
MODEL 2
REMARK VINA RESULT:      -8.9      1.954      2.609
REMARK  3 active torsions:
REMARK  status: ('A' for Active; 'I' for Inactive)
REMARK    1  A    between atoms: C5_8  and  N2_9 
REMARK    2  A    between atoms: C5_8  and  C6_10 
REMARK    3  A    between atoms: C13_18  and  C14_19 
ROOT
HETATM    1  C1  UNL     1      23.274   7.069  50.562  1.00  0.00     0.187 C 
HETATM    2  N1  UNL     1      23.697   6.114  49.531  1.00  0.00    -0.259 N 
HETATM    3  C2  UNL     1      22.714   5.804  48.467  1.00  0.00     0.231 C 
HETATM    4  S1  UNL     1      21.367   4.816  49.028  1.00  0.00    -0.121 SA
HETATM    5  C3  UNL     1      21.617   3.095  49.381  1.00  0.00     0.243 C 
HETATM    6  O1  UNL     1      22.591   2.828  50.361  1.00  0.00    -0.378 OA
HETATM    7  C4  UNL     1      23.857   3.047  49.781  1.00  0.00     0.215 C 
HETATM    8  C5  UNL     1      24.937   3.176  50.797  1.00  0.00     0.209 C 
HETATM    9  C12 UNL     1      26.194   3.658  50.066  1.00  0.00     0.124 C 
HETATM   10  C13 UNL     1      25.909   5.010  49.443  1.00  0.00     0.121 C 
HETATM   11  N3  UNL     1      24.836   5.505  49.507  1.00  0.00    -0.332 NA
ENDROOT
BRANCH   8  12
HETATM   12  N2  UNL     1      24.531   4.258  51.726  1.00  0.00     0.095 N 
HETATM   13  H10 UNL     1      23.499   4.142  51.807  1.00  0.00     0.314 HD
HETATM   14  H11 UNL     1      24.933   4.021  52.662  1.00  0.00     0.314 HD
ENDBRANCH   8  12
BRANCH   8  15
HETATM   15  C6  UNL     1      25.148   1.970  51.591  1.00  0.00    -0.017 A 
HETATM   16  C7  UNL     1      26.392   1.381  51.435  1.00  0.00     0.013 A 
HETATM   17  C8  UNL     1      26.769   0.249  52.093  1.00  0.00     0.043 A 
HETATM   18  C9  UNL     1      25.874  -0.357  52.964  1.00  0.00     0.116 A 
HETATM   19  F1  UNL     1      26.252  -1.495  53.628  1.00  0.00    -0.206 F 
HETATM   20  C10 UNL     1      24.616   0.206  53.146  1.00  0.00     0.043 A 
HETATM   21  C11 UNL     1      24.266   1.357  52.463  1.00  0.00     0.013 A 
ENDBRANCH   8  15
BRANCH  10  22
HETATM   22  C14 UNL     1      27.008   5.657  48.748  1.00  0.00     0.003 A 
HETATM   23  C15 UNL     1      28.239   5.086  48.584  1.00  0.00     0.016 A 
HETATM   24  C16 UNL     1      29.372   5.544  47.962  1.00  0.00     0.024 A 
HETATM   25  C17 UNL     1      29.181   6.822  47.416  1.00  0.00     0.034 A 
HETATM   26 CL1  UNL     1      30.540   7.574  46.573  1.00  0.00    -0.084 Cl
HETATM   27  C18 UNL     1      27.986   7.510  47.510  1.00  0.00     0.024 A 
HETATM   28  C19 UNL     1      26.900   6.931  48.175  1.00  0.00     0.016 A 
ENDBRANCH  10  22
TORSDOF 3
ENDMDL
MODEL 3
REMARK VINA RESULT:      -8.8      4.001      6.551
REMARK  3 active torsions:
REMARK  status: ('A' for Active; 'I' for Inactive)
REMARK    1  A    between atoms: C5_8  and  N2_9 
REMARK    2  A    between atoms: C5_8  and  C6_10 
REMARK    3  A    between atoms: C13_18  and  C14_19 
ROOT
HETATM    1  C1  UNL     1      23.818   4.808  51.454  1.00  0.00     0.187 C 
HETATM    2  N1  UNL     1      24.060   3.511  50.811  1.00  0.00    -0.259 N 
HETATM    3  C2  UNL     1      24.143   3.505  49.332  1.00  0.00     0.231 C 
HETATM    4  S1  UNL     1      22.586   3.761  48.546  1.00  0.00    -0.121 SA
HETATM    5  C3  UNL     1      21.371   2.468  48.544  1.00  0.00     0.243 C 
HETATM    6  O1  UNL     1      20.974   2.028  49.819  1.00  0.00    -0.378 OA
HETATM    7  C4  UNL     1      22.021   1.248  50.351  1.00  0.00     0.215 C 
HETATM    8  C5  UNL     1      21.895   1.047  51.820  1.00  0.00     0.209 C 
HETATM    9  C12 UNL     1      23.203   0.415  52.307  1.00  0.00     0.124 C 
HETATM   10  C13 UNL     1      24.346   1.367  52.012  1.00  0.00     0.121 C 
HETATM   11  N3  UNL     1      24.168   2.384  51.434  1.00  0.00    -0.332 NA
ENDROOT
BRANCH   8  12
HETATM   12  N2  UNL     1      21.807   2.393  52.436  1.00  0.00     0.095 N 
HETATM   13  H10 UNL     1      22.143   3.033  51.684  1.00  0.00     0.314 HD
HETATM   14  H11 UNL     1      20.792   2.599  52.573  1.00  0.00     0.314 HD
ENDBRANCH   8  12
BRANCH   8  15
HETATM   15  C6  UNL     1      20.704   0.304  52.216  1.00  0.00    -0.017 A 
HETATM   16  C7  UNL     1      20.870  -0.518  53.319  1.00  0.00     0.013 A 
HETATM   17  C8  UNL     1      19.870  -1.289  53.833  1.00  0.00     0.043 A 
HETATM   18  C9  UNL     1      18.620  -1.262  53.231  1.00  0.00     0.116 A 
HETATM   19  F1  UNL     1      17.613  -2.036  53.746  1.00  0.00    -0.206 F 
HETATM   20  C10 UNL     1      18.415  -0.450  52.121  1.00  0.00     0.043 A 
HETATM   21  C11 UNL     1      19.452   0.322  51.626  1.00  0.00     0.013 A 
ENDBRANCH   8  15
BRANCH  10  22
HETATM   22  C14 UNL     1      25.668   0.961  52.453  1.00  0.00     0.003 A 
HETATM   23  C15 UNL     1      26.025  -0.340  52.675  1.00  0.00     0.016 A 
HETATM   24  C16 UNL     1      27.211  -0.895  53.083  1.00  0.00     0.024 A 
HETATM   25  C17 UNL     1      28.194   0.082  53.293  1.00  0.00     0.034 A 
HETATM   26 CL1  UNL     1      29.793  -0.451  53.825  1.00  0.00    -0.084 Cl
HETATM   27  C18 UNL     1      27.965   1.432  53.105  1.00  0.00     0.024 A 
HETATM   28  C19 UNL     1      26.706   1.874  52.687  1.00  0.00     0.016 A 
ENDBRANCH  10  22
TORSDOF 3
ENDMDL
MODEL 4
REMARK VINA RESULT:      -8.7      3.152      3.890
REMARK  3 active torsions:
REMARK  status: ('A' for Active; 'I' for Inactive)
REMARK    1  A    between atoms: C5_8  and  N2_9 
REMARK    2  A    between atoms: C5_8  and  C6_10 
REMARK    3  A    between atoms: C13_18  and  C14_19 
ROOT
HETATM    1  C1  UNL     1      20.547   5.641  50.274  1.00  0.00     0.187 C 
HETATM    2  N1  UNL     1      21.249   4.540  49.602  1.00  0.00    -0.259 N 
HETATM    3  C2  UNL     1      20.578   3.944  48.424  1.00  0.00     0.231 C 
HETATM    4  S1  UNL     1      19.166   2.975  48.841  1.00  0.00    -0.121 SA
HETATM    5  C3  UNL     1      19.375   1.385  49.602  1.00  0.00     0.243 C 
HETATM    6  O1  UNL     1      20.077   1.401  50.821  1.00  0.00    -0.378 OA
HETATM    7  C4  UNL     1      21.441   1.608  50.529  1.00  0.00     0.215 C 
HETATM    8  C5  UNL     1      22.223   2.026  51.724  1.00  0.00     0.209 C 
HETATM    9  C12 UNL     1      23.608   2.459  51.233  1.00  0.00     0.124 C 
HETATM   10  C13 UNL     1      23.446   3.633  50.286  1.00  0.00     0.121 C 
HETATM   11  N3  UNL     1      22.376   4.037  49.983  1.00  0.00    -0.332 NA
ENDROOT
BRANCH   8  12
HETATM   12  N2  UNL     1      21.561   3.232  52.277  1.00  0.00     0.095 N 
HETATM   13  H10 UNL     1      22.281   3.646  52.906  1.00  0.00     0.314 HD
HETATM   14  H11 UNL     1      21.437   3.901  51.483  1.00  0.00     0.314 HD
ENDBRANCH   8  12
BRANCH   8  15
HETATM   15  C6  UNL     1      22.266   1.023  52.783  1.00  0.00    -0.017 A 
HETATM   16  C7  UNL     1      23.468   0.342  52.892  1.00  0.00     0.013 A 
HETATM   17  C8  UNL     1      23.694  -0.629  53.820  1.00  0.00     0.043 A 
HETATM   18  C9  UNL     1      22.680  -0.967  54.705  1.00  0.00     0.116 A 
HETATM   19  F1  UNL     1      22.905  -1.944  55.641  1.00  0.00    -0.206 F 
HETATM   20  C10 UNL     1      21.459  -0.305  54.627  1.00  0.00     0.043 A 
HETATM   21  C11 UNL     1      21.265   0.678  53.673  1.00  0.00     0.013 A 
ENDBRANCH   8  15
BRANCH  10  22
HETATM   22  C14 UNL     1      24.663   4.221  49.755  1.00  0.00     0.003 A 
HETATM   23  C15 UNL     1      25.847   3.545  49.653  1.00  0.00     0.016 A 
HETATM   24  C16 UNL     1      27.073   3.936  49.181  1.00  0.00     0.024 A 
HETATM   25  C17 UNL     1      27.056   5.266  48.736  1.00  0.00     0.034 A 
HETATM   26 CL1  UNL     1      28.555   5.945  48.092  1.00  0.00    -0.084 Cl
HETATM   27  C18 UNL     1      25.925   6.060  48.783  1.00  0.00     0.024 A 
HETATM   28  C19 UNL     1      24.730   5.542  49.292  1.00  0.00     0.016 A 
ENDBRANCH  10  22
TORSDOF 3
ENDMDL
MODEL 5
REMARK VINA RESULT:      -7.7      2.493      3.327
REMARK  3 active torsions:
REMARK  status: ('A' for Active; 'I' for Inactive)
REMARK    1  A    between atoms: C5_8  and  N2_9 
REMARK    2  A    between atoms: C5_8  and  C6_10 
REMARK    3  A    between atoms: C13_18  and  C14_19 
ROOT
HETATM    1  C1  UNL     1      21.194   6.146  49.913  1.00  0.00     0.187 C 
HETATM    2  N1  UNL     1      22.206   5.374  49.182  1.00  0.00    -0.259 N 
HETATM    3  C2  UNL     1      21.801   4.820  47.869  1.00  0.00     0.231 C 
HETATM    4  S1  UNL     1      20.667   3.477  47.998  1.00  0.00    -0.121 SA
HETATM    5  C3  UNL     1      21.233   1.891  48.560  1.00  0.00     0.243 C 
HETATM    6  O1  UNL     1      21.818   1.891  49.840  1.00  0.00    -0.378 OA
HETATM    7  C4  UNL     1      23.096   2.475  49.728  1.00  0.00     0.215 C 
HETATM    8  C5  UNL     1      23.654   2.884  51.046  1.00  0.00     0.209 C 
HETATM    9  C12 UNL     1      24.908   3.720  50.770  1.00  0.00     0.124 C 
HETATM   10  C13 UNL     1      24.510   4.949  49.975  1.00  0.00     0.121 C 
HETATM   11  N3  UNL     1      23.396   5.115  49.613  1.00  0.00    -0.332 NA
ENDROOT
BRANCH   8  12
HETATM   12  N2  UNL     1      22.661   3.784  51.678  1.00  0.00     0.095 N 
HETATM   13  H10 UNL     1      23.214   4.304  52.392  1.00  0.00     0.314 HD
HETATM   14  H11 UNL     1      22.378   4.482  50.952  1.00  0.00     0.314 HD
ENDBRANCH   8  12
BRANCH   8  15
HETATM   15  C6  UNL     1      23.884   1.771  51.961  1.00  0.00    -0.017 A 
HETATM   16  C7  UNL     1      22.812   1.461  52.782  1.00  0.00     0.013 A 
HETATM   17  C8  UNL     1      22.842   0.455  53.701  1.00  0.00     0.043 A 
HETATM   18  C9  UNL     1      23.996  -0.304  53.834  1.00  0.00     0.116 A 
HETATM   19  F1  UNL     1      24.028  -1.318  54.757  1.00  0.00    -0.206 F 
HETATM   20  C10 UNL     1      25.093  -0.023  53.027  1.00  0.00     0.043 A 
HETATM   21  C11 UNL     1      25.028   1.006  52.103  1.00  0.00     0.013 A 
ENDBRANCH   8  15
BRANCH  10  22
HETATM   22  C14 UNL     1      25.564   5.897  49.662  1.00  0.00     0.003 A 
HETATM   23  C15 UNL     1      25.635   7.154  50.198  1.00  0.00     0.016 A 
HETATM   24  C16 UNL     1      26.547   8.162  50.020  1.00  0.00     0.024 A 
HETATM   25  C17 UNL     1      27.562   7.789  49.127  1.00  0.00     0.034 A 
HETATM   26 CL1  UNL     1      28.830   8.968  48.775  1.00  0.00    -0.084 Cl
HETATM   27  C18 UNL     1      27.610   6.550  48.517  1.00  0.00     0.024 A 
HETATM   28  C19 UNL     1      26.614   5.604  48.781  1.00  0.00     0.016 A 
ENDBRANCH  10  22
TORSDOF 3
ENDMDL
MODEL 6
REMARK VINA RESULT:      -7.4      3.926      6.195
REMARK  3 active torsions:
REMARK  status: ('A' for Active; 'I' for Inactive)
REMARK    1  A    between atoms: C5_8  and  N2_9 
REMARK    2  A    between atoms: C5_8  and  C6_10 
REMARK    3  A    between atoms: C13_18  and  C14_19 
ROOT
HETATM    1  C1  UNL     1      22.999   3.694  52.747  1.00  0.00     0.187 C 
HETATM    2  N1  UNL     1      23.383   2.928  51.555  1.00  0.00    -0.259 N 
HETATM    3  C2  UNL     1      23.850   1.540  51.777  1.00  0.00     0.231 C 
HETATM    4  S1  UNL     1      25.446   1.451  52.518  1.00  0.00    -0.121 SA
HETATM    5  C3  UNL     1      26.889   1.849  51.564  1.00  0.00     0.243 C 
HETATM    6  O1  UNL     1      26.901   3.147  51.022  1.00  0.00    -0.378 OA
HETATM    7  C4  UNL     1      25.996   3.170  49.941  1.00  0.00     0.215 C 
HETATM    8  C5  UNL     1      25.629   4.554  49.534  1.00  0.00     0.209 C 
HETATM    9  C12 UNL     1      24.467   4.442  48.540  1.00  0.00     0.124 C 
HETATM   10  C13 UNL     1      23.293   3.780  49.234  1.00  0.00     0.121 C 
HETATM   11  N3  UNL     1      23.377   3.385  50.346  1.00  0.00    -0.332 NA
ENDROOT
BRANCH   8  12
HETATM   12  N2  UNL     1      25.105   5.237  50.741  1.00  0.00     0.095 N 
HETATM   13  H10 UNL     1      24.361   5.864  50.368  1.00  0.00     0.314 HD
HETATM   14  H11 UNL     1      24.623   4.510  51.316  1.00  0.00     0.314 HD
ENDBRANCH   8  12
BRANCH   8  15
HETATM   15  C6  UNL     1      26.751   5.341  49.034  1.00  0.00    -0.017 A 
HETATM   16  C7  UNL     1      26.555   6.713  49.054  1.00  0.00     0.013 A 
HETATM   17  C8  UNL     1      27.491   7.606  48.626  1.00  0.00     0.043 A 
HETATM   18  C9  UNL     1      28.703   7.135  48.141  1.00  0.00     0.116 A 
HETATM   19  F1  UNL     1      29.646   8.033  47.711  1.00  0.00    -0.206 F 
HETATM   20  C10 UNL     1      28.936   5.765  48.106  1.00  0.00     0.043 A 
HETATM   21  C11 UNL     1      27.964   4.885  48.550  1.00  0.00     0.013 A 
ENDBRANCH   8  15
BRANCH  10  22
HETATM   22  C14 UNL     1      22.072   3.635  48.462  1.00  0.00     0.003 A 
HETATM   23  C15 UNL     1      20.938   3.042  48.944  1.00  0.00     0.016 A 
HETATM   24  C16 UNL     1      19.714   2.828  48.365  1.00  0.00     0.024 A 
HETATM   25  C17 UNL     1      19.669   3.321  47.053  1.00  0.00     0.034 A 
HETATM   26 CL1  UNL     1      18.164   3.131  46.147  1.00  0.00    -0.084 Cl
HETATM   27  C18 UNL     1      20.744   3.942  46.445  1.00  0.00     0.024 A 
HETATM   28  C19 UNL     1      21.945   4.099  47.146  1.00  0.00     0.016 A 
ENDBRANCH  10  22
TORSDOF 3
ENDMDL
MODEL 7
REMARK VINA RESULT:      -7.4      3.565      4.587
REMARK  3 active torsions:
REMARK  status: ('A' for Active; 'I' for Inactive)
REMARK    1  A    between atoms: C5_8  and  N2_9 
REMARK    2  A    between atoms: C5_8  and  C6_10 
REMARK    3  A    between atoms: C13_18  and  C14_19 
ROOT
HETATM    1  C1  UNL     1      18.686   4.902  50.675  1.00  0.00     0.187 C 
HETATM    2  N1  UNL     1      19.554   3.983  49.929  1.00  0.00    -0.259 N 
HETATM    3  C2  UNL     1      18.931   3.235  48.813  1.00  0.00     0.231 C 
HETATM    4  S1  UNL     1      17.825   1.973  49.353  1.00  0.00    -0.121 SA
HETATM    5  C3  UNL     1      18.465   0.483  50.074  1.00  0.00     0.243 C 
HETATM    6  O1  UNL     1      19.256   0.674  51.222  1.00  0.00    -0.378 OA
HETATM    7  C4  UNL     1      20.502   1.185  50.805  1.00  0.00     0.215 C 
HETATM    8  C5  UNL     1      21.276   1.786  51.925  1.00  0.00     0.209 C 
HETATM    9  C12 UNL     1      22.472   2.520  51.309  1.00  0.00     0.124 C 
HETATM   10  C13 UNL     1      21.956   3.613  50.394  1.00  0.00     0.121 C 
HETATM   11  N3  UNL     1      20.798   3.757  50.197  1.00  0.00    -0.332 NA
ENDROOT
BRANCH   8  12
HETATM   12  N2  UNL     1      20.409   2.814  52.549  1.00  0.00     0.095 N 
HETATM   13  H10 UNL     1      19.866   3.201  51.749  1.00  0.00     0.314 HD
HETATM   14  H11 UNL     1      19.726   2.307  53.157  1.00  0.00     0.314 HD
ENDBRANCH   8  12
BRANCH   8  15
HETATM   15  C6  UNL     1      21.648   0.833  52.965  1.00  0.00    -0.017 A 
HETATM   16  C7  UNL     1      22.908   0.275  52.821  1.00  0.00     0.013 A 
HETATM   17  C8  UNL     1      23.426  -0.635  53.693  1.00  0.00     0.043 A 
HETATM   18  C9  UNL     1      22.666  -1.034  54.783  1.00  0.00     0.116 A 
HETATM   19  F1  UNL     1      23.185  -1.949  55.662  1.00  0.00    -0.206 F 
HETATM   20  C10 UNL     1      21.396  -0.496  54.961  1.00  0.00     0.043 A 
HETATM   21  C11 UNL     1      20.901   0.427  54.057  1.00  0.00     0.013 A 
ENDBRANCH   8  15
BRANCH  10  22
HETATM   22  C14 UNL     1      22.949   4.458  49.756  1.00  0.00     0.003 A 
HETATM   23  C15 UNL     1      22.644   5.609  49.083  1.00  0.00     0.016 A 
HETATM   24  C16 UNL     1      23.443   6.516  48.435  1.00  0.00     0.024 A 
HETATM   25  C17 UNL     1      24.797   6.156  48.506  1.00  0.00     0.034 A 
HETATM   26 CL1  UNL     1      25.977   7.212  47.722  1.00  0.00    -0.084 Cl
HETATM   27  C18 UNL     1      25.240   5.020  49.156  1.00  0.00     0.024 A 
HETATM   28  C19 UNL     1      24.321   4.170  49.780  1.00  0.00     0.016 A 
ENDBRANCH  10  22
TORSDOF 3
ENDMDL
MODEL 8
REMARK VINA RESULT:      -7.2      4.039      5.017
REMARK  3 active torsions:
REMARK  status: ('A' for Active; 'I' for Inactive)
REMARK    1  A    between atoms: C5_8  and  N2_9 
REMARK    2  A    between atoms: C5_8  and  C6_10 
REMARK    3  A    between atoms: C13_18  and  C14_19 
ROOT
HETATM    1  C1  UNL     1      21.478   7.253  48.205  1.00  0.00     0.187 C 
HETATM    2  N1  UNL     1      22.144   6.020  47.766  1.00  0.00    -0.259 N 
HETATM    3  C2  UNL     1      21.718   5.461  46.462  1.00  0.00     0.231 C 
HETATM    4  S1  UNL     1      20.109   4.742  46.504  1.00  0.00    -0.121 SA
HETATM    5  C3  UNL     1      19.854   3.188  47.323  1.00  0.00     0.243 C 
HETATM    6  O1  UNL     1      20.206   3.173  48.685  1.00  0.00    -0.378 OA
HETATM    7  C4  UNL     1      21.613   3.155  48.766  1.00  0.00     0.215 C 
HETATM    8  C5  UNL     1      22.112   3.523  50.119  1.00  0.00     0.209 C 
HETATM    9  C12 UNL     1      23.629   3.713  50.008  1.00  0.00     0.124 C 
HETATM   10  C13 UNL     1      23.910   4.838  49.031  1.00  0.00     0.121 C 
HETATM   11  N3  UNL     1      23.036   5.379  48.445  1.00  0.00    -0.332 NA
ENDROOT
BRANCH   8  12
HETATM   12  N2  UNL     1      21.531   4.846  50.451  1.00  0.00     0.095 N 
HETATM   13  H10 UNL     1      21.935   5.068  51.386  1.00  0.00     0.314 HD
HETATM   14  H11 UNL     1      21.938   5.535  49.778  1.00  0.00     0.314 HD
ENDBRANCH   8  12
BRANCH   8  15
HETATM   15  C6  UNL     1      21.715   2.592  51.170  1.00  0.00    -0.017 A 
HETATM   16  C7  UNL     1      22.442   1.413  51.208  1.00  0.00     0.013 A 
HETATM   17  C8  UNL     1      22.214   0.425  52.118  1.00  0.00     0.043 A 
HETATM   18  C9  UNL     1      21.205   0.591  53.057  1.00  0.00     0.116 A 
HETATM   19  F1  UNL     1      20.974  -0.402  53.974  1.00  0.00    -0.206 F 
HETATM   20  C10 UNL     1      20.454   1.761  53.049  1.00  0.00     0.043 A 
HETATM   21  C11 UNL     1      20.714   2.745  52.112  1.00  0.00     0.013 A 
ENDBRANCH   8  15
BRANCH  10  22
HETATM   22  C14 UNL     1      25.302   5.203  48.835  1.00  0.00     0.003 A 
HETATM   23  C15 UNL     1      25.707   6.437  48.406  1.00  0.00     0.016 A 
HETATM   24  C16 UNL     1      26.958   6.948  48.174  1.00  0.00     0.024 A 
HETATM   25  C17 UNL     1      27.960   6.002  48.438  1.00  0.00     0.034 A 
HETATM   26 CL1  UNL     1      29.641   6.485  48.192  1.00  0.00    -0.084 Cl
HETATM   27  C18 UNL     1      27.687   4.720  48.877  1.00  0.00     0.024 A 
HETATM   28  C19 UNL     1      26.361   4.318  49.075  1.00  0.00     0.016 A 
ENDBRANCH  10  22
TORSDOF 3
ENDMDL
MODEL 9
REMARK VINA RESULT:      -7.1      4.340      7.012
REMARK  3 active torsions:
REMARK  status: ('A' for Active; 'I' for Inactive)
REMARK    1  A    between atoms: C5_8  and  N2_9 
REMARK    2  A    between atoms: C5_8  and  C6_10 
REMARK    3  A    between atoms: C13_18  and  C14_19 
ROOT
HETATM    1  C1  UNL     1      24.202   6.531  51.276  1.00  0.00     0.187 C 
HETATM    2  N1  UNL     1      24.318   5.262  50.546  1.00  0.00    -0.259 N 
HETATM    3  C2  UNL     1      24.670   5.349  49.110  1.00  0.00     0.231 C 
HETATM    4  S1  UNL     1      23.359   5.967  48.107  1.00  0.00    -0.121 SA
HETATM    5  C3  UNL     1      21.950   4.944  47.762  1.00  0.00     0.243 C 
HETATM    6  O1  UNL     1      21.251   4.498  48.897  1.00  0.00    -0.378 OA
HETATM    7  C4  UNL     1      22.022   3.489  49.509  1.00  0.00     0.215 C 
HETATM    8  C5  UNL     1      21.592   3.209  50.906  1.00  0.00     0.209 C 
HETATM    9  C12 UNL     1      22.651   2.295  51.533  1.00  0.00     0.124 C 
HETATM   10  C13 UNL     1      23.982   3.021  51.538  1.00  0.00     0.121 C 
HETATM   11  N3  UNL     1      24.102   4.093  51.052  1.00  0.00    -0.332 NA
ENDROOT
BRANCH   8  12
HETATM   12  N2  UNL     1      21.639   4.496  51.640  1.00  0.00     0.095 N 
HETATM   13  H10 UNL     1      22.522   4.940  51.309  1.00  0.00     0.314 HD
HETATM   14  H11 UNL     1      20.854   5.083  51.275  1.00  0.00     0.314 HD
ENDBRANCH   8  12
BRANCH   8  15
HETATM   15  C6  UNL     1      20.233   2.689  51.014  1.00  0.00    -0.017 A 
HETATM   16  C7  UNL     1      20.074   1.381  50.586  1.00  0.00     0.013 A 
HETATM   17  C8  UNL     1      18.878   0.728  50.610  1.00  0.00     0.043 A 
HETATM   18  C9  UNL     1      17.755   1.393  51.082  1.00  0.00     0.116 A 
HETATM   19  F1  UNL     1      16.551   0.738  51.107  1.00  0.00    -0.206 F 
HETATM   20  C10 UNL     1      17.876   2.707  51.520  1.00  0.00     0.043 A 
HETATM   21  C11 UNL     1      19.106   3.340  51.483  1.00  0.00     0.013 A 
ENDBRANCH   8  15
BRANCH  10  22
HETATM   22  C14 UNL     1      25.104   2.330  52.148  1.00  0.00     0.003 A 
HETATM   23  C15 UNL     1      25.305   2.259  53.499  1.00  0.00     0.016 A 
HETATM   24  C16 UNL     1      26.291   1.655  54.235  1.00  0.00     0.024 A 
HETATM   25  C17 UNL     1      27.229   1.011  53.414  1.00  0.00     0.034 A 
HETATM   26 CL1  UNL     1      28.577   0.176  54.192  1.00  0.00    -0.084 Cl
HETATM   27  C18 UNL     1      27.142   1.005  52.035  1.00  0.00     0.024 A 
HETATM   28  C19 UNL     1      26.083   1.663  51.400  1.00  0.00     0.016 A 
ENDBRANCH  10  22
TORSDOF 3
ENDMDL
