MODEL 1
REMARK VINA RESULT:      -7.6      0.000      0.000
REMARK  6 active torsions:
REMARK  status: ('A' for Active; 'I' for Inactive)
REMARK    1  A    between atoms: O1_2  and  C2_3 
REMARK    2  A    between atoms: C6_8  and  C7_9 
REMARK    3  A    between atoms: C7_9  and  O2_10 
REMARK    4  A    between atoms: C8_11  and  N2_12 
REMARK    5  A    between atoms: N2_12  and  C9_13 
REMARK    6  A    between atoms: C17_22  and  O3_23 
ROOT
HETATM    1  C2  UNL     1      20.878   0.545  52.064  1.00  0.00     0.103 A 
HETATM    2  C3  UNL     1      21.269   1.051  50.841  1.00  0.00     0.072 A 
HETATM    3  C4  UNL     1      22.455   1.746  50.644  1.00  0.00     0.071 A 
HETATM    4  N1  UNL     1      22.780   2.218  49.412  1.00  0.00    -0.260 NA
HETATM    5  C5  UNL     1      23.935   2.894  49.222  1.00  0.00     0.129 A 
HETATM    6  C6  UNL     1      24.762   3.086  50.310  1.00  0.00     0.010 A 
HETATM    7  C8  UNL     1      24.463   2.619  51.575  1.00  0.00     0.055 A 
HETATM    8  C15 UNL     1      23.275   1.930  51.742  1.00  0.00     0.023 A 
HETATM    9  C16 UNL     1      22.897   1.430  52.975  1.00  0.00     0.055 A 
HETATM   10  C17 UNL     1      21.711   0.741  53.146  1.00  0.00     0.102 A 
ENDROOT
BRANCH   7  11
HETATM   11  N2  UNL     1      25.254   2.775  52.730  1.00  0.00    -0.355 N 
HETATM   12  H9  UNL     1      25.204   3.490  53.509  1.00  0.00     0.166 HD
BRANCH  11  13
HETATM   13  C9  UNL     1      26.301   1.796  52.859  1.00  0.00     0.034 A 
HETATM   14  C10 UNL     1      27.554   2.150  53.292  1.00  0.00     0.029 A 
HETATM   15  C11 UNL     1      28.590   1.218  53.428  1.00  0.00     0.004 A 
HETATM   16  C12 UNL     1      28.359  -0.103  53.118  1.00  0.00     0.024 A 
HETATM   17  C13 UNL     1      27.108  -0.479  52.683  1.00  0.00     0.036 A 
HETATM   18 CL1  UNL     1      26.846  -2.176  52.296  1.00  0.00    -0.084 Cl
HETATM   19  C14 UNL     1      26.124   0.464  52.565  1.00  0.00     0.053 A 
ENDBRANCH  11  13
ENDBRANCH   7  11
BRANCH   6  20
HETATM   20  C7  UNL     1      26.044   3.823  50.150  1.00  0.00     0.206 C 
BRANCH  20  21
HETATM   21  O2  UNL     1      25.895   5.147  50.488  1.00  0.00    -0.396 OA
HETATM   22  H8  UNL     1      25.219   5.628  49.945  1.00  0.00     0.209 HD
ENDBRANCH  20  21
ENDBRANCH   6  20
BRANCH  10  23
HETATM   23  O3  UNL     1      21.293   0.221  54.366  1.00  0.00    -0.353 OA
HETATM   24  C18 UNL     1      21.905  -0.894  54.949  1.00  0.00     0.210 C 
ENDBRANCH  10  23
BRANCH   1  25
HETATM   25  O1  UNL     1      19.660  -0.150  52.191  1.00  0.00    -0.353 OA
HETATM   26  C1  UNL     1      18.667   0.185  51.213  1.00  0.00     0.210 C 
ENDBRANCH   1  25
TORSDOF 6
ENDMDL
MODEL 2
REMARK VINA RESULT:      -7.5      2.913      5.753
REMARK  6 active torsions:
REMARK  status: ('A' for Active; 'I' for Inactive)
REMARK    1  A    between atoms: O1_2  and  C2_3 
REMARK    2  A    between atoms: C6_8  and  C7_9 
REMARK    3  A    between atoms: C7_9  and  O2_10 
REMARK    4  A    between atoms: C8_11  and  N2_12 
REMARK    5  A    between atoms: N2_12  and  C9_13 
REMARK    6  A    between atoms: C17_22  and  O3_23 
ROOT
HETATM    1  C2  UNL     1      26.405   0.144  53.978  1.00  0.00     0.103 A 
HETATM    2  C3  UNL     1      25.228  -0.438  53.554  1.00  0.00     0.072 A 
HETATM    3  C4  UNL     1      24.138   0.289  53.090  1.00  0.00     0.071 A 
HETATM    4  N1  UNL     1      23.008  -0.348  52.687  1.00  0.00    -0.260 NA
HETATM    5  C5  UNL     1      21.948   0.361  52.236  1.00  0.00     0.129 A 
HETATM    6  C6  UNL     1      22.055   1.737  52.201  1.00  0.00     0.010 A 
HETATM    7  C8  UNL     1      23.189   2.415  52.602  1.00  0.00     0.055 A 
HETATM    8  C15 UNL     1      24.259   1.666  53.058  1.00  0.00     0.023 A 
HETATM    9  C16 UNL     1      25.432   2.264  53.480  1.00  0.00     0.055 A 
HETATM   10  C17 UNL     1      26.502   1.520  53.938  1.00  0.00     0.102 A 
ENDROOT
BRANCH   7  11
HETATM   11  N2  UNL     1      23.371   3.811  52.594  1.00  0.00    -0.355 N 
HETATM   12  H9  UNL     1      23.264   4.525  53.368  1.00  0.00     0.166 HD
BRANCH  11  13
HETATM   13  C9  UNL     1      23.768   4.343  51.317  1.00  0.00     0.034 A 
HETATM   14  C10 UNL     1      22.891   5.065  50.546  1.00  0.00     0.029 A 
HETATM   15  C11 UNL     1      23.250   5.594  49.301  1.00  0.00     0.004 A 
HETATM   16  C12 UNL     1      24.523   5.390  48.819  1.00  0.00     0.024 A 
HETATM   17  C13 UNL     1      25.418   4.670  49.578  1.00  0.00     0.036 A 
HETATM   18 CL1  UNL     1      27.038   4.428  48.933  1.00  0.00    -0.084 Cl
HETATM   19  C14 UNL     1      25.026   4.170  50.789  1.00  0.00     0.053 A 
ENDBRANCH  11  13
ENDBRANCH   7  11
BRANCH   6  20
HETATM   20  C7  UNL     1      20.916   2.558  51.712  1.00  0.00     0.206 C 
BRANCH  20  21
HETATM   21  O2  UNL     1      20.397   3.331  52.723  1.00  0.00    -0.396 OA
HETATM   22  H8  UNL     1      19.414   3.249  52.830  1.00  0.00     0.209 HD
ENDBRANCH  20  21
ENDBRANCH   6  20
BRANCH  10  23
HETATM   23  O3  UNL     1      27.699   2.079  54.371  1.00  0.00    -0.353 OA
HETATM   24  C18 UNL     1      28.675   2.534  53.477  1.00  0.00     0.210 C 
ENDBRANCH  10  23
BRANCH   1  25
HETATM   25  O1  UNL     1      27.471  -0.655  54.436  1.00  0.00    -0.353 OA
HETATM   26  C1  UNL     1      28.327  -1.168  53.407  1.00  0.00     0.210 C 
ENDBRANCH   1  25
TORSDOF 6
ENDMDL
MODEL 3
REMARK VINA RESULT:      -7.4      2.683      5.431
REMARK  6 active torsions:
REMARK  status: ('A' for Active; 'I' for Inactive)
REMARK    1  A    between atoms: O1_2  and  C2_3 
REMARK    2  A    between atoms: C6_8  and  C7_9 
REMARK    3  A    between atoms: C7_9  and  O2_10 
REMARK    4  A    between atoms: C8_11  and  N2_12 
REMARK    5  A    between atoms: N2_12  and  C9_13 
REMARK    6  A    between atoms: C17_22  and  O3_23 
ROOT
HETATM    1  C2  UNL     1      27.140  -0.253  53.402  1.00  0.00     0.103 A 
HETATM    2  C3  UNL     1      27.495   0.633  52.405  1.00  0.00     0.072 A 
HETATM    3  C4  UNL     1      26.663   1.650  51.953  1.00  0.00     0.071 A 
HETATM    4  N1  UNL     1      27.075   2.488  50.966  1.00  0.00    -0.260 NA
HETATM    5  C5  UNL     1      26.265   3.477  50.527  1.00  0.00     0.129 A 
HETATM    6  C6  UNL     1      25.019   3.603  51.109  1.00  0.00     0.010 A 
HETATM    7  C8  UNL     1      24.570   2.769  52.114  1.00  0.00     0.055 A 
HETATM    8  C15 UNL     1      25.419   1.765  52.545  1.00  0.00     0.023 A 
HETATM    9  C16 UNL     1      25.048   0.885  53.545  1.00  0.00     0.055 A 
HETATM   10  C17 UNL     1      25.893  -0.119  53.978  1.00  0.00     0.102 A 
ENDROOT
BRANCH   7  11
HETATM   11  N2  UNL     1      23.317   2.836  52.754  1.00  0.00    -0.355 N 
HETATM   12  H9  UNL     1      22.993   3.419  53.576  1.00  0.00     0.166 HD
BRANCH  11  13
HETATM   13  C9  UNL     1      22.323   1.962  52.189  1.00  0.00     0.034 A 
HETATM   14  C10 UNL     1      22.185   1.829  50.830  1.00  0.00     0.029 A 
HETATM   15  C11 UNL     1      21.228   0.986  50.253  1.00  0.00     0.004 A 
HETATM   16  C12 UNL     1      20.387   0.260  51.066  1.00  0.00     0.024 A 
HETATM   17  C13 UNL     1      20.509   0.379  52.432  1.00  0.00     0.036 A 
HETATM   18 CL1  UNL     1      19.418  -0.563  53.442  1.00  0.00    -0.084 Cl
HETATM   19  C14 UNL     1      21.459   1.214  52.954  1.00  0.00     0.053 A 
ENDBRANCH  11  13
ENDBRANCH   7  11
BRANCH   6  20
HETATM   20  C7  UNL     1      24.094   4.676  50.660  1.00  0.00     0.206 C 
BRANCH  20  21
HETATM   21  O2  UNL     1      23.974   5.656  51.616  1.00  0.00    -0.396 OA
HETATM   22  H8  UNL     1      23.165   5.568  52.184  1.00  0.00     0.209 HD
ENDBRANCH  20  21
ENDBRANCH   6  20
BRANCH  10  23
HETATM   23  O3  UNL     1      25.562  -1.024  54.980  1.00  0.00    -0.353 OA
HETATM   24  C18 UNL     1      24.237  -1.258  55.364  1.00  0.00     0.210 C 
ENDBRANCH  10  23
BRANCH   1  25
HETATM   25  O1  UNL     1      28.034  -1.261  53.811  1.00  0.00    -0.353 OA
HETATM   26  C1  UNL     1      29.420  -0.899  53.753  1.00  0.00     0.210 C 
ENDBRANCH   1  25
TORSDOF 6
ENDMDL
MODEL 4
REMARK VINA RESULT:      -7.4      2.075      4.664
REMARK  6 active torsions:
REMARK  status: ('A' for Active; 'I' for Inactive)
REMARK    1  A    between atoms: O1_2  and  C2_3 
REMARK    2  A    between atoms: C6_8  and  C7_9 
REMARK    3  A    between atoms: C7_9  and  O2_10 
REMARK    4  A    between atoms: C8_11  and  N2_12 
REMARK    5  A    between atoms: N2_12  and  C9_13 
REMARK    6  A    between atoms: C17_22  and  O3_23 
ROOT
HETATM    1  C2  UNL     1      23.410   2.788  49.946  1.00  0.00     0.103 A 
HETATM    2  C3  UNL     1      22.469   1.875  50.376  1.00  0.00     0.072 A 
HETATM    3  C4  UNL     1      22.629   1.088  51.510  1.00  0.00     0.071 A 
HETATM    4  N1  UNL     1      21.661   0.207  51.877  1.00  0.00    -0.260 NA
HETATM    5  C5  UNL     1      21.818  -0.558  52.981  1.00  0.00     0.129 A 
HETATM    6  C6  UNL     1      22.980  -0.414  53.712  1.00  0.00     0.010 A 
HETATM    7  C8  UNL     1      23.982   0.471  53.367  1.00  0.00     0.055 A 
HETATM    8  C15 UNL     1      23.797   1.242  52.233  1.00  0.00     0.023 A 
HETATM    9  C16 UNL     1      24.749   2.153  51.816  1.00  0.00     0.055 A 
HETATM   10  C17 UNL     1      24.569   2.925  50.684  1.00  0.00     0.102 A 
ENDROOT
BRANCH   7  11
HETATM   11  N2  UNL     1      25.190   0.673  54.060  1.00  0.00    -0.355 N 
HETATM   12  H9  UNL     1      25.434   1.347  54.840  1.00  0.00     0.166 HD
BRANCH  11  13
HETATM   13  C9  UNL     1      26.264  -0.182  53.629  1.00  0.00     0.034 A 
HETATM   14  C10 UNL     1      26.014  -1.338  52.931  1.00  0.00     0.029 A 
HETATM   15  C11 UNL     1      27.038  -2.188  52.498  1.00  0.00     0.004 A 
HETATM   16  C12 UNL     1      28.348  -1.867  52.776  1.00  0.00     0.024 A 
HETATM   17  C13 UNL     1      28.620  -0.712  53.474  1.00  0.00     0.036 A 
HETATM   18 CL1  UNL     1      30.305  -0.333  53.813  1.00  0.00    -0.084 Cl
HETATM   19  C14 UNL     1      27.588   0.090  53.878  1.00  0.00     0.053 A 
ENDBRANCH  11  13
ENDBRANCH   7  11
BRANCH   6  20
HETATM   20  C7  UNL     1      23.196  -1.234  54.934  1.00  0.00     0.206 C 
BRANCH  20  21
HETATM   21  O2  UNL     1      22.080  -1.979  55.230  1.00  0.00    -0.396 OA
HETATM   22  H8  UNL     1      21.248  -1.645  54.805  1.00  0.00     0.209 HD
ENDBRANCH  20  21
ENDBRANCH   6  20
BRANCH  10  23
HETATM   23  O3  UNL     1      25.499   3.852  50.228  1.00  0.00    -0.353 OA
HETATM   24  C18 UNL     1      26.622   3.476  49.483  1.00  0.00     0.210 C 
ENDBRANCH  10  23
BRANCH   1  25
HETATM   25  O1  UNL     1      23.183   3.553  48.786  1.00  0.00    -0.353 OA
HETATM   26  C1  UNL     1      22.108   3.090  47.957  1.00  0.00     0.210 C 
ENDBRANCH   1  25
TORSDOF 6
ENDMDL
MODEL 5
REMARK VINA RESULT:      -7.2      3.180      6.171
REMARK  6 active torsions:
REMARK  status: ('A' for Active; 'I' for Inactive)
REMARK    1  A    between atoms: O1_2  and  C2_3 
REMARK    2  A    between atoms: C6_8  and  C7_9 
REMARK    3  A    between atoms: C7_9  and  O2_10 
REMARK    4  A    between atoms: C8_11  and  N2_12 
REMARK    5  A    between atoms: N2_12  and  C9_13 
REMARK    6  A    between atoms: C17_22  and  O3_23 
ROOT
HETATM    1  C2  UNL     1      25.846  -0.346  53.227  1.00  0.00     0.103 A 
HETATM    2  C3  UNL     1      24.587  -0.810  53.553  1.00  0.00     0.072 A 
HETATM    3  C4  UNL     1      23.418  -0.122  53.255  1.00  0.00     0.071 A 
HETATM    4  N1  UNL     1      22.210  -0.637  53.605  1.00  0.00    -0.260 NA
HETATM    5  C5  UNL     1      21.072   0.034  53.315  1.00  0.00     0.129 A 
HETATM    6  C6  UNL     1      21.180   1.243  52.658  1.00  0.00     0.010 A 
HETATM    7  C8  UNL     1      22.391   1.793  52.288  1.00  0.00     0.055 A 
HETATM    8  C15 UNL     1      23.540   1.087  52.597  1.00  0.00     0.023 A 
HETATM    9  C16 UNL     1      24.794   1.565  52.263  1.00  0.00     0.055 A 
HETATM   10  C17 UNL     1      25.944   0.863  52.570  1.00  0.00     0.102 A 
ENDROOT
BRANCH   7  11
HETATM   11  N2  UNL     1      22.580   3.018  51.619  1.00  0.00    -0.355 N 
HETATM   12  H9  UNL     1      22.801   3.982  51.995  1.00  0.00     0.166 HD
BRANCH  11  13
HETATM   13  C9  UNL     1      22.448   2.930  50.188  1.00  0.00     0.034 A 
HETATM   14  C10 UNL     1      22.249   1.722  49.567  1.00  0.00     0.029 A 
HETATM   15  C11 UNL     1      22.117   1.608  48.178  1.00  0.00     0.004 A 
HETATM   16  C12 UNL     1      22.188   2.737  47.395  1.00  0.00     0.024 A 
HETATM   17  C13 UNL     1      22.386   3.959  47.999  1.00  0.00     0.036 A 
HETATM   18 CL1  UNL     1      22.471   5.383  46.968  1.00  0.00    -0.084 Cl
HETATM   19  C14 UNL     1      22.510   4.025  49.360  1.00  0.00     0.053 A 
ENDBRANCH  11  13
ENDBRANCH   7  11
BRANCH   6  20
HETATM   20  C7  UNL     1      19.956   2.016  52.318  1.00  0.00     0.206 C 
BRANCH  20  21
HETATM   21  O2  UNL     1      20.026   3.294  52.819  1.00  0.00    -0.396 OA
HETATM   22  H8  UNL     1      20.870   3.768  52.600  1.00  0.00     0.209 HD
ENDBRANCH  20  21
ENDBRANCH   6  20
BRANCH  10  23
HETATM   23  O3  UNL     1      27.223   1.306  52.254  1.00  0.00    -0.353 OA
HETATM   24  C18 UNL     1      27.918   2.212  53.062  1.00  0.00     0.210 C 
ENDBRANCH  10  23
BRANCH   1  25
HETATM   25  O1  UNL     1      26.990  -1.097  53.559  1.00  0.00    -0.353 OA
HETATM   26  C1  UNL     1      27.250  -2.216  52.701  1.00  0.00     0.210 C 
ENDBRANCH   1  25
TORSDOF 6
ENDMDL
MODEL 6
REMARK VINA RESULT:      -6.9      2.732      5.238
REMARK  6 active torsions:
REMARK  status: ('A' for Active; 'I' for Inactive)
REMARK    1  A    between atoms: O1_2  and  C2_3 
REMARK    2  A    between atoms: C6_8  and  C7_9 
REMARK    3  A    between atoms: C7_9  and  O2_10 
REMARK    4  A    between atoms: C8_11  and  N2_12 
REMARK    5  A    between atoms: N2_12  and  C9_13 
REMARK    6  A    between atoms: C17_22  and  O3_23 
ROOT
HETATM    1  C2  UNL     1      25.972  -0.333  53.037  1.00  0.00     0.103 A 
HETATM    2  C3  UNL     1      26.613   0.457  52.105  1.00  0.00     0.072 A 
HETATM    3  C4  UNL     1      26.115   1.677  51.665  1.00  0.00     0.071 A 
HETATM    4  N1  UNL     1      26.798   2.406  50.743  1.00  0.00    -0.260 NA
HETATM    5  C5  UNL     1      26.312   3.594  50.316  1.00  0.00     0.129 A 
HETATM    6  C6  UNL     1      25.114   4.033  50.842  1.00  0.00     0.010 A 
HETATM    7  C8  UNL     1      24.396   3.317  51.780  1.00  0.00     0.055 A 
HETATM    8  C15 UNL     1      24.915   2.106  52.201  1.00  0.00     0.023 A 
HETATM    9  C16 UNL     1      24.261   1.325  53.136  1.00  0.00     0.055 A 
HETATM   10  C17 UNL     1      24.776   0.114  53.558  1.00  0.00     0.102 A 
ENDROOT
BRANCH   7  11
HETATM   11  N2  UNL     1      23.171   3.699  52.361  1.00  0.00    -0.355 N 
HETATM   12  H9  UNL     1      22.967   4.333  53.184  1.00  0.00     0.166 HD
BRANCH  11  13
HETATM   13  C9  UNL     1      22.016   3.127  51.722  1.00  0.00     0.034 A 
HETATM   14  C10 UNL     1      20.902   2.782  52.446  1.00  0.00     0.029 A 
HETATM   15  C11 UNL     1      19.765   2.224  51.851  1.00  0.00     0.004 A 
HETATM   16  C12 UNL     1      19.749   2.008  50.492  1.00  0.00     0.024 A 
HETATM   17  C13 UNL     1      20.855   2.349  49.747  1.00  0.00     0.036 A 
HETATM   18 CL1  UNL     1      20.800   2.059  48.011  1.00  0.00    -0.084 Cl
HETATM   19  C14 UNL     1      21.946   2.891  50.369  1.00  0.00     0.053 A 
ENDBRANCH  11  13
ENDBRANCH   7  11
BRANCH   6  20
HETATM   20  C7  UNL     1      24.541   5.333  50.403  1.00  0.00     0.206 C 
BRANCH  20  21
HETATM   21  O2  UNL     1      24.552   6.247  51.429  1.00  0.00    -0.396 OA
HETATM   22  H8  UNL     1      24.810   7.163  51.150  1.00  0.00     0.209 HD
ENDBRANCH  20  21
ENDBRANCH   6  20
BRANCH  10  23
HETATM   23  O3  UNL     1      24.152  -0.702  54.495  1.00  0.00    -0.353 OA
HETATM   24  C18 UNL     1      22.772  -0.932  54.482  1.00  0.00     0.210 C 
ENDBRANCH  10  23
BRANCH   1  25
HETATM   25  O1  UNL     1      26.535  -1.560  53.438  1.00  0.00    -0.353 OA
HETATM   26  C1  UNL     1      27.095  -2.345  52.377  1.00  0.00     0.210 C 
ENDBRANCH   1  25
TORSDOF 6
ENDMDL
MODEL 7
REMARK VINA RESULT:      -6.8      3.118      6.723
REMARK  6 active torsions:
REMARK  status: ('A' for Active; 'I' for Inactive)
REMARK    1  A    between atoms: O1_2  and  C2_3 
REMARK    2  A    between atoms: C6_8  and  C7_9 
REMARK    3  A    between atoms: C7_9  and  O2_10 
REMARK    4  A    between atoms: C8_11  and  N2_12 
REMARK    5  A    between atoms: N2_12  and  C9_13 
REMARK    6  A    between atoms: C17_22  and  O3_23 
ROOT
HETATM    1  C2  UNL     1      24.513   3.309  50.992  1.00  0.00     0.103 A 
HETATM    2  C3  UNL     1      25.030   2.119  51.466  1.00  0.00     0.072 A 
HETATM    3  C4  UNL     1      24.322   1.253  52.290  1.00  0.00     0.071 A 
HETATM    4  N1  UNL     1      24.891   0.097  52.722  1.00  0.00    -0.260 NA
HETATM    5  C5  UNL     1      24.201  -0.746  53.523  1.00  0.00     0.129 A 
HETATM    6  C6  UNL     1      22.915  -0.394  53.883  1.00  0.00     0.010 A 
HETATM    7  C8  UNL     1      22.308   0.773  53.462  1.00  0.00     0.055 A 
HETATM    8  C15 UNL     1      23.035   1.617  52.642  1.00  0.00     0.023 A 
HETATM    9  C16 UNL     1      22.504   2.805  52.175  1.00  0.00     0.055 A 
HETATM   10  C17 UNL     1      23.228   3.652  51.357  1.00  0.00     0.102 A 
ENDROOT
BRANCH   7  11
HETATM   11  N2  UNL     1      21.005   1.198  53.786  1.00  0.00    -0.355 N 
HETATM   12  H9  UNL     1      20.665   1.878  54.523  1.00  0.00     0.166 HD
BRANCH  11  13
HETATM   13  C9  UNL     1      19.976   0.603  52.975  1.00  0.00     0.034 A 
HETATM   14  C10 UNL     1      19.698   1.081  51.718  1.00  0.00     0.029 A 
HETATM   15  C11 UNL     1      18.704   0.521  50.908  1.00  0.00     0.004 A 
HETATM   16  C12 UNL     1      17.969  -0.545  51.375  1.00  0.00     0.024 A 
HETATM   17  C13 UNL     1      18.233  -1.040  52.632  1.00  0.00     0.036 A 
HETATM   18 CL1  UNL     1      17.276  -2.404  53.198  1.00  0.00    -0.084 Cl
HETATM   19  C14 UNL     1      19.214  -0.463  53.391  1.00  0.00     0.053 A 
ENDBRANCH  11  13
ENDBRANCH   7  11
BRANCH   6  20
HETATM   20  C7  UNL     1      22.118  -1.289  54.763  1.00  0.00     0.206 C 
BRANCH  20  21
HETATM   21  O2  UNL     1      22.898  -1.816  55.764  1.00  0.00    -0.396 OA
HETATM   22  H8  UNL     1      23.619  -2.415  55.441  1.00  0.00     0.209 HD
ENDBRANCH  20  21
ENDBRANCH   6  20
BRANCH  10  23
HETATM   23  O3  UNL     1      22.734   4.854  50.865  1.00  0.00    -0.353 OA
HETATM   24  C18 UNL     1      21.387   5.214  50.992  1.00  0.00     0.210 C 
ENDBRANCH  10  23
BRANCH   1  25
HETATM   25  O1  UNL     1      25.288   4.140  50.159  1.00  0.00    -0.353 OA
HETATM   26  C1  UNL     1      26.508   3.554  49.687  1.00  0.00     0.210 C 
ENDBRANCH   1  25
TORSDOF 6
ENDMDL
MODEL 8
REMARK VINA RESULT:      -6.7      6.410     10.103
REMARK  6 active torsions:
REMARK  status: ('A' for Active; 'I' for Inactive)
REMARK    1  A    between atoms: O1_2  and  C2_3 
REMARK    2  A    between atoms: C6_8  and  C7_9 
REMARK    3  A    between atoms: C7_9  and  O2_10 
REMARK    4  A    between atoms: C8_11  and  N2_12 
REMARK    5  A    between atoms: N2_12  and  C9_13 
REMARK    6  A    between atoms: C17_22  and  O3_23 
ROOT
HETATM    1  C2  UNL     1      32.642   6.130  48.893  1.00  0.00     0.103 A 
HETATM    2  C3  UNL     1      32.312   7.405  49.306  1.00  0.00     0.072 A 
HETATM    3  C4  UNL     1      31.056   7.969  49.118  1.00  0.00     0.071 A 
HETATM    4  N1  UNL     1      30.798   9.232  49.550  1.00  0.00    -0.260 NA
HETATM    5  C5  UNL     1      29.575   9.779  49.366  1.00  0.00     0.129 A 
HETATM    6  C6  UNL     1      28.612   9.020  48.733  1.00  0.00     0.010 A 
HETATM    7  C8  UNL     1      28.841   7.735  48.283  1.00  0.00     0.055 A 
HETATM    8  C15 UNL     1      30.100   7.198  48.484  1.00  0.00     0.023 A 
HETATM    9  C16 UNL     1      30.415   5.919  48.064  1.00  0.00     0.055 A 
HETATM   10  C17 UNL     1      31.672   5.379  48.262  1.00  0.00     0.102 A 
ENDROOT
BRANCH   7  11
HETATM   11  N2  UNL     1      27.911   6.902  47.631  1.00  0.00    -0.355 N 
HETATM   12  H9  UNL     1      27.695   6.783  46.602  1.00  0.00     0.166 HD
BRANCH  11  13
HETATM   13  C9  UNL     1      27.132   6.084  48.523  1.00  0.00     0.034 A 
HETATM   14  C10 UNL     1      27.401   4.748  48.678  1.00  0.00     0.029 A 
HETATM   15  C11 UNL     1      26.660   3.929  49.538  1.00  0.00     0.004 A 
HETATM   16  C12 UNL     1      25.620   4.470  50.259  1.00  0.00     0.024 A 
HETATM   17  C13 UNL     1      25.333   5.809  50.119  1.00  0.00     0.036 A 
HETATM   18 CL1  UNL     1      23.997   6.468  51.056  1.00  0.00    -0.084 Cl
HETATM   19  C14 UNL     1      26.083   6.573  49.267  1.00  0.00     0.053 A 
ENDBRANCH  11  13
ENDBRANCH   7  11
BRANCH   6  20
HETATM   20  C7  UNL     1      27.253   9.580  48.509  1.00  0.00     0.206 C 
BRANCH  20  21
HETATM   21  O2  UNL     1      26.794  10.223  49.634  1.00  0.00    -0.396 OA
HETATM   22  H8  UNL     1      26.770  11.212  49.552  1.00  0.00     0.209 HD
ENDBRANCH  20  21
ENDBRANCH   6  20
BRANCH  10  23
HETATM   23  O3  UNL     1      32.031   4.098  47.857  1.00  0.00    -0.353 OA
HETATM   24  C18 UNL     1      32.351   3.800  46.528  1.00  0.00     0.210 C 
ENDBRANCH  10  23
BRANCH   1  25
HETATM   25  O1  UNL     1      33.935   5.621  49.117  1.00  0.00    -0.353 OA
HETATM   26  C1  UNL     1      34.991   6.346  48.472  1.00  0.00     0.210 C 
ENDBRANCH   1  25
TORSDOF 6
ENDMDL
MODEL 9
REMARK VINA RESULT:      -6.7      3.016      6.437
REMARK  6 active torsions:
REMARK  status: ('A' for Active; 'I' for Inactive)
REMARK    1  A    between atoms: O1_2  and  C2_3 
REMARK    2  A    between atoms: C6_8  and  C7_9 
REMARK    3  A    between atoms: C7_9  and  O2_10 
REMARK    4  A    between atoms: C8_11  and  N2_12 
REMARK    5  A    between atoms: N2_12  and  C9_13 
REMARK    6  A    between atoms: C17_22  and  O3_23 
ROOT
HETATM    1  C2  UNL     1      26.138  -0.193  53.909  1.00  0.00     0.103 A 
HETATM    2  C3  UNL     1      25.115  -0.724  54.667  1.00  0.00     0.072 A 
HETATM    3  C4  UNL     1      23.780  -0.684  54.286  1.00  0.00     0.071 A 
HETATM    4  N1  UNL     1      22.821  -1.227  55.081  1.00  0.00    -0.260 NA
HETATM    5  C5  UNL     1      21.522  -1.188  54.709  1.00  0.00     0.129 A 
HETATM    6  C6  UNL     1      21.208  -0.584  53.507  1.00  0.00     0.010 A 
HETATM    7  C8  UNL     1      22.158  -0.024  52.676  1.00  0.00     0.055 A 
HETATM    8  C15 UNL     1      23.479  -0.078  53.080  1.00  0.00     0.023 A 
HETATM    9  C16 UNL     1      24.493   0.459  52.309  1.00  0.00     0.055 A 
HETATM   10  C17 UNL     1      25.815   0.408  52.709  1.00  0.00     0.102 A 
ENDROOT
BRANCH   7  11
HETATM   11  N2  UNL     1      21.915   0.606  51.440  1.00  0.00    -0.355 N 
HETATM   12  H9  UNL     1      21.621   0.203  50.507  1.00  0.00     0.166 HD
BRANCH  11  13
HETATM   13  C9  UNL     1      22.102   2.033  51.463  1.00  0.00     0.034 A 
HETATM   14  C10 UNL     1      21.374   2.831  52.310  1.00  0.00     0.029 A 
HETATM   15  C11 UNL     1      21.536   4.221  52.353  1.00  0.00     0.004 A 
HETATM   16  C12 UNL     1      22.453   4.822  51.522  1.00  0.00     0.024 A 
HETATM   17  C13 UNL     1      23.195   4.040  50.666  1.00  0.00     0.036 A 
HETATM   18 CL1  UNL     1      24.359   4.841  49.618  1.00  0.00    -0.084 Cl
HETATM   19  C14 UNL     1      23.005   2.685  50.656  1.00  0.00     0.053 A 
ENDBRANCH  11  13
ENDBRANCH   7  11
BRANCH   6  20
HETATM   20  C7  UNL     1      19.793  -0.517  53.056  1.00  0.00     0.206 C 
BRANCH  20  21
HETATM   21  O2  UNL     1      18.990  -1.318  53.833  1.00  0.00    -0.396 OA
HETATM   22  H8  UNL     1      18.024  -1.245  53.623  1.00  0.00     0.209 HD
ENDBRANCH  20  21
ENDBRANCH   6  20
BRANCH  10  23
HETATM   23  O3  UNL     1      26.865   0.934  51.966  1.00  0.00    -0.353 OA
HETATM   24  C18 UNL     1      26.792   2.194  51.362  1.00  0.00     0.210 C 
ENDBRANCH  10  23
BRANCH   1  25
HETATM   25  O1  UNL     1      27.471  -0.269  54.357  1.00  0.00    -0.353 OA
HETATM   26  C1  UNL     1      28.314  -1.148  53.601  1.00  0.00     0.210 C 
ENDBRANCH   1  25
TORSDOF 6
ENDMDL
