MODEL 1
REMARK VINA RESULT:      -7.7      0.000      0.000
REMARK  0 active torsions:
REMARK  status: ('A' for Active; 'I' for Inactive)
ROOT
HETATM    1  C1  UNL     1      22.284   3.413  52.241  1.00  0.00     0.026 C 
HETATM    2  C2  UNL     1      23.509   4.063  52.131  1.00  0.00     0.135 C 
HETATM    3  O1  UNL     1      24.459   4.375  51.010  1.00  0.00    -0.357 OA
HETATM    4  C3  UNL     1      25.353   3.115  51.009  1.00  0.00     0.238 C 
HETATM    5  C4  UNL     1      24.236   2.143  51.252  1.00  0.00     0.069 C 
HETATM    6  C5  UNL     1      24.257   1.398  52.419  1.00  0.00     0.047 C 
HETATM    7  C6  UNL     1      23.187   0.404  52.808  1.00  0.00     0.301 A 
HETATM    8  C7  UNL     1      22.738  -0.497  53.723  1.00  0.00     0.260 A 
HETATM    9  C8  UNL     1      22.968  -1.157  54.965  1.00  0.00     0.199 A 
HETATM   10  N1  UNL     1      21.533  -1.660  55.089  1.00  0.00    -0.273 NA
HETATM   11  C9  UNL     1      21.002  -1.167  53.927  1.00  0.00     0.351 A 
HETATM   12  N2  UNL     1      21.694  -0.340  52.850  1.00  0.00     0.112 N 
HETATM   13  O2  UNL     1      20.649  -0.251  52.104  1.00  0.00    -0.176 OA
HETATM   14  C10 UNL     1      19.535   0.386  52.122  1.00  0.00     0.331 C 
HETATM   15  N3  UNL     1      19.470   1.857  52.129  1.00  0.00    -0.367 N 
HETATM   16  C11 UNL     1      20.460   2.244  51.104  1.00  0.00     0.029 C 
HETATM   17  C12 UNL     1      20.940   2.683  52.260  1.00  0.00     0.031 C 
HETATM   18  C13 UNL     1      20.253   1.745  49.762  1.00  0.00     0.027 C 
HETATM   19  C14 UNL     1      21.323   1.406  48.975  1.00  0.00     0.002 C 
HETATM   20  C15 UNL     1      22.393   1.629  49.868  1.00  0.00     0.203 C 
HETATM   21  O3  UNL     1      23.484   2.401  49.988  1.00  0.00    -0.350 OA
HETATM   22  H12 UNL     1      18.760   2.282  52.810  1.00  0.00     0.161 HD
ENDROOT
TORSDOF 0
ENDMDL
MODEL 2
REMARK VINA RESULT:      -7.6      3.054      4.370
REMARK  0 active torsions:
REMARK  status: ('A' for Active; 'I' for Inactive)
ROOT
HETATM    1  C1  UNL     1      26.632   1.405  54.299  1.00  0.00     0.026 C 
HETATM    2  C2  UNL     1      27.658   0.513  54.590  1.00  0.00     0.135 C 
HETATM    3  O1  UNL     1      28.812  -0.077  53.831  1.00  0.00    -0.357 OA
HETATM    4  C3  UNL     1      28.161  -1.336  53.217  1.00  0.00     0.238 C 
HETATM    5  C4  UNL     1      26.858  -0.676  52.877  1.00  0.00     0.069 C 
HETATM    6  C5  UNL     1      25.708  -1.140  53.492  1.00  0.00     0.047 C 
HETATM    7  C6  UNL     1      24.332  -0.555  53.268  1.00  0.00     0.301 A 
HETATM    8  C7  UNL     1      23.006  -0.598  53.568  1.00  0.00     0.260 A 
HETATM    9  C8  UNL     1      21.965  -1.239  54.300  1.00  0.00     0.199 A 
HETATM   10  N1  UNL     1      20.967  -0.104  54.087  1.00  0.00    -0.273 NA
HETATM   11  C9  UNL     1      21.725   0.745  53.326  1.00  0.00     0.351 A 
HETATM   12  N2  UNL     1      23.164   0.564  52.859  1.00  0.00     0.112 N 
HETATM   13  O2  UNL     1      23.206   1.682  52.224  1.00  0.00    -0.176 OA
HETATM   14  C10 UNL     1      23.277   2.929  52.522  1.00  0.00     0.331 C 
HETATM   15  N3  UNL     1      24.404   3.493  53.284  1.00  0.00    -0.367 N 
HETATM   16  C11 UNL     1      25.584   2.876  52.648  1.00  0.00     0.029 C 
HETATM   17  C12 UNL     1      25.542   2.395  53.883  1.00  0.00     0.031 C 
HETATM   18  C13 UNL     1      25.775   3.115  51.234  1.00  0.00     0.027 C 
HETATM   19  C14 UNL     1      26.299   2.136  50.429  1.00  0.00     0.002 C 
HETATM   20  C15 UNL     1      26.439   1.078  51.352  1.00  0.00     0.203 C 
HETATM   21  O3  UNL     1      27.397   0.314  51.898  1.00  0.00    -0.350 OA
HETATM   22  H12 UNL     1      24.134   4.185  54.057  1.00  0.00     0.161 HD
ENDROOT
TORSDOF 0
ENDMDL
MODEL 3
REMARK VINA RESULT:      -7.3      1.644      2.008
REMARK  0 active torsions:
REMARK  status: ('A' for Active; 'I' for Inactive)
ROOT
HETATM    1  C1  UNL     1      22.504   3.514  52.218  1.00  0.00     0.026 C 
HETATM    2  C2  UNL     1      23.162   4.571  51.597  1.00  0.00     0.135 C 
HETATM    3  O1  UNL     1      23.348   5.032  50.180  1.00  0.00    -0.357 OA
HETATM    4  C3  UNL     1      24.624   4.261  49.774  1.00  0.00     0.238 C 
HETATM    5  C4  UNL     1      24.248   2.982  50.463  1.00  0.00     0.069 C 
HETATM    6  C5  UNL     1      25.053   2.532  51.495  1.00  0.00     0.047 C 
HETATM    7  C6  UNL     1      24.782   1.279  52.295  1.00  0.00     0.301 A 
HETATM    8  C7  UNL     1      25.178   0.454  53.302  1.00  0.00     0.260 A 
HETATM    9  C8  UNL     1      26.144   0.177  54.312  1.00  0.00     0.199 A 
HETATM   10  N1  UNL     1      25.257  -0.830  55.038  1.00  0.00    -0.273 NA
HETATM   11  C9  UNL     1      24.154  -0.810  54.228  1.00  0.00     0.351 A 
HETATM   12  N2  UNL     1      23.922   0.017  52.969  1.00  0.00     0.112 N 
HETATM   13  O2  UNL     1      22.747  -0.458  52.751  1.00  0.00    -0.176 OA
HETATM   14  C10 UNL     1      21.574  -0.331  53.258  1.00  0.00     0.331 C 
HETATM   15  N3  UNL     1      20.876   0.964  53.314  1.00  0.00    -0.367 N 
HETATM   16  C11 UNL     1      21.100   1.526  51.967  1.00  0.00     0.029 C 
HETATM   17  C12 UNL     1      21.749   2.321  52.807  1.00  0.00     0.031 C 
HETATM   18  C13 UNL     1      20.624   0.754  50.840  1.00  0.00     0.027 C 
HETATM   19  C14 UNL     1      21.326   0.739  49.662  1.00  0.00     0.002 C 
HETATM   20  C15 UNL     1      22.442   1.530  50.007  1.00  0.00     0.203 C 
HETATM   21  O3  UNL     1      23.029   2.684  49.653  1.00  0.00    -0.350 OA
HETATM   22  H12 UNL     1      20.385   1.182  54.241  1.00  0.00     0.161 HD
ENDROOT
TORSDOF 0
ENDMDL
MODEL 4
REMARK VINA RESULT:      -7.1      2.437      4.556
REMARK  0 active torsions:
REMARK  status: ('A' for Active; 'I' for Inactive)
ROOT
HETATM    1  C1  UNL     1      21.912   1.322  50.209  1.00  0.00     0.026 C 
HETATM    2  C2  UNL     1      20.763   0.616  50.550  1.00  0.00     0.135 C 
HETATM    3  O1  UNL     1      19.501   0.923  51.302  1.00  0.00    -0.357 OA
HETATM    4  C3  UNL     1      19.911   0.562  52.747  1.00  0.00     0.238 C 
HETATM    5  C4  UNL     1      21.293   1.139  52.656  1.00  0.00     0.069 C 
HETATM    6  C5  UNL     1      22.372   0.283  52.797  1.00  0.00     0.047 C 
HETATM    7  C6  UNL     1      23.816   0.718  52.700  1.00  0.00     0.301 A 
HETATM    8  C7  UNL     1      25.127   0.358  52.744  1.00  0.00     0.260 A 
HETATM    9  C8  UNL     1      26.074  -0.691  52.930  1.00  0.00     0.199 A 
HETATM   10  N1  UNL     1      27.237   0.109  52.350  1.00  0.00    -0.273 NA
HETATM   11  C9  UNL     1      26.603   1.289  52.068  1.00  0.00     0.351 A 
HETATM   12  N2  UNL     1      25.137   1.648  52.282  1.00  0.00     0.112 N 
HETATM   13  O2  UNL     1      25.258   2.844  51.824  1.00  0.00    -0.176 OA
HETATM   14  C10 UNL     1      25.405   3.399  50.676  1.00  0.00     0.331 C 
HETATM   15  N3  UNL     1      24.416   3.247  49.595  1.00  0.00    -0.367 N 
HETATM   16  C11 UNL     1      23.128   3.445  50.287  1.00  0.00     0.029 C 
HETATM   17  C12 UNL     1      23.134   2.182  49.882  1.00  0.00     0.031 C 
HETATM   18  C13 UNL     1      22.927   4.705  50.967  1.00  0.00     0.027 C 
HETATM   19  C14 UNL     1      22.219   4.757  52.140  1.00  0.00     0.002 C 
HETATM   20  C15 UNL     1      21.940   3.389  52.344  1.00  0.00     0.203 C 
HETATM   21  O3  UNL     1      20.889   2.560  52.437  1.00  0.00    -0.350 OA
HETATM   22  H12 UNL     1      24.825   3.060  48.622  1.00  0.00     0.161 HD
ENDROOT
TORSDOF 0
ENDMDL
MODEL 5
REMARK VINA RESULT:      -7.0      2.693      4.127
REMARK  0 active torsions:
REMARK  status: ('A' for Active; 'I' for Inactive)
ROOT
HETATM    1  C1  UNL     1      24.298   3.538  53.173  1.00  0.00     0.026 C 
HETATM    2  C2  UNL     1      25.111   2.479  53.562  1.00  0.00     0.135 C 
HETATM    3  O1  UNL     1      26.285   1.755  52.967  1.00  0.00    -0.357 OA
HETATM    4  C3  UNL     1      25.579   0.651  52.148  1.00  0.00     0.238 C 
HETATM    5  C4  UNL     1      24.471   1.529  51.644  1.00  0.00     0.069 C 
HETATM    6  C5  UNL     1      23.172   1.221  52.011  1.00  0.00     0.047 C 
HETATM    7  C6  UNL     1      21.963   2.030  51.603  1.00  0.00     0.301 A 
HETATM    8  C7  UNL     1      20.612   2.183  51.665  1.00  0.00     0.260 A 
HETATM    9  C8  UNL     1      19.372   1.677  52.151  1.00  0.00     0.199 A 
HETATM   10  N1  UNL     1      18.609   2.967  51.864  1.00  0.00    -0.273 NA
HETATM   11  C9  UNL     1      19.609   3.725  51.317  1.00  0.00     0.351 A 
HETATM   12  N2  UNL     1      21.067   3.343  51.092  1.00  0.00     0.112 N 
HETATM   13  O2  UNL     1      21.389   4.473  50.568  1.00  0.00    -0.176 OA
HETATM   14  C10 UNL     1      21.587   5.673  50.977  1.00  0.00     0.331 C 
HETATM   15  N3  UNL     1      22.626   6.007  51.965  1.00  0.00    -0.367 N 
HETATM   16  C11 UNL     1      23.799   5.246  51.493  1.00  0.00     0.029 C 
HETATM   17  C12 UNL     1      23.461   4.711  52.659  1.00  0.00     0.031 C 
HETATM   18  C13 UNL     1      24.278   5.528  50.158  1.00  0.00     0.027 C 
HETATM   19  C14 UNL     1      24.790   4.524  49.377  1.00  0.00     0.002 C 
HETATM   20  C15 UNL     1      24.602   3.408  50.220  1.00  0.00     0.203 C 
HETATM   21  O3  UNL     1      25.321   2.472  50.858  1.00  0.00    -0.350 OA
HETATM   22  H12 UNL     1      22.324   6.690  52.735  1.00  0.00     0.161 HD
ENDROOT
TORSDOF 0
ENDMDL
MODEL 6
REMARK VINA RESULT:      -6.9      8.601     11.458
REMARK  0 active torsions:
REMARK  status: ('A' for Active; 'I' for Inactive)
ROOT
HETATM    1  C1  UNL     1      32.258   7.031  49.333  1.00  0.00     0.026 C 
HETATM    2  C2  UNL     1      33.168   6.043  48.973  1.00  0.00     0.135 C 
HETATM    3  O1  UNL     1      34.150   5.848  47.854  1.00  0.00    -0.357 OA
HETATM    4  C3  UNL     1      33.271   5.143  46.796  1.00  0.00     0.238 C 
HETATM    5  C4  UNL     1      32.050   5.980  47.040  1.00  0.00     0.069 C 
HETATM    6  C5  UNL     1      30.907   5.352  47.505  1.00  0.00     0.047 C 
HETATM    7  C6  UNL     1      29.615   6.070  47.821  1.00  0.00     0.301 A 
HETATM    8  C7  UNL     1      28.330   5.977  48.257  1.00  0.00     0.260 A 
HETATM    9  C8  UNL     1      27.279   5.130  48.715  1.00  0.00     0.199 A 
HETATM   10  N1  UNL     1      26.440   6.282  49.260  1.00  0.00    -0.273 NA
HETATM   11  C9  UNL     1      27.237   7.343  48.925  1.00  0.00     0.351 A 
HETATM   12  N2  UNL     1      28.587   7.323  48.216  1.00  0.00     0.112 N 
HETATM   13  O2  UNL     1      28.729   8.601  48.234  1.00  0.00    -0.176 OA
HETATM   14  C10 UNL     1      29.006   9.503  49.105  1.00  0.00     0.331 C 
HETATM   15  N3  UNL     1      30.267   9.503  49.865  1.00  0.00    -0.367 N 
HETATM   16  C11 UNL     1      31.283   9.219  48.832  1.00  0.00     0.029 C 
HETATM   17  C12 UNL     1      31.287   8.172  49.646  1.00  0.00     0.031 C 
HETATM   18  C13 UNL     1      31.374  10.142  47.722  1.00  0.00     0.027 C 
HETATM   19  C14 UNL     1      31.676   9.686  46.464  1.00  0.00     0.002 C 
HETATM   20  C15 UNL     1      31.747   8.296  46.693  1.00  0.00     0.203 C 
HETATM   21  O3  UNL     1      32.633   7.290  46.625  1.00  0.00    -0.350 OA
HETATM   22  H12 UNL     1      30.173   9.711  50.912  1.00  0.00     0.161 HD
ENDROOT
TORSDOF 0
ENDMDL
MODEL 7
REMARK VINA RESULT:      -6.9      3.320      5.064
REMARK  0 active torsions:
REMARK  status: ('A' for Active; 'I' for Inactive)
ROOT
HETATM    1  C1  UNL     1      24.012   4.052  52.264  1.00  0.00     0.026 C 
HETATM    2  C2  UNL     1      24.336   3.228  53.336  1.00  0.00     0.135 C 
HETATM    3  O1  UNL     1      25.558   2.472  53.775  1.00  0.00    -0.357 OA
HETATM    4  C3  UNL     1      25.355   1.120  53.055  1.00  0.00     0.238 C 
HETATM    5  C4  UNL     1      24.841   1.712  51.775  1.00  0.00     0.069 C 
HETATM    6  C5  UNL     1      23.549   1.407  51.384  1.00  0.00     0.047 C 
HETATM    7  C6  UNL     1      22.890   1.951  50.137  1.00  0.00     0.301 A 
HETATM    8  C7  UNL     1      21.779   1.993  49.353  1.00  0.00     0.260 A 
HETATM    9  C8  UNL     1      20.445   1.539  49.143  1.00  0.00     0.199 A 
HETATM   10  N1  UNL     1      20.124   2.617  48.112  1.00  0.00    -0.273 NA
HETATM   11  C9  UNL     1      21.325   3.272  48.064  1.00  0.00     0.351 A 
HETATM   12  N2  UNL     1      22.595   2.974  48.852  1.00  0.00     0.112 N 
HETATM   13  O2  UNL     1      23.272   3.930  48.320  1.00  0.00    -0.176 OA
HETATM   14  C10 UNL     1      23.314   5.210  48.403  1.00  0.00     0.331 C 
HETATM   15  N3  UNL     1      23.610   5.907  49.666  1.00  0.00    -0.367 N 
HETATM   16  C11 UNL     1      24.756   5.151  50.208  1.00  0.00     0.029 C 
HETATM   17  C12 UNL     1      23.752   4.946  51.050  1.00  0.00     0.031 C 
HETATM   18  C13 UNL     1      25.948   5.079  49.392  1.00  0.00     0.027 C 
HETATM   19  C14 UNL     1      26.716   3.943  49.383  1.00  0.00     0.002 C 
HETATM   20  C15 UNL     1      25.962   3.105  50.232  1.00  0.00     0.203 C 
HETATM   21  O3  UNL     1      26.079   2.461  51.404  1.00  0.00    -0.350 OA
HETATM   22  H12 UNL     1      22.987   6.753  49.881  1.00  0.00     0.161 HD
ENDROOT
TORSDOF 0
ENDMDL
MODEL 8
REMARK VINA RESULT:      -6.8      2.390      3.522
REMARK  0 active torsions:
REMARK  status: ('A' for Active; 'I' for Inactive)
ROOT
HETATM    1  C1  UNL     1      23.625   4.538  51.682  1.00  0.00     0.026 C 
HETATM    2  C2  UNL     1      24.044   5.663  50.979  1.00  0.00     0.135 C 
HETATM    3  O1  UNL     1      23.892   6.164  49.571  1.00  0.00    -0.357 OA
HETATM    4  C3  UNL     1      25.120   5.525  48.886  1.00  0.00     0.238 C 
HETATM    5  C4  UNL     1      25.010   4.205  49.590  1.00  0.00     0.069 C 
HETATM    6  C5  UNL     1      26.048   3.815  50.419  1.00  0.00     0.047 C 
HETATM    7  C6  UNL     1      26.062   2.529  51.212  1.00  0.00     0.301 A 
HETATM    8  C7  UNL     1      26.730   1.728  52.086  1.00  0.00     0.260 A 
HETATM    9  C8  UNL     1      27.904   1.528  52.867  1.00  0.00     0.199 A 
HETATM   10  N1  UNL     1      27.280   0.428  53.722  1.00  0.00    -0.273 NA
HETATM   11  C9  UNL     1      26.036   0.357  53.155  1.00  0.00     0.351 A 
HETATM   12  N2  UNL     1      25.476   1.179  52.001  1.00  0.00     0.112 N 
HETATM   13  O2  UNL     1      24.329   0.599  52.009  1.00  0.00    -0.176 OA
HETATM   14  C10 UNL     1      23.280   0.605  52.749  1.00  0.00     0.331 C 
HETATM   15  N3  UNL     1      22.495   1.826  52.993  1.00  0.00    -0.367 N 
HETATM   16  C11 UNL     1      22.384   2.429  51.650  1.00  0.00     0.029 C 
HETATM   17  C12 UNL     1      23.119   3.268  52.368  1.00  0.00     0.031 C 
HETATM   18  C13 UNL     1      21.757   1.636  50.616  1.00  0.00     0.027 C 
HETATM   19  C14 UNL     1      22.199   1.708  49.321  1.00  0.00     0.002 C 
HETATM   20  C15 UNL     1      23.287   2.595  49.459  1.00  0.00     0.203 C 
HETATM   21  O3  UNL     1      23.683   3.806  49.035  1.00  0.00    -0.350 OA
HETATM   22  H12 UNL     1      22.188   1.980  54.008  1.00  0.00     0.161 HD
ENDROOT
TORSDOF 0
ENDMDL
MODEL 9
REMARK VINA RESULT:      -6.7     11.557     14.013
REMARK  0 active torsions:
REMARK  status: ('A' for Active; 'I' for Inactive)
ROOT
HETATM    1  C1  UNL     1      33.800   5.695  48.256  1.00  0.00     0.026 C 
HETATM    2  C2  UNL     1      32.953   6.353  49.141  1.00  0.00     0.135 C 
HETATM    3  O1  UNL     1      31.649   6.033  49.814  1.00  0.00    -0.357 OA
HETATM    4  C3  UNL     1      30.632   6.546  48.771  1.00  0.00     0.238 C 
HETATM    5  C4  UNL     1      31.390   6.053  47.573  1.00  0.00     0.069 C 
HETATM    6  C5  UNL     1      31.856   6.986  46.662  1.00  0.00     0.047 C 
HETATM    7  C6  UNL     1      32.656   6.638  45.428  1.00  0.00     0.301 A 
HETATM    8  C7  UNL     1      33.301   7.084  44.317  1.00  0.00     0.260 A 
HETATM    9  C8  UNL     1      33.670   8.204  43.516  1.00  0.00     0.199 A 
HETATM   10  N1  UNL     1      34.726   7.433  42.730  1.00  0.00    -0.273 NA
HETATM   11  C9  UNL     1      34.594   6.194  43.297  1.00  0.00     0.351 A 
HETATM   12  N2  UNL     1      33.648   5.762  44.411  1.00  0.00     0.112 N 
HETATM   13  O2  UNL     1      34.051   4.540  44.418  1.00  0.00    -0.176 OA
HETATM   14  C10 UNL     1      35.089   3.897  44.815  1.00  0.00     0.331 C 
HETATM   15  N3  UNL     1      35.520   3.889  46.223  1.00  0.00    -0.367 N 
HETATM   16  C11 UNL     1      34.260   3.670  46.960  1.00  0.00     0.029 C 
HETATM   17  C12 UNL     1      34.667   4.890  47.285  1.00  0.00     0.031 C 
HETATM   18  C13 UNL     1      33.519   2.464  46.663  1.00  0.00     0.027 C 
HETATM   19  C14 UNL     1      32.148   2.471  46.675  1.00  0.00     0.002 C 
HETATM   20  C15 UNL     1      31.890   3.831  46.949  1.00  0.00     0.203 C 
HETATM   21  O3  UNL     1      31.311   4.596  47.888  1.00  0.00    -0.350 OA
HETATM   22  H12 UNL     1      36.572   4.015  46.381  1.00  0.00     0.161 HD
ENDROOT
TORSDOF 0
ENDMDL
