MODEL 1
REMARK VINA RESULT:      -8.7      0.000      0.000
REMARK  2 active torsions:
REMARK  status: ('A' for Active; 'I' for Inactive)
REMARK    1  A    between atoms: O1_2  and  C2_3 
REMARK    2  A    between atoms: N3_14  and  C10_15 
ROOT
HETATM    1  C2  UNL     1      22.726   2.078  49.775  1.00  0.00     0.102 A 
HETATM    2  C3  UNL     1      23.967   2.656  49.767  1.00  0.00     0.049 A 
HETATM    3  C4  UNL     1      24.288   3.166  50.978  1.00  0.00    -0.029 A 
HETATM    4  C5  UNL     1      23.628   3.230  52.186  1.00  0.00    -0.030 A 
HETATM    5  C6  UNL     1      22.359   2.635  52.175  1.00  0.00     0.049 A 
HETATM    6  C7  UNL     1      22.010   2.085  50.928  1.00  0.00     0.110 A 
HETATM    7  O2  UNL     1      20.744   1.554  51.325  1.00  0.00    -0.301 OA
HETATM    8  C8  UNL     1      21.099   0.369  52.168  1.00  0.00     0.260 C 
HETATM    9  N1  UNL     1      22.285   0.401  52.480  1.00  0.00    -0.228 NA
HETATM   10  C9  UNL     1      23.302  -0.164  53.118  1.00  0.00     0.257 C 
HETATM   11  N2  UNL     1      24.461  -0.308  53.541  1.00  0.00    -0.159 NA
HETATM   12  N3  UNL     1      25.566   0.515  53.359  1.00  0.00    -0.217 N 
HETATM   13  C16 UNL     1      25.732   1.933  53.030  1.00  0.00     0.123 C 
HETATM   14  C17 UNL     1      26.324   2.278  51.840  1.00  0.00     0.044 C 
HETATM   15  C18 UNL     1      25.795   3.463  51.009  1.00  0.00     0.117 C 
HETATM   16 BR1  UNL     1      26.560   3.369  49.283  1.00  0.00    -0.082 Br
HETATM   17  N4  UNL     1      25.239   2.935  53.967  1.00  0.00    -0.371 N 
HETATM   18  C19 UNL     1      24.147   3.819  53.489  1.00  0.00     0.160 C 
HETATM   19  H15 UNL     1      25.510   3.171  54.955  1.00  0.00     0.161 HD
ENDROOT
BRANCH  12  20
HETATM   20  C10 UNL     1      26.926   0.138  53.433  1.00  0.00     0.060 A 
HETATM   21  C11 UNL     1      28.104   0.724  53.841  1.00  0.00     0.031 A 
HETATM   22  C12 UNL     1      29.319   0.091  53.788  1.00  0.00     0.002 A 
HETATM   23  C13 UNL     1      29.442  -1.196  53.315  1.00  0.00     0.000 A 
HETATM   24  C14 UNL     1      28.291  -1.835  52.891  1.00  0.00     0.002 A 
HETATM   25  C15 UNL     1      27.069  -1.155  52.960  1.00  0.00     0.031 A 
ENDBRANCH  12  20
BRANCH   1  26
HETATM   26  O1  UNL     1      22.029   1.451  48.763  1.00  0.00    -0.353 OA
HETATM   27  C1  UNL     1      21.248   2.260  47.909  1.00  0.00     0.210 C 
ENDBRANCH   1  26
TORSDOF 2
ENDMDL
MODEL 2
REMARK VINA RESULT:      -8.4      2.993      6.248
REMARK  2 active torsions:
REMARK  status: ('A' for Active; 'I' for Inactive)
REMARK    1  A    between atoms: O1_2  and  C2_3 
REMARK    2  A    between atoms: N3_14  and  C10_15 
ROOT
HETATM    1  C2  UNL     1      25.421   0.054  53.549  1.00  0.00     0.102 A 
HETATM    2  C3  UNL     1      24.084   0.192  53.288  1.00  0.00     0.049 A 
HETATM    3  C4  UNL     1      23.707   1.491  53.296  1.00  0.00    -0.029 A 
HETATM    4  C5  UNL     1      24.379   2.674  53.519  1.00  0.00    -0.030 A 
HETATM    5  C6  UNL     1      25.745   2.512  53.787  1.00  0.00     0.049 A 
HETATM    6  C7  UNL     1      26.163   1.169  53.770  1.00  0.00     0.110 A 
HETATM    7  O2  UNL     1      27.549   1.419  54.016  1.00  0.00    -0.301 OA
HETATM    8  C8  UNL     1      28.048   1.981  52.721  1.00  0.00     0.260 C 
HETATM    9  N1  UNL     1      27.109   2.308  52.002  1.00  0.00    -0.228 NA
HETATM   10  C9  UNL     1      26.691   2.817  50.850  1.00  0.00     0.257 C 
HETATM   11  N2  UNL     1      25.889   3.214  49.988  1.00  0.00    -0.159 NA
HETATM   12  N3  UNL     1      24.500   3.236  50.031  1.00  0.00    -0.217 N 
HETATM   13  C16 UNL     1      23.518   3.235  51.118  1.00  0.00     0.123 C 
HETATM   14  C17 UNL     1      22.674   2.160  51.255  1.00  0.00     0.044 C 
HETATM   15  C18 UNL     1      22.318   1.609  52.649  1.00  0.00     0.117 C 
HETATM   16 BR1  UNL     1      21.505  -0.083  52.430  1.00  0.00    -0.082 Br
HETATM   17  N4  UNL     1      23.486   4.365  52.038  1.00  0.00    -0.371 N 
HETATM   18  C19 UNL     1      23.808   4.083  53.458  1.00  0.00     0.160 C 
HETATM   19  H15 UNL     1      23.273   5.385  51.895  1.00  0.00     0.161 HD
ENDROOT
BRANCH  12  20
HETATM   20  C10 UNL     1      23.617   3.242  48.927  1.00  0.00     0.060 A 
HETATM   21  C11 UNL     1      22.958   2.297  48.172  1.00  0.00     0.031 A 
HETATM   22  C12 UNL     1      22.140   2.612  47.117  1.00  0.00     0.002 A 
HETATM   23  C13 UNL     1      21.921   3.917  46.739  1.00  0.00     0.000 A 
HETATM   24  C14 UNL     1      22.559   4.909  47.461  1.00  0.00     0.002 A 
HETATM   25  C15 UNL     1      23.386   4.548  48.531  1.00  0.00     0.031 A 
ENDBRANCH  12  20
BRANCH   1  26
HETATM   26  O1  UNL     1      26.199  -1.082  53.633  1.00  0.00    -0.353 OA
HETATM   27  C1  UNL     1      26.727  -1.604  52.431  1.00  0.00     0.210 C 
ENDBRANCH   1  26
TORSDOF 2
ENDMDL
MODEL 3
REMARK VINA RESULT:      -8.2      1.532      1.893
REMARK  2 active torsions:
REMARK  status: ('A' for Active; 'I' for Inactive)
REMARK    1  A    between atoms: O1_2  and  C2_3 
REMARK    2  A    between atoms: N3_14  and  C10_15 
ROOT
HETATM    1  C2  UNL     1      22.774   3.475  48.592  1.00  0.00     0.102 A 
HETATM    2  C3  UNL     1      24.052   3.834  48.928  1.00  0.00     0.049 A 
HETATM    3  C4  UNL     1      24.145   4.185  50.231  1.00  0.00    -0.029 A 
HETATM    4  C5  UNL     1      23.232   4.264  51.261  1.00  0.00    -0.030 A 
HETATM    5  C6  UNL     1      21.929   3.895  50.898  1.00  0.00     0.049 A 
HETATM    6  C7  UNL     1      21.812   3.512  49.548  1.00  0.00     0.110 A 
HETATM    7  O2  UNL     1      20.424   3.175  49.588  1.00  0.00    -0.301 OA
HETATM    8  C8  UNL     1      20.389   1.884  50.346  1.00  0.00     0.260 C 
HETATM    9  N1  UNL     1      21.458   1.690  50.916  1.00  0.00    -0.228 NA
HETATM   10  C9  UNL     1      22.199   0.911  51.695  1.00  0.00     0.257 C 
HETATM   11  N2  UNL     1      23.189   0.540  52.346  1.00  0.00    -0.159 NA
HETATM   12  N3  UNL     1      24.414   1.176  52.513  1.00  0.00    -0.217 N 
HETATM   13  C16 UNL     1      24.860   2.566  52.396  1.00  0.00     0.123 C 
HETATM   14  C17 UNL     1      25.763   2.899  51.416  1.00  0.00     0.044 C 
HETATM   15  C18 UNL     1      25.627   4.218  50.632  1.00  0.00     0.117 C 
HETATM   16 BR1  UNL     1      26.761   4.132  49.122  1.00  0.00    -0.082 Br
HETATM   17  N4  UNL     1      24.310   3.560  53.309  1.00  0.00    -0.371 N 
HETATM   18  C19 UNL     1      23.505   4.651  52.706  1.00  0.00     0.160 C 
HETATM   19  H15 UNL     1      24.367   3.668  54.353  1.00  0.00     0.161 HD
ENDROOT
BRANCH  12  20
HETATM   20  C10 UNL     1      25.647   0.569  52.843  1.00  0.00     0.060 A 
HETATM   21  C11 UNL     1      26.611  -0.157  52.180  1.00  0.00     0.031 A 
HETATM   22  C12 UNL     1      27.743  -0.640  52.786  1.00  0.00     0.002 A 
HETATM   23  C13 UNL     1      27.992  -0.424  54.123  1.00  0.00     0.000 A 
HETATM   24  C14 UNL     1      27.057   0.300  54.840  1.00  0.00     0.002 A 
HETATM   25  C15 UNL     1      25.915   0.775  54.186  1.00  0.00     0.031 A 
ENDBRANCH  12  20
BRANCH   1  26
HETATM   26  O1  UNL     1      22.255   3.058  47.384  1.00  0.00    -0.353 OA
HETATM   27  C1  UNL     1      21.903   4.052  46.445  1.00  0.00     0.210 C 
ENDBRANCH   1  26
TORSDOF 2
ENDMDL
MODEL 4
REMARK VINA RESULT:      -7.4      3.294      6.760
REMARK  2 active torsions:
REMARK  status: ('A' for Active; 'I' for Inactive)
REMARK    1  A    between atoms: O1_2  and  C2_3 
REMARK    2  A    between atoms: N3_14  and  C10_15 
ROOT
HETATM    1  C2  UNL     1      23.625   1.019  52.309  1.00  0.00     0.102 A 
HETATM    2  C3  UNL     1      24.113   1.786  51.286  1.00  0.00     0.049 A 
HETATM    3  C4  UNL     1      23.249   1.840  50.246  1.00  0.00    -0.029 A 
HETATM    4  C5  UNL     1      22.010   1.282  50.012  1.00  0.00    -0.030 A 
HETATM    5  C6  UNL     1      21.528   0.498  51.069  1.00  0.00     0.049 A 
HETATM    6  C7  UNL     1      22.406   0.440  52.168  1.00  0.00     0.110 A 
HETATM    7  O2  UNL     1      21.573  -0.361  53.008  1.00  0.00    -0.301 OA
HETATM    8  C8  UNL     1      20.492   0.579  53.444  1.00  0.00     0.260 C 
HETATM    9  N1  UNL     1      20.495   1.590  52.750  1.00  0.00    -0.228 NA
HETATM   10  C9  UNL     1      19.961   2.774  52.475  1.00  0.00     0.257 C 
HETATM   11  N2  UNL     1      19.796   3.856  51.887  1.00  0.00    -0.159 NA
HETATM   12  N3  UNL     1      20.492   4.375  50.801  1.00  0.00    -0.217 N 
HETATM   13  C16 UNL     1      21.301   3.780  49.735  1.00  0.00     0.123 C 
HETATM   14  C17 UNL     1      22.642   4.071  49.670  1.00  0.00     0.044 C 
HETATM   15  C18 UNL     1      23.669   2.982  49.309  1.00  0.00     0.117 C 
HETATM   16 BR1  UNL     1      25.395   3.629  49.728  1.00  0.00    -0.082 Br
HETATM   17  N4  UNL     1      20.660   2.874  48.790  1.00  0.00    -0.371 N 
HETATM   18  C19 UNL     1      21.134   1.468  48.782  1.00  0.00     0.160 C 
HETATM   19  H15 UNL     1      19.897   3.018  48.081  1.00  0.00     0.161 HD
ENDROOT
BRANCH  12  20
HETATM   20  C10 UNL     1      20.618   5.738  50.448  1.00  0.00     0.060 A 
HETATM   21  C11 UNL     1      21.470   6.775  50.758  1.00  0.00     0.031 A 
HETATM   22  C12 UNL     1      21.336   8.040  50.246  1.00  0.00     0.002 A 
HETATM   23  C13 UNL     1      20.321   8.360  49.371  1.00  0.00     0.000 A 
HETATM   24  C14 UNL     1      19.435   7.357  49.024  1.00  0.00     0.002 A 
HETATM   25  C15 UNL     1      19.604   6.079  49.568  1.00  0.00     0.031 A 
ENDBRANCH  12  20
BRANCH   1  26
HETATM   26  O1  UNL     1      24.181   0.709  53.533  1.00  0.00    -0.353 OA
HETATM   27  C1  UNL     1      25.099  -0.362  53.581  1.00  0.00     0.210 C 
ENDBRANCH   1  26
TORSDOF 2
ENDMDL
MODEL 5
REMARK VINA RESULT:      -7.3      3.383      5.112
REMARK  2 active torsions:
REMARK  status: ('A' for Active; 'I' for Inactive)
REMARK    1  A    between atoms: O1_2  and  C2_3 
REMARK    2  A    between atoms: N3_14  and  C10_15 
ROOT
HETATM    1  C2  UNL     1      22.219   6.060  48.642  1.00  0.00     0.102 A 
HETATM    2  C3  UNL     1      22.112   4.738  48.301  1.00  0.00     0.049 A 
HETATM    3  C4  UNL     1      23.253   4.060  48.566  1.00  0.00    -0.029 A 
HETATM    4  C5  UNL     1      24.476   4.426  49.086  1.00  0.00    -0.030 A 
HETATM    5  C6  UNL     1      24.567   5.783  49.427  1.00  0.00     0.049 A 
HETATM    6  C7  UNL     1      23.386   6.505  49.173  1.00  0.00     0.110 A 
HETATM    7  O2  UNL     1      23.843   7.761  49.680  1.00  0.00    -0.301 OA
HETATM    8  C8  UNL     1      23.850   7.567  51.165  1.00  0.00     0.260 C 
HETATM    9  N1  UNL     1      23.756   6.377  51.446  1.00  0.00    -0.228 NA
HETATM   10  C9  UNL     1      23.691   5.437  52.381  1.00  0.00     0.257 C 
HETATM   11  N2  UNL     1      23.612   4.297  52.865  1.00  0.00    -0.159 NA
HETATM   12  N3  UNL     1      23.523   3.073  52.211  1.00  0.00    -0.217 N 
HETATM   13  C16 UNL     1      23.891   2.611  50.870  1.00  0.00     0.123 C 
HETATM   14  C17 UNL     1      22.902   2.198  50.010  1.00  0.00     0.044 C 
HETATM   15  C18 UNL     1      22.959   2.554  48.513  1.00  0.00     0.117 C 
HETATM   16 BR1  UNL     1      21.265   2.200  47.751  1.00  0.00    -0.082 Br
HETATM   17  N4  UNL     1      25.295   2.628  50.481  1.00  0.00    -0.371 N 
HETATM   18  C19 UNL     1      25.669   3.522  49.357  1.00  0.00     0.160 C 
HETATM   19  H15 UNL     1      26.135   2.114  50.848  1.00  0.00     0.161 HD
ENDROOT
BRANCH  12  20
HETATM   20  C10 UNL     1      22.982   1.873  52.725  1.00  0.00     0.060 A 
HETATM   21  C11 UNL     1      21.723   1.356  52.935  1.00  0.00     0.031 A 
HETATM   22  C12 UNL     1      21.497   0.116  53.476  1.00  0.00     0.002 A 
HETATM   23  C13 UNL     1      22.536  -0.706  53.852  1.00  0.00     0.000 A 
HETATM   24  C14 UNL     1      23.824  -0.238  53.664  1.00  0.00     0.002 A 
HETATM   25  C15 UNL     1      24.013   1.033  53.109  1.00  0.00     0.031 A 
ENDBRANCH  12  20
BRANCH   1  26
HETATM   26  O1  UNL     1      21.301   7.084  48.538  1.00  0.00    -0.353 OA
HETATM   27  C1  UNL     1      20.249   7.116  49.478  1.00  0.00     0.210 C 
ENDBRANCH   1  26
TORSDOF 2
ENDMDL
MODEL 6
REMARK VINA RESULT:      -7.2      8.022      9.321
REMARK  2 active torsions:
REMARK  status: ('A' for Active; 'I' for Inactive)
REMARK    1  A    between atoms: O1_2  and  C2_3 
REMARK    2  A    between atoms: N3_14  and  C10_15 
ROOT
HETATM    1  C2  UNL     1      28.226   8.683  45.729  1.00  0.00     0.102 A 
HETATM    2  C3  UNL     1      29.562   8.910  45.533  1.00  0.00     0.049 A 
HETATM    3  C4  UNL     1      30.228   9.015  46.706  1.00  0.00    -0.029 A 
HETATM    4  C5  UNL     1      29.838   8.953  48.027  1.00  0.00    -0.030 A 
HETATM    5  C6  UNL     1      28.467   8.723  48.208  1.00  0.00     0.049 A 
HETATM    6  C7  UNL     1      27.758   8.596  46.999  1.00  0.00     0.110 A 
HETATM    7  O2  UNL     1      26.480   8.327  47.581  1.00  0.00    -0.301 OA
HETATM    8  C8  UNL     1      26.604   6.925  48.090  1.00  0.00     0.260 C 
HETATM    9  N1  UNL     1      27.780   6.577  48.113  1.00  0.00    -0.228 NA
HETATM   10  C9  UNL     1      28.675   5.634  48.381  1.00  0.00     0.257 C 
HETATM   11  N2  UNL     1      29.792   5.102  48.487  1.00  0.00    -0.159 NA
HETATM   12  N3  UNL     1      31.044   5.634  48.202  1.00  0.00    -0.217 N 
HETATM   13  C16 UNL     1      31.569   6.999  48.104  1.00  0.00     0.123 C 
HETATM   14  C17 UNL     1      32.020   7.456  46.890  1.00  0.00     0.044 C 
HETATM   15  C18 UNL     1      31.735   8.900  46.435  1.00  0.00     0.117 C 
HETATM   16 BR1  UNL     1      32.123   9.030  44.590  1.00  0.00    -0.082 Br
HETATM   17  N4  UNL     1      31.571   7.838  49.295  1.00  0.00    -0.371 N 
HETATM   18  C19 UNL     1      30.729   9.060  49.256  1.00  0.00     0.160 C 
HETATM   19  H15 UNL     1      32.067   7.753  50.218  1.00  0.00     0.161 HD
ENDROOT
BRANCH  12  20
HETATM   20  C10 UNL     1      32.219   4.915  47.884  1.00  0.00     0.060 A 
HETATM   21  C11 UNL     1      33.555   4.992  48.210  1.00  0.00     0.031 A 
HETATM   22  C12 UNL     1      34.501   4.126  47.725  1.00  0.00     0.002 A 
HETATM   23  C13 UNL     1      34.169   3.104  46.863  1.00  0.00     0.000 A 
HETATM   24  C14 UNL     1      32.840   2.979  46.500  1.00  0.00     0.002 A 
HETATM   25  C15 UNL     1      31.904   3.883  47.016  1.00  0.00     0.031 A 
ENDBRANCH  12  20
BRANCH   1  26
HETATM   26  O1  UNL     1      27.208   8.517  44.814  1.00  0.00    -0.353 OA
HETATM   27  C1  UNL     1      27.230   9.326  43.656  1.00  0.00     0.210 C 
ENDBRANCH   1  26
TORSDOF 2
ENDMDL
MODEL 7
REMARK VINA RESULT:      -7.1      3.217      6.342
REMARK  2 active torsions:
REMARK  status: ('A' for Active; 'I' for Inactive)
REMARK    1  A    between atoms: O1_2  and  C2_3 
REMARK    2  A    between atoms: N3_14  and  C10_15 
ROOT
HETATM    1  C2  UNL     1      23.345   0.893  52.801  1.00  0.00     0.102 A 
HETATM    2  C3  UNL     1      22.281   1.723  52.566  1.00  0.00     0.049 A 
HETATM    3  C4  UNL     1      22.618   3.024  52.723  1.00  0.00    -0.029 A 
HETATM    4  C5  UNL     1      23.787   3.665  53.074  1.00  0.00    -0.030 A 
HETATM    5  C6  UNL     1      24.864   2.801  53.312  1.00  0.00     0.049 A 
HETATM    6  C7  UNL     1      24.538   1.442  53.141  1.00  0.00     0.110 A 
HETATM    7  O2  UNL     1      25.843   0.921  53.404  1.00  0.00    -0.301 OA
HETATM    8  C8  UNL     1      26.626   1.275  52.178  1.00  0.00     0.260 C 
HETATM    9  N1  UNL     1      26.024   2.107  51.507  1.00  0.00    -0.228 NA
HETATM   10  C9  UNL     1      25.984   2.871  50.422  1.00  0.00     0.257 C 
HETATM   11  N2  UNL     1      25.543   3.706  49.617  1.00  0.00    -0.159 NA
HETATM   12  N3  UNL     1      24.359   4.433  49.671  1.00  0.00    -0.217 N 
HETATM   13  C16 UNL     1      23.459   4.826  50.758  1.00  0.00     0.123 C 
HETATM   14  C17 UNL     1      22.179   4.328  50.778  1.00  0.00     0.044 C 
HETATM   15  C18 UNL     1      21.520   3.900  52.103  1.00  0.00     0.117 C 
HETATM   16 BR1  UNL     1      19.970   2.895  51.700  1.00  0.00    -0.082 Br
HETATM   17  N4  UNL     1      23.959   5.714  51.799  1.00  0.00    -0.371 N 
HETATM   18  C19 UNL     1      24.018   5.166  53.177  1.00  0.00     0.160 C 
HETATM   19  H15 UNL     1      24.303   6.707  51.774  1.00  0.00     0.161 HD
ENDROOT
BRANCH  12  20
HETATM   20  C10 UNL     1      23.662   5.001  48.581  1.00  0.00     0.060 A 
HETATM   21  C11 UNL     1      22.665   4.602  47.717  1.00  0.00     0.031 A 
HETATM   22  C12 UNL     1      22.174   5.398  46.714  1.00  0.00     0.002 A 
HETATM   23  C13 UNL     1      22.655   6.670  46.502  1.00  0.00     0.000 A 
HETATM   24  C14 UNL     1      23.658   7.124  47.339  1.00  0.00     0.002 A 
HETATM   25  C15 UNL     1      24.133   6.282  48.352  1.00  0.00     0.031 A 
ENDBRANCH  12  20
BRANCH   1  26
HETATM   26  O1  UNL     1      23.429  -0.482  52.751  1.00  0.00    -0.353 OA
HETATM   27  C1  UNL     1      22.312  -1.223  53.194  1.00  0.00     0.210 C 
ENDBRANCH   1  26
TORSDOF 2
ENDMDL
MODEL 8
REMARK VINA RESULT:      -7.0      9.697     11.237
REMARK  2 active torsions:
REMARK  status: ('A' for Active; 'I' for Inactive)
REMARK    1  A    between atoms: O1_2  and  C2_3 
REMARK    2  A    between atoms: N3_14  and  C10_15 
ROOT
HETATM    1  C2  UNL     1      30.225   9.747  45.899  1.00  0.00     0.102 A 
HETATM    2  C3  UNL     1      31.126   9.096  45.100  1.00  0.00     0.049 A 
HETATM    3  C4  UNL     1      32.382   9.173  45.598  1.00  0.00    -0.029 A 
HETATM    4  C5  UNL     1      32.925   9.772  46.715  1.00  0.00    -0.030 A 
HETATM    5  C6  UNL     1      31.988  10.435  47.519  1.00  0.00     0.049 A 
HETATM    6  C7  UNL     1      30.672  10.355  47.027  1.00  0.00     0.110 A 
HETATM    7  O2  UNL     1      30.047  11.065  48.098  1.00  0.00    -0.301 OA
HETATM    8  C8  UNL     1      30.078  10.096  49.239  1.00  0.00     0.260 C 
HETATM    9  N1  UNL     1      30.847   9.171  48.998  1.00  0.00    -0.228 NA
HETATM   10  C9  UNL     1      31.407   8.034  49.392  1.00  0.00     0.257 C 
HETATM   11  N2  UNL     1      32.135   7.029  49.342  1.00  0.00    -0.159 NA
HETATM   12  N3  UNL     1      33.002   6.628  48.331  1.00  0.00    -0.217 N 
HETATM   13  C16 UNL     1      33.690   7.331  47.246  1.00  0.00     0.123 C 
HETATM   14  C17 UNL     1      33.367   7.032  45.945  1.00  0.00     0.044 C 
HETATM   15  C18 UNL     1      33.265   8.141  44.881  1.00  0.00     0.117 C 
HETATM   16 BR1  UNL     1      32.406   7.427  43.356  1.00  0.00    -0.082 Br
HETATM   17  N4  UNL     1      34.678   8.348  47.582  1.00  0.00    -0.371 N 
HETATM   18  C19 UNL     1      34.379   9.739  47.161  1.00  0.00     0.160 C 
HETATM   19  H15 UNL     1      35.601   8.297  48.084  1.00  0.00     0.161 HD
ENDROOT
BRANCH  12  20
HETATM   20  C10 UNL     1      33.451   5.314  48.071  1.00  0.00     0.060 A 
HETATM   21  C11 UNL     1      34.659   4.652  48.080  1.00  0.00     0.031 A 
HETATM   22  C12 UNL     1      34.794   3.324  47.765  1.00  0.00     0.002 A 
HETATM   23  C13 UNL     1      33.708   2.552  47.415  1.00  0.00     0.000 A 
HETATM   24  C14 UNL     1      32.469   3.165  47.389  1.00  0.00     0.002 A 
HETATM   25  C15 UNL     1      32.372   4.522  47.716  1.00  0.00     0.031 A 
ENDBRANCH  12  20
BRANCH   1  26
HETATM   26  O1  UNL     1      28.863   9.907  45.758  1.00  0.00    -0.353 OA
HETATM   27  C1  UNL     1      28.033   8.838  46.162  1.00  0.00     0.210 C 
ENDBRANCH   1  26
TORSDOF 2
ENDMDL
MODEL 9
REMARK VINA RESULT:      -7.0      3.922      6.328
REMARK  2 active torsions:
REMARK  status: ('A' for Active; 'I' for Inactive)
REMARK    1  A    between atoms: O1_2  and  C2_3 
REMARK    2  A    between atoms: N3_14  and  C10_15 
ROOT
HETATM    1  C2  UNL     1      21.464   0.830  52.892  1.00  0.00     0.102 A 
HETATM    2  C3  UNL     1      22.722   1.218  52.516  1.00  0.00     0.049 A 
HETATM    3  C4  UNL     1      22.796   1.445  51.184  1.00  0.00    -0.029 A 
HETATM    4  C5  UNL     1      21.886   1.354  50.153  1.00  0.00    -0.030 A 
HETATM    5  C6  UNL     1      20.605   0.953  50.557  1.00  0.00     0.049 A 
HETATM    6  C7  UNL     1      20.501   0.725  51.942  1.00  0.00     0.110 A 
HETATM    7  O2  UNL     1      19.107   0.408  51.957  1.00  0.00    -0.301 OA
HETATM    8  C8  UNL     1      18.435   1.729  51.745  1.00  0.00     0.260 C 
HETATM    9  N1  UNL     1      19.242   2.565  51.351  1.00  0.00    -0.228 NA
HETATM   10  C9  UNL     1      19.481   3.813  50.968  1.00  0.00     0.257 C 
HETATM   11  N2  UNL     1      20.132   4.789  50.561  1.00  0.00    -0.159 NA
HETATM   12  N3  UNL     1      21.481   4.865  50.234  1.00  0.00    -0.217 N 
HETATM   13  C16 UNL     1      22.487   3.876  49.838  1.00  0.00     0.123 C 
HETATM   14  C17 UNL     1      23.557   3.643  50.667  1.00  0.00     0.044 C 
HETATM   15  C18 UNL     1      24.091   2.214  50.883  1.00  0.00     0.117 C 
HETATM   16 BR1  UNL     1      25.254   2.232  52.373  1.00  0.00    -0.082 Br
HETATM   17  N4  UNL     1      22.305   3.150  48.588  1.00  0.00    -0.371 N 
HETATM   18  C19 UNL     1      22.121   1.681  48.686  1.00  0.00     0.160 C 
HETATM   19  H15 UNL     1      22.276   3.467  47.586  1.00  0.00     0.161 HD
ENDROOT
BRANCH  12  20
HETATM   20  C10 UNL     1      22.289   6.025  50.227  1.00  0.00     0.060 A 
HETATM   21  C11 UNL     1      23.158   6.641  51.100  1.00  0.00     0.031 A 
HETATM   22  C12 UNL     1      23.819   7.807  50.809  1.00  0.00     0.002 A 
HETATM   23  C13 UNL     1      23.652   8.449  49.602  1.00  0.00     0.000 A 
HETATM   24  C14 UNL     1      22.790   7.875  48.686  1.00  0.00     0.002 A 
HETATM   25  C15 UNL     1      22.134   6.685  49.019  1.00  0.00     0.031 A 
ENDBRANCH  12  20
BRANCH   1  26
HETATM   26  O1  UNL     1      20.967   0.506  54.138  1.00  0.00    -0.353 OA
HETATM   27  C1  UNL     1      21.614  -0.526  54.851  1.00  0.00     0.210 C 
ENDBRANCH   1  26
TORSDOF 2
ENDMDL
