MODEL 1
REMARK VINA RESULT:      -6.6      0.000      0.000
REMARK  4 active torsions:
REMARK  status: ('A' for Active; 'I' for Inactive)
REMARK    1  A    between atoms: C3_5  and  O1_6 
REMARK    2  A    between atoms: C3_5  and  C4_7 
REMARK    3  A    between atoms: C8_12  and  N3_13 
REMARK    4  A    between atoms: N3_13  and  C9_14 
ROOT
HETATM    1  C4  UNL     1      23.984   3.616  51.468  1.00  0.00     0.062 C 
HETATM    2  C5  UNL     1      25.171   3.732  50.620  1.00  0.00    -0.016 C 
HETATM    3  C6  UNL     1      26.365   3.112  50.621  1.00  0.00     0.015 C 
HETATM    4  C7  UNL     1      26.785   2.064  51.577  1.00  0.00     0.112 C 
HETATM    5  N2  UNL     1      26.042   1.258  52.285  1.00  0.00    -0.276 NA
HETATM    6  C8  UNL     1      24.572   1.306  52.201  1.00  0.00     0.207 C 
HETATM    7  C14 UNL     1      24.205   2.696  52.651  1.00  0.00     0.061 C 
ENDROOT
BRANCH   1   8
HETATM    8  C3  UNL     1      23.457   4.907  52.020  1.00  0.00     0.128 C 
HETATM    9  N1  UNL     1      22.080   5.211  51.901  1.00  0.00    -0.264 NA
HETATM   10  C1  UNL     1      21.096   4.202  52.070  1.00  0.00     0.119 C 
HETATM   11  P1  UNL     1      22.202   6.053  50.355  1.00  0.00    -0.048 P 
HETATM   12  C2  UNL     1      23.826   6.141  51.228  1.00  0.00     0.103 C 
HETATM   13  H4  UNL     1      21.500   7.319  50.274  1.00  0.00     0.074 HD
BRANCH   8  14
HETATM   14  O1  UNL     1      23.859   5.049  53.369  1.00  0.00    -0.374 OA
HETATM   15  H7  UNL     1      23.204   4.634  53.983  1.00  0.00     0.212 HD
ENDBRANCH   8  14
ENDBRANCH   1   8
BRANCH   6  16
HETATM   16  N3  UNL     1      23.973   0.288  53.027  1.00  0.00    -0.352 N 
HETATM   17  H13 UNL     1      24.512  -0.304  53.688  1.00  0.00     0.163 HD
BRANCH  16  18
HETATM   18  C9  UNL     1      22.557   0.273  52.755  1.00  0.00     0.124 A 
HETATM   19  C10 UNL     1      21.887   0.328  51.554  1.00  0.00     0.050 A 
HETATM   20  C11 UNL     1      20.492   0.307  51.626  1.00  0.00     0.005 A 
HETATM   21  C12 UNL     1      19.854   0.235  52.832  1.00  0.00     0.019 A 
HETATM   22  C13 UNL     1      20.566   0.182  54.026  1.00  0.00     0.119 A 
HETATM   23  N4  UNL     1      21.907   0.203  53.937  1.00  0.00    -0.244 NA
ENDBRANCH  16  18
ENDBRANCH   6  16
TORSDOF 4
ENDMDL
MODEL 2
REMARK VINA RESULT:      -6.5      2.631      4.609
REMARK  4 active torsions:
REMARK  status: ('A' for Active; 'I' for Inactive)
REMARK    1  A    between atoms: C3_5  and  O1_6 
REMARK    2  A    between atoms: C3_5  and  C4_7 
REMARK    3  A    between atoms: C8_12  and  N3_13 
REMARK    4  A    between atoms: N3_13  and  C9_14 
ROOT
HETATM    1  C4  UNL     1      22.390   2.057  51.407  1.00  0.00     0.062 C 
HETATM    2  C5  UNL     1      22.579   2.214  49.964  1.00  0.00    -0.016 C 
HETATM    3  C6  UNL     1      23.480   2.884  49.223  1.00  0.00     0.015 C 
HETATM    4  C7  UNL     1      24.597   3.693  49.758  1.00  0.00     0.112 C 
HETATM    5  N2  UNL     1      25.189   3.604  50.918  1.00  0.00    -0.276 NA
HETATM    6  C8  UNL     1      24.772   2.599  51.911  1.00  0.00     0.207 C 
HETATM    7  C14 UNL     1      23.334   2.927  52.213  1.00  0.00     0.061 C 
ENDROOT
BRANCH   1   8
HETATM    8  C3  UNL     1      21.007   2.341  51.911  1.00  0.00     0.128 C 
HETATM    9  N1  UNL     1      20.345   1.388  52.720  1.00  0.00    -0.264 NA
HETATM   10  C1  UNL     1      21.054   0.656  53.708  1.00  0.00     0.119 C 
HETATM   11  P1  UNL     1      19.562   0.523  51.395  1.00  0.00    -0.048 P 
HETATM   12  C2  UNL     1      19.915   2.257  50.869  1.00  0.00     0.103 C 
HETATM   13  H4  UNL     1      18.154   0.233  51.583  1.00  0.00     0.074 HD
BRANCH   8  14
HETATM   14  O1  UNL     1      20.982   3.604  52.550  1.00  0.00    -0.374 OA
HETATM   15  H7  UNL     1      21.495   3.587  53.396  1.00  0.00     0.212 HD
ENDBRANCH   8  14
ENDBRANCH   1   8
BRANCH   6  16
HETATM   16  N3  UNL     1      25.605   2.656  53.086  1.00  0.00    -0.352 N 
HETATM   17  H13 UNL     1      25.593   3.447  53.759  1.00  0.00     0.163 HD
BRANCH  16  18
HETATM   18  C9  UNL     1      26.402   1.456  53.123  1.00  0.00     0.124 A 
HETATM   19  C10 UNL     1      26.347   0.333  52.328  1.00  0.00     0.050 A 
HETATM   20  C11 UNL     1      27.261  -0.680  52.629  1.00  0.00     0.005 A 
HETATM   21  C12 UNL     1      28.148  -0.539  53.659  1.00  0.00     0.019 A 
HETATM   22  C13 UNL     1      28.173   0.611  54.442  1.00  0.00     0.119 A 
HETATM   23  N4  UNL     1      27.287   1.575  54.137  1.00  0.00    -0.244 NA
ENDBRANCH  16  18
ENDBRANCH   6  16
TORSDOF 4
ENDMDL
MODEL 3
REMARK VINA RESULT:      -6.4      2.942      5.115
REMARK  4 active torsions:
REMARK  status: ('A' for Active; 'I' for Inactive)
REMARK    1  A    between atoms: C3_5  and  O1_6 
REMARK    2  A    between atoms: C3_5  and  C4_7 
REMARK    3  A    between atoms: C8_12  and  N3_13 
REMARK    4  A    between atoms: N3_13  and  C9_14 
ROOT
HETATM    1  C4  UNL     1      24.387   0.885  52.930  1.00  0.00     0.062 C 
HETATM    2  C5  UNL     1      24.005  -0.355  53.608  1.00  0.00    -0.016 C 
HETATM    3  C6  UNL     1      22.861  -0.777  54.175  1.00  0.00     0.015 C 
HETATM    4  C7  UNL     1      21.603  -0.002  54.244  1.00  0.00     0.112 C 
HETATM    5  N2  UNL     1      21.200   0.974  53.477  1.00  0.00    -0.276 NA
HETATM    6  C8  UNL     1      22.027   1.453  52.356  1.00  0.00     0.207 C 
HETATM    7  C14 UNL     1      23.301   1.940  52.997  1.00  0.00     0.061 C 
ENDROOT
BRANCH   1   8
HETATM    8  C3  UNL     1      25.645   1.532  53.429  1.00  0.00     0.128 C 
HETATM    9  N1  UNL     1      26.777   1.610  52.585  1.00  0.00    -0.264 NA
HETATM   10  C1  UNL     1      26.633   1.891  51.201  1.00  0.00     0.119 C 
HETATM   11  P1  UNL     1      27.498   0.080  53.089  1.00  0.00    -0.048 P 
HETATM   12  C2  UNL     1      26.422   0.725  54.444  1.00  0.00     0.103 C 
HETATM   13  H4  UNL     1      28.917   0.124  53.384  1.00  0.00     0.074 HD
BRANCH   8  14
HETATM   14  O1  UNL     1      25.349   2.817  53.946  1.00  0.00    -0.374 OA
HETATM   15  H7  UNL     1      25.271   3.484  53.219  1.00  0.00     0.212 HD
ENDBRANCH   8  14
ENDBRANCH   1   8
BRANCH   6  16
HETATM   16  N3  UNL     1      21.352   2.494  51.623  1.00  0.00    -0.352 N 
HETATM   17  H13 UNL     1      20.768   3.225  52.072  1.00  0.00     0.163 HD
BRANCH  16  18
HETATM   18  C9  UNL     1      21.646   2.311  50.223  1.00  0.00     0.124 A 
HETATM   19  C10 UNL     1      21.480   1.204  49.422  1.00  0.00     0.050 A 
HETATM   20  C11 UNL     1      21.878   1.343  48.090  1.00  0.00     0.005 A 
HETATM   21  C12 UNL     1      22.399   2.521  47.634  1.00  0.00     0.019 A 
HETATM   22  C13 UNL     1      22.553   3.619  48.474  1.00  0.00     0.119 A 
HETATM   23  N4  UNL     1      22.164   3.466  49.752  1.00  0.00    -0.244 NA
ENDBRANCH  16  18
ENDBRANCH   6  16
TORSDOF 4
ENDMDL
MODEL 4
REMARK VINA RESULT:      -6.3      2.280      4.949
REMARK  4 active torsions:
REMARK  status: ('A' for Active; 'I' for Inactive)
REMARK    1  A    between atoms: C3_5  and  O1_6 
REMARK    2  A    between atoms: C3_5  and  C4_7 
REMARK    3  A    between atoms: C8_12  and  N3_13 
REMARK    4  A    between atoms: N3_13  and  C9_14 
ROOT
HETATM    1  C4  UNL     1      23.608   2.276  52.078  1.00  0.00     0.062 C 
HETATM    2  C5  UNL     1      22.492   2.001  52.984  1.00  0.00    -0.016 C 
HETATM    3  C6  UNL     1      22.042   0.880  53.575  1.00  0.00     0.015 C 
HETATM    4  C7  UNL     1      22.642  -0.465  53.427  1.00  0.00     0.112 C 
HETATM    5  N2  UNL     1      23.863  -0.784  53.096  1.00  0.00    -0.276 NA
HETATM    6  C8  UNL     1      24.870   0.252  52.808  1.00  0.00     0.207 C 
HETATM    7  C14 UNL     1      24.316   1.012  51.632  1.00  0.00     0.061 C 
ENDROOT
BRANCH   1   8
HETATM    8  C3  UNL     1      23.257   3.034  50.833  1.00  0.00     0.128 C 
HETATM    9  N1  UNL     1      24.112   4.063  50.373  1.00  0.00    -0.264 NA
HETATM   10  C1  UNL     1      25.523   3.922  50.444  1.00  0.00     0.119 C 
HETATM   11  P1  UNL     1      23.326   5.374  51.256  1.00  0.00    -0.048 P 
HETATM   12  C2  UNL     1      22.112   4.010  50.978  1.00  0.00     0.103 C 
HETATM   13  H4  UNL     1      23.059   6.575  50.489  1.00  0.00     0.074 HD
BRANCH   8  14
HETATM   14  O1  UNL     1      22.999   2.126  49.778  1.00  0.00    -0.374 OA
HETATM   15  H7  UNL     1      22.179   2.377  49.283  1.00  0.00     0.212 HD
ENDBRANCH   8  14
ENDBRANCH   1   8
BRANCH   6  16
HETATM   16  N3  UNL     1      26.153  -0.339  52.523  1.00  0.00    -0.352 N 
HETATM   17  H13 UNL     1      26.273  -1.213  51.975  1.00  0.00     0.163 HD
BRANCH  16  18
HETATM   18  C9  UNL     1      27.167   0.494  53.120  1.00  0.00     0.124 A 
HETATM   19  C10 UNL     1      27.545   1.782  52.815  1.00  0.00     0.050 A 
HETATM   20  C11 UNL     1      28.585   2.316  53.582  1.00  0.00     0.005 A 
HETATM   21  C12 UNL     1      29.175   1.580  54.570  1.00  0.00     0.019 A 
HETATM   22  C13 UNL     1      28.765   0.280  54.849  1.00  0.00     0.119 A 
HETATM   23  N4  UNL     1      27.764  -0.216  54.102  1.00  0.00    -0.244 NA
ENDBRANCH  16  18
ENDBRANCH   6  16
TORSDOF 4
ENDMDL
MODEL 5
REMARK VINA RESULT:      -6.2      1.776      2.545
REMARK  4 active torsions:
REMARK  status: ('A' for Active; 'I' for Inactive)
REMARK    1  A    between atoms: C3_5  and  O1_6 
REMARK    2  A    between atoms: C3_5  and  C4_7 
REMARK    3  A    between atoms: C8_12  and  N3_13 
REMARK    4  A    between atoms: N3_13  and  C9_14 
ROOT
HETATM    1  C4  UNL     1      24.540   1.545  51.972  1.00  0.00     0.062 C 
HETATM    2  C5  UNL     1      25.710   0.679  51.819  1.00  0.00    -0.016 C 
HETATM    3  C6  UNL     1      26.215  -0.324  52.561  1.00  0.00     0.015 C 
HETATM    4  C7  UNL     1      25.636  -0.827  53.826  1.00  0.00     0.112 C 
HETATM    5  N2  UNL     1      24.406  -0.746  54.253  1.00  0.00    -0.276 NA
HETATM    6  C8  UNL     1      23.363  -0.085  53.449  1.00  0.00     0.207 C 
HETATM    7  C14 UNL     1      23.836   1.338  53.298  1.00  0.00     0.061 C 
ENDROOT
BRANCH   1   8
HETATM    8  C3  UNL     1      24.806   3.016  51.853  1.00  0.00     0.128 C 
HETATM    9  N1  UNL     1      23.953   3.822  51.063  1.00  0.00    -0.264 NA
HETATM   10  C1  UNL     1      22.550   3.606  51.056  1.00  0.00     0.119 C 
HETATM   11  P1  UNL     1      24.865   3.651  49.561  1.00  0.00    -0.048 P 
HETATM   12  C2  UNL     1      25.995   3.385  50.996  1.00  0.00     0.103 C 
HETATM   13  H4  UNL     1      25.106   4.880  48.831  1.00  0.00     0.074 HD
BRANCH   8  14
HETATM   14  O1  UNL     1      24.935   3.585  53.143  1.00  0.00    -0.374 OA
HETATM   15  H7  UNL     1      25.880   3.597  53.435  1.00  0.00     0.212 HD
ENDBRANCH   8  14
ENDBRANCH   1   8
BRANCH   6  16
HETATM   16  N3  UNL     1      22.079  -0.168  54.098  1.00  0.00    -0.352 N 
HETATM   17  H13 UNL     1      21.961  -0.272  55.124  1.00  0.00     0.163 HD
BRANCH  16  18
HETATM   18  C9  UNL     1      21.062  -0.080  53.080  1.00  0.00     0.124 A 
HETATM   19  C10 UNL     1      21.149   0.362  51.779  1.00  0.00     0.050 A 
HETATM   20  C11 UNL     1      19.965   0.334  51.038  1.00  0.00     0.005 A 
HETATM   21  C12 UNL     1      18.800  -0.110  51.598  1.00  0.00     0.019 A 
HETATM   22  C13 UNL     1      18.750  -0.549  52.917  1.00  0.00     0.119 A 
HETATM   23  N4  UNL     1      19.900  -0.515  53.614  1.00  0.00    -0.244 NA
ENDBRANCH  16  18
ENDBRANCH   6  16
TORSDOF 4
ENDMDL
MODEL 6
REMARK VINA RESULT:      -6.2      2.546      5.024
REMARK  4 active torsions:
REMARK  status: ('A' for Active; 'I' for Inactive)
REMARK    1  A    between atoms: C3_5  and  O1_6 
REMARK    2  A    between atoms: C3_5  and  C4_7 
REMARK    3  A    between atoms: C8_12  and  N3_13 
REMARK    4  A    between atoms: N3_13  and  C9_14 
ROOT
HETATM    1  C4  UNL     1      24.727   3.960  50.993  1.00  0.00     0.062 C 
HETATM    2  C5  UNL     1      23.664   4.087  51.992  1.00  0.00    -0.016 C 
HETATM    3  C6  UNL     1      22.976   3.191  52.721  1.00  0.00     0.015 C 
HETATM    4  C7  UNL     1      23.162   1.724  52.672  1.00  0.00     0.112 C 
HETATM    5  N2  UNL     1      24.212   1.045  52.298  1.00  0.00    -0.276 NA
HETATM    6  C8  UNL     1      25.437   1.725  51.843  1.00  0.00     0.207 C 
HETATM    7  C14 UNL     1      25.013   2.516  50.634  1.00  0.00     0.061 C 
ENDROOT
BRANCH   1   8
HETATM    8  C3  UNL     1      24.491   4.686  49.703  1.00  0.00     0.128 C 
HETATM    9  N1  UNL     1      25.566   5.342  49.059  1.00  0.00    -0.264 NA
HETATM   10  C1  UNL     1      26.860   4.757  49.028  1.00  0.00     0.119 C 
HETATM   11  P1  UNL     1      25.338   6.904  49.848  1.00  0.00    -0.048 P 
HETATM   12  C2  UNL     1      23.735   5.989  49.829  1.00  0.00     0.103 C 
HETATM   13  H4  UNL     1      25.375   8.059  48.972  1.00  0.00     0.074 HD
BRANCH   8  14
HETATM   14  O1  UNL     1      23.840   3.827  48.784  1.00  0.00    -0.374 OA
HETATM   15  H7  UNL     1      23.024   4.249  48.418  1.00  0.00     0.212 HD
ENDBRANCH   8  14
ENDBRANCH   1   8
BRANCH   6  16
HETATM   16  N3  UNL     1      26.475   0.772  51.538  1.00  0.00    -0.352 N 
HETATM   17  H13 UNL     1      26.489   0.197  50.674  1.00  0.00     0.163 HD
BRANCH  16  18
HETATM   18  C9  UNL     1      27.428   0.793  52.620  1.00  0.00     0.124 A 
HETATM   19  C10 UNL     1      27.832  -0.220  53.461  1.00  0.00     0.050 A 
HETATM   20  C11 UNL     1      28.776   0.126  54.431  1.00  0.00     0.005 A 
HETATM   21  C12 UNL     1      29.253   1.404  54.519  1.00  0.00     0.019 A 
HETATM   22  C13 UNL     1      28.820   2.401  53.651  1.00  0.00     0.119 A 
HETATM   23  N4  UNL     1      27.912   2.049  52.724  1.00  0.00    -0.244 NA
ENDBRANCH  16  18
ENDBRANCH   6  16
TORSDOF 4
ENDMDL
MODEL 7
REMARK VINA RESULT:      -6.0      9.380     11.111
REMARK  4 active torsions:
REMARK  status: ('A' for Active; 'I' for Inactive)
REMARK    1  A    between atoms: C3_5  and  O1_6 
REMARK    2  A    between atoms: C3_5  and  C4_7 
REMARK    3  A    between atoms: C8_12  and  N3_13 
REMARK    4  A    between atoms: N3_13  and  C9_14 
ROOT
HETATM    1  C4  UNL     1      31.322   9.040  48.304  1.00  0.00     0.062 C 
HETATM    2  C5  UNL     1      32.242   9.740  47.406  1.00  0.00    -0.016 C 
HETATM    3  C6  UNL     1      33.569   9.661  47.205  1.00  0.00     0.015 C 
HETATM    4  C7  UNL     1      34.490   8.751  47.922  1.00  0.00     0.112 C 
HETATM    5  N2  UNL     1      34.223   7.625  48.525  1.00  0.00    -0.276 NA
HETATM    6  C8  UNL     1      32.852   7.087  48.561  1.00  0.00     0.207 C 
HETATM    7  C14 UNL     1      32.045   8.135  49.282  1.00  0.00     0.061 C 
ENDROOT
BRANCH   1   8
HETATM    8  C3  UNL     1      30.421   9.920  49.118  1.00  0.00     0.128 C 
HETATM    9  N1  UNL     1      29.018   9.785  49.004  1.00  0.00    -0.264 NA
HETATM   10  C1  UNL     1      28.419   8.504  48.877  1.00  0.00     0.119 C 
HETATM   11  P1  UNL     1      28.816  10.969  47.711  1.00  0.00    -0.048 P 
HETATM   12  C2  UNL     1      30.348  11.360  48.663  1.00  0.00     0.103 C 
HETATM   13  H4  UNL     1      27.740  11.922  47.896  1.00  0.00     0.074 HD
BRANCH   8  14
HETATM   14  O1  UNL     1      30.795   9.853  50.483  1.00  0.00    -0.374 OA
HETATM   15  H7  UNL     1      30.146  10.334  51.054  1.00  0.00     0.212 HD
ENDBRANCH   8  14
ENDBRANCH   1   8
BRANCH   6  16
HETATM   16  N3  UNL     1      32.814   5.811  49.231  1.00  0.00    -0.352 N 
HETATM   17  H13 UNL     1      32.787   5.707  50.264  1.00  0.00     0.163 HD
BRANCH  16  18
HETATM   18  C9  UNL     1      32.820   4.781  48.223  1.00  0.00     0.124 A 
HETATM   19  C10 UNL     1      31.801   4.328  47.416  1.00  0.00     0.050 A 
HETATM   20  C11 UNL     1      32.126   3.293  46.535  1.00  0.00     0.005 A 
HETATM   21  C12 UNL     1      33.392   2.778  46.498  1.00  0.00     0.019 A 
HETATM   22  C13 UNL     1      34.396   3.262  47.329  1.00  0.00     0.119 A 
HETATM   23  N4  UNL     1      34.064   4.258  48.169  1.00  0.00    -0.244 NA
ENDBRANCH  16  18
ENDBRANCH   6  16
TORSDOF 4
ENDMDL
MODEL 8
REMARK VINA RESULT:      -6.0      2.377      3.104
REMARK  4 active torsions:
REMARK  status: ('A' for Active; 'I' for Inactive)
REMARK    1  A    between atoms: C3_5  and  O1_6 
REMARK    2  A    between atoms: C3_5  and  C4_7 
REMARK    3  A    between atoms: C8_12  and  N3_13 
REMARK    4  A    between atoms: N3_13  and  C9_14 
ROOT
HETATM    1  C4  UNL     1      24.304   5.728  49.974  1.00  0.00     0.062 C 
HETATM    2  C5  UNL     1      25.385   5.850  48.995  1.00  0.00    -0.016 C 
HETATM    3  C6  UNL     1      26.511   5.146  48.777  1.00  0.00     0.015 C 
HETATM    4  C7  UNL     1      26.950   3.968  49.557  1.00  0.00     0.112 C 
HETATM    5  N2  UNL     1      26.230   3.145  50.269  1.00  0.00    -0.276 NA
HETATM    6  C8  UNL     1      24.771   3.311  50.383  1.00  0.00     0.207 C 
HETATM    7  C14 UNL     1      24.585   4.665  51.018  1.00  0.00     0.061 C 
ENDROOT
BRANCH   1   8
HETATM    8  C3  UNL     1      23.964   6.983  50.720  1.00  0.00     0.128 C 
HETATM    9  N1  UNL     1      22.633   7.462  50.718  1.00  0.00    -0.264 NA
HETATM   10  C1  UNL     1      21.538   6.564  50.806  1.00  0.00     0.119 C 
HETATM   11  P1  UNL     1      22.801   8.490  49.293  1.00  0.00    -0.048 P 
HETATM   12  C2  UNL     1      24.455   8.262  50.080  1.00  0.00     0.103 C 
HETATM   13  H4  UNL     1      22.260   9.829  49.419  1.00  0.00     0.074 HD
BRANCH   8  14
HETATM   14  O1  UNL     1      24.433   6.889  52.053  1.00  0.00    -0.374 OA
HETATM   15  H7  UNL     1      24.872   7.728  52.337  1.00  0.00     0.212 HD
ENDBRANCH   8  14
ENDBRANCH   1   8
BRANCH   6  16
HETATM   16  N3  UNL     1      24.189   2.254  51.171  1.00  0.00    -0.352 N 
HETATM   17  H13 UNL     1      24.610   1.896  52.050  1.00  0.00     0.163 HD
BRANCH  16  18
HETATM   18  C9  UNL     1      22.975   1.831  50.518  1.00  0.00     0.124 A 
HETATM   19  C10 UNL     1      21.914   1.103  51.009  1.00  0.00     0.050 A 
HETATM   20  C11 UNL     1      20.878   0.843  50.109  1.00  0.00     0.005 A 
HETATM   21  C12 UNL     1      20.939   1.296  48.821  1.00  0.00     0.019 A 
HETATM   22  C13 UNL     1      22.028   2.028  48.361  1.00  0.00     0.119 A 
HETATM   23  N4  UNL     1      23.015   2.270  49.241  1.00  0.00    -0.244 NA
ENDBRANCH  16  18
ENDBRANCH   6  16
TORSDOF 4
ENDMDL
MODEL 9
REMARK VINA RESULT:      -5.9      2.830      4.772
REMARK  4 active torsions:
REMARK  status: ('A' for Active; 'I' for Inactive)
REMARK    1  A    between atoms: C3_5  and  O1_6 
REMARK    2  A    between atoms: C3_5  and  C4_7 
REMARK    3  A    between atoms: C8_12  and  N3_13 
REMARK    4  A    between atoms: N3_13  and  C9_14 
ROOT
HETATM    1  C4  UNL     1      24.187   1.185  52.661  1.00  0.00     0.062 C 
HETATM    2  C5  UNL     1      24.218  -0.108  53.347  1.00  0.00    -0.016 C 
HETATM    3  C6  UNL     1      23.287  -0.822  54.004  1.00  0.00     0.015 C 
HETATM    4  C7  UNL     1      21.876  -0.418  54.196  1.00  0.00     0.112 C 
HETATM    5  N2  UNL     1      21.157   0.405  53.483  1.00  0.00    -0.276 NA
HETATM    6  C8  UNL     1      21.720   1.084  52.303  1.00  0.00     0.207 C 
HETATM    7  C14 UNL     1      22.865   1.903  52.839  1.00  0.00     0.061 C 
ENDROOT
BRANCH   1   8
HETATM    8  C3  UNL     1      25.260   2.153  53.060  1.00  0.00     0.128 C 
HETATM    9  N1  UNL     1      26.287   2.480  52.143  1.00  0.00    -0.264 NA
HETATM   10  C1  UNL     1      26.001   2.653  50.763  1.00  0.00     0.119 C 
HETATM   11  P1  UNL     1      27.405   1.210  52.645  1.00  0.00    -0.048 P 
HETATM   12  C2  UNL     1      26.273   1.617  54.046  1.00  0.00     0.103 C 
HETATM   13  H4  UNL     1      28.778   1.629  52.848  1.00  0.00     0.074 HD
BRANCH   8  14
HETATM   14  O1  UNL     1      24.671   3.341  53.556  1.00  0.00    -0.374 OA
HETATM   15  H7  UNL     1      24.212   3.179  54.418  1.00  0.00     0.212 HD
ENDBRANCH   8  14
ENDBRANCH   1   8
BRANCH   6  16
HETATM   16  N3  UNL     1      20.726   1.896  51.649  1.00  0.00    -0.352 N 
HETATM   17  H13 UNL     1      19.780   2.070  52.041  1.00  0.00     0.163 HD
BRANCH  16  18
HETATM   18  C9  UNL     1      21.292   2.382  50.416  1.00  0.00     0.124 A 
HETATM   19  C10 UNL     1      21.617   3.666  50.039  1.00  0.00     0.050 A 
HETATM   20  C11 UNL     1      22.146   3.815  48.754  1.00  0.00     0.005 A 
HETATM   21  C12 UNL     1      22.320   2.731  47.939  1.00  0.00     0.019 A 
HETATM   22  C13 UNL     1      21.979   1.449  48.355  1.00  0.00     0.119 A 
HETATM   23  N4  UNL     1      21.473   1.325  49.595  1.00  0.00    -0.244 NA
ENDBRANCH  16  18
ENDBRANCH   6  16
TORSDOF 4
ENDMDL
