MODEL 1
REMARK VINA RESULT:      -8.9      0.000      0.000
REMARK  1 active torsions:
REMARK  status: ('A' for Active; 'I' for Inactive)
REMARK    1  A    between atoms: C4_5  and  N2_6 
ROOT
HETATM    1  C1  UNL     1      20.548   0.233  54.071  1.00  0.00     0.143 C 
HETATM    2  N1  UNL     1      21.322   0.313  52.952  1.00  0.00    -0.416 N 
HETATM    3  C2  UNL     1      21.076   1.119  51.861  1.00  0.00     0.118 C 
HETATM    4  C3  UNL     1      21.342   2.572  52.160  1.00  0.00     0.055 C 
HETATM    5  C4  UNL     1      21.586   3.239  50.834  1.00  0.00     0.223 C 
HETATM    6  C5  UNL     1      22.677   2.567  50.027  1.00  0.00     0.072 C 
HETATM    7  C6  UNL     1      23.999   2.483  50.631  1.00  0.00    -0.042 A 
HETATM    8  C7  UNL     1      24.827   3.313  49.977  1.00  0.00     0.113 A 
HETATM    9  N3  UNL     1      26.172   3.500  50.270  1.00  0.00    -0.287 N 
HETATM   10  N4  UNL     1      26.838   2.857  51.273  1.00  0.00    -0.160 NA
HETATM   11  C8  UNL     1      26.123   2.022  51.975  1.00  0.00     0.147 A 
HETATM   12  C9  UNL     1      24.585   1.729  51.732  1.00  0.00     0.080 A 
HETATM   13  C10 UNL     1      23.392   1.040  52.152  1.00  0.00     0.030 A 
HETATM   14  C11 UNL     1      24.394   0.726  52.875  1.00  0.00     0.064 A 
HETATM   15  C12 UNL     1      25.257   0.473  53.475  1.00  0.00    -0.112 A 
HETATM   16  C13 UNL     1      26.294   0.191  54.171  1.00  0.00     0.079 A 
HETATM   17  C14 UNL     1      27.257  -0.142  54.897  1.00  0.00     0.015 A 
HETATM   18  C15 UNL     1      28.672   0.283  54.958  1.00  0.00     0.058 A 
HETATM   19  C16 UNL     1      28.995   1.272  53.921  1.00  0.00    -0.005 A 
HETATM   20  C17 UNL     1      28.214   1.828  52.985  1.00  0.00     0.095 A 
HETATM   21  N5  UNL     1      26.823   1.270  53.121  1.00  0.00    -0.302 N 
HETATM   22  C18 UNL     1      22.798   0.193  53.180  1.00  0.00     0.135 A 
HETATM   23  H14 UNL     1      26.889   4.098  49.844  1.00  0.00     0.188 HD
ENDROOT
BRANCH   5  24
HETATM   24  N2  UNL     1      21.831   4.637  51.028  1.00  0.00     0.083 N 
HETATM   25  H9  UNL     1      22.796   4.807  51.413  1.00  0.00     0.313 HD
HETATM   26  H10 UNL     1      21.100   5.136  51.578  1.00  0.00     0.313 HD
ENDBRANCH   5  24
TORSDOF 1
ENDMDL
MODEL 2
REMARK VINA RESULT:      -8.6      1.860      3.652
REMARK  1 active torsions:
REMARK  status: ('A' for Active; 'I' for Inactive)
REMARK    1  A    between atoms: C4_5  and  N2_6 
ROOT
HETATM    1  C1  UNL     1      20.465   3.726  49.573  1.00  0.00     0.143 C 
HETATM    2  N1  UNL     1      21.677   3.122  49.420  1.00  0.00    -0.416 N 
HETATM    3  C2  UNL     1      22.828   3.733  48.968  1.00  0.00     0.118 C 
HETATM    4  C3  UNL     1      23.413   4.667  49.996  1.00  0.00     0.055 C 
HETATM    5  C4  UNL     1      24.869   4.818  49.649  1.00  0.00     0.223 C 
HETATM    6  C5  UNL     1      25.592   3.492  49.541  1.00  0.00     0.072 C 
HETATM    7  C6  UNL     1      25.594   2.634  50.717  1.00  0.00    -0.042 A 
HETATM    8  C7  UNL     1      26.834   2.609  51.232  1.00  0.00     0.113 A 
HETATM    9  N3  UNL     1      27.220   1.895  52.359  1.00  0.00    -0.287 N 
HETATM   10  N4  UNL     1      26.382   1.114  53.101  1.00  0.00    -0.160 NA
HETATM   11  C8  UNL     1      25.146   1.068  52.686  1.00  0.00     0.147 A 
HETATM   12  C9  UNL     1      24.593   1.838  51.418  1.00  0.00     0.080 A 
HETATM   13  C10 UNL     1      23.463   2.178  50.591  1.00  0.00     0.030 A 
HETATM   14  C11 UNL     1      23.135   1.379  51.530  1.00  0.00     0.064 A 
HETATM   15  C12 UNL     1      22.879   0.702  52.332  1.00  0.00    -0.112 A 
HETATM   16  C13 UNL     1      22.601  -0.100  53.290  1.00  0.00     0.079 A 
HETATM   17  C14 UNL     1      22.246  -0.886  54.197  1.00  0.00     0.015 A 
HETATM   18  C15 UNL     1      22.959  -1.503  55.337  1.00  0.00     0.058 A 
HETATM   19  C16 UNL     1      24.378  -1.128  55.368  1.00  0.00    -0.005 A 
HETATM   20  C17 UNL     1      25.077  -0.327  54.553  1.00  0.00     0.095 A 
HETATM   21  N5  UNL     1      24.156   0.203  53.487  1.00  0.00    -0.302 N 
HETATM   22  C18 UNL     1      22.015   2.086  50.448  1.00  0.00     0.135 A 
HETATM   23  H14 UNL     1      28.125   1.802  52.834  1.00  0.00     0.188 HD
ENDROOT
BRANCH   5  24
HETATM   24  N2  UNL     1      25.501   5.711  50.574  1.00  0.00     0.083 N 
HETATM   25  H9  UNL     1      26.092   5.187  51.269  1.00  0.00     0.313 HD
HETATM   26  H10 UNL     1      24.856   6.384  51.041  1.00  0.00     0.313 HD
ENDBRANCH   5  24
TORSDOF 1
ENDMDL
MODEL 3
REMARK VINA RESULT:      -8.4      1.716      3.604
REMARK  1 active torsions:
REMARK  status: ('A' for Active; 'I' for Inactive)
REMARK    1  A    between atoms: C4_5  and  N2_6 
ROOT
HETATM    1  C1  UNL     1      23.015   5.925  50.874  1.00  0.00     0.143 C 
HETATM    2  N1  UNL     1      22.672   5.034  51.848  1.00  0.00    -0.416 N 
HETATM    3  C2  UNL     1      21.482   4.342  51.921  1.00  0.00     0.118 C 
HETATM    4  C3  UNL     1      21.396   3.254  50.882  1.00  0.00     0.055 C 
HETATM    5  C4  UNL     1      20.388   2.261  51.393  1.00  0.00     0.223 C 
HETATM    6  C5  UNL     1      20.706   1.759  52.785  1.00  0.00     0.072 C 
HETATM    7  C6  UNL     1      21.987   1.096  52.979  1.00  0.00    -0.042 A 
HETATM    8  C7  UNL     1      21.771  -0.214  53.183  1.00  0.00     0.113 A 
HETATM    9  N3  UNL     1      22.758  -1.165  53.407  1.00  0.00    -0.287 N 
HETATM   10  N4  UNL     1      24.094  -0.893  53.451  1.00  0.00    -0.160 NA
HETATM   11  C8  UNL     1      24.417   0.358  53.264  1.00  0.00     0.147 A 
HETATM   12  C9  UNL     1      23.380   1.525  53.000  1.00  0.00     0.080 A 
HETATM   13  C10 UNL     1      23.157   2.918  52.707  1.00  0.00     0.030 A 
HETATM   14  C11 UNL     1      24.398   2.661  52.849  1.00  0.00     0.064 A 
HETATM   15  C12 UNL     1      25.445   2.422  52.973  1.00  0.00    -0.112 A 
HETATM   16  C13 UNL     1      26.678   2.111  53.124  1.00  0.00     0.079 A 
HETATM   17  C14 UNL     1      27.903   1.895  53.260  1.00  0.00     0.015 A 
HETATM   18  C15 UNL     1      28.691   0.667  53.505  1.00  0.00     0.058 A 
HETATM   19  C16 UNL     1      27.836  -0.517  53.650  1.00  0.00    -0.005 A 
HETATM   20  C17 UNL     1      26.503  -0.635  53.575  1.00  0.00     0.095 A 
HETATM   21  N5  UNL     1      25.912   0.722  53.301  1.00  0.00    -0.302 N 
HETATM   22  C18 UNL     1      23.792   4.186  52.367  1.00  0.00     0.135 A 
HETATM   23  H14 UNL     1      22.709  -2.177  53.575  1.00  0.00     0.188 HD
ENDROOT
BRANCH   5  24
HETATM   24  N2  UNL     1      20.231   1.195  50.449  1.00  0.00     0.083 N 
HETATM   25  H9  UNL     1      21.136   0.985  49.955  1.00  0.00     0.313 HD
HETATM   26  H10 UNL     1      19.442   1.317  49.779  1.00  0.00     0.313 HD
ENDBRANCH   5  24
TORSDOF 1
ENDMDL
MODEL 4
REMARK VINA RESULT:      -8.4      2.153      6.346
REMARK  1 active torsions:
REMARK  status: ('A' for Active; 'I' for Inactive)
REMARK    1  A    between atoms: C4_5  and  N2_6 
ROOT
HETATM    1  C1  UNL     1      23.167   4.368  49.038  1.00  0.00     0.143 C 
HETATM    2  N1  UNL     1      23.520   3.125  49.472  1.00  0.00    -0.416 N 
HETATM    3  C2  UNL     1      24.653   2.818  50.197  1.00  0.00     0.118 C 
HETATM    4  C3  UNL     1      24.561   3.301  51.621  1.00  0.00     0.055 C 
HETATM    5  C4  UNL     1      25.526   2.462  52.414  1.00  0.00     0.223 C 
HETATM    6  C5  UNL     1      25.291   0.976  52.251  1.00  0.00     0.072 C 
HETATM    7  C6  UNL     1      23.982   0.462  52.627  1.00  0.00    -0.042 A 
HETATM    8  C7  UNL     1      24.109  -0.269  53.747  1.00  0.00     0.113 A 
HETATM    9  N3  UNL     1      23.073  -0.920  54.403  1.00  0.00    -0.287 N 
HETATM   10  N4  UNL     1      21.771  -0.903  53.993  1.00  0.00    -0.160 NA
HETATM   11  C8  UNL     1      21.534  -0.218  52.908  1.00  0.00     0.147 A 
HETATM   12  C9  UNL     1      22.635   0.563  52.078  1.00  0.00     0.080 A 
HETATM   13  C10 UNL     1      22.943   1.428  50.969  1.00  0.00     0.030 A 
HETATM   14  C11 UNL     1      21.702   1.136  51.005  1.00  0.00     0.064 A 
HETATM   15  C12 UNL     1      20.654   0.875  51.055  1.00  0.00    -0.112 A 
HETATM   16  C13 UNL     1      19.419   0.551  51.137  1.00  0.00     0.079 A 
HETATM   17  C14 UNL     1      18.196   0.281  51.141  1.00  0.00     0.015 A 
HETATM   18  C15 UNL     1      17.337  -0.497  52.059  1.00  0.00     0.058 A 
HETATM   19  C16 UNL     1      18.103  -1.092  53.161  1.00  0.00    -0.005 A 
HETATM   20  C17 UNL     1      19.410  -1.014  53.444  1.00  0.00     0.095 A 
HETATM   21  N5  UNL     1      20.083  -0.164  52.400  1.00  0.00    -0.302 N 
HETATM   22  C18 UNL     1      22.384   2.245  49.898  1.00  0.00     0.135 A 
HETATM   23  H14 UNL     1      23.054  -1.498  55.251  1.00  0.00     0.188 HD
ENDROOT
BRANCH   5  24
HETATM   24  N2  UNL     1      25.514   2.870  53.787  1.00  0.00     0.083 N 
HETATM   25  H9  UNL     1      26.457   2.740  54.234  1.00  0.00     0.313 HD
HETATM   26  H10 UNL     1      24.751   2.451  54.361  1.00  0.00     0.313 HD
ENDBRANCH   5  24
TORSDOF 1
ENDMDL
MODEL 5
REMARK VINA RESULT:      -8.1      1.583      5.435
REMARK  1 active torsions:
REMARK  status: ('A' for Active; 'I' for Inactive)
REMARK    1  A    between atoms: C4_5  and  N2_6 
ROOT
HETATM    1  C1  UNL     1      27.595  -1.625  53.082  1.00  0.00     0.143 C 
HETATM    2  N1  UNL     1      26.950  -0.485  53.459  1.00  0.00    -0.416 N 
HETATM    3  C2  UNL     1      27.236   0.786  53.008  1.00  0.00     0.118 C 
HETATM    4  C3  UNL     1      26.793   0.994  51.582  1.00  0.00     0.055 C 
HETATM    5  C4  UNL     1      26.635   2.479  51.402  1.00  0.00     0.223 C 
HETATM    6  C5  UNL     1      25.717   3.106  52.429  1.00  0.00     0.072 C 
HETATM    7  C6  UNL     1      24.350   2.609  52.495  1.00  0.00    -0.042 A 
HETATM    8  C7  UNL     1      23.522   3.557  52.028  1.00  0.00     0.113 A 
HETATM    9  N3  UNL     1      22.140   3.443  51.938  1.00  0.00    -0.287 N 
HETATM   10  N4  UNL     1      21.433   2.340  52.318  1.00  0.00    -0.160 NA
HETATM   11  C8  UNL     1      22.144   1.353  52.790  1.00  0.00     0.147 A 
HETATM   12  C9  UNL     1      23.721   1.371  52.938  1.00  0.00     0.080 A 
HETATM   13  C10 UNL     1      24.922   0.662  53.297  1.00  0.00     0.030 A 
HETATM   14  C11 UNL     1      23.881  -0.046  53.500  1.00  0.00     0.064 A 
HETATM   15  C12 UNL     1      22.985  -0.629  53.665  1.00  0.00    -0.112 A 
HETATM   16  C13 UNL     1      21.910  -1.297  53.850  1.00  0.00     0.079 A 
HETATM   17  C14 UNL     1      20.908  -2.017  54.065  1.00  0.00     0.015 A 
HETATM   18  C15 UNL     1      19.460  -1.829  53.832  1.00  0.00     0.058 A 
HETATM   19  C16 UNL     1      19.159  -0.508  53.268  1.00  0.00    -0.005 A 
HETATM   20  C17 UNL     1      19.981   0.496  52.934  1.00  0.00     0.095 A 
HETATM   21  N5  UNL     1      21.397   0.082  53.233  1.00  0.00    -0.302 N 
HETATM   22  C18 UNL     1      25.477  -0.627  53.695  1.00  0.00     0.135 A 
HETATM   23  H14 UNL     1      21.420   4.093  51.603  1.00  0.00     0.188 HD
ENDROOT
BRANCH   5  24
HETATM   24  N2  UNL     1      26.229   2.767  50.058  1.00  0.00     0.083 N 
HETATM   25  H9  UNL     1      25.257   3.169  50.029  1.00  0.00     0.313 HD
HETATM   26  H10 UNL     1      26.342   1.975  49.389  1.00  0.00     0.313 HD
ENDBRANCH   5  24
TORSDOF 1
ENDMDL
MODEL 6
REMARK VINA RESULT:      -8.0      1.887      4.099
REMARK  1 active torsions:
REMARK  status: ('A' for Active; 'I' for Inactive)
REMARK    1  A    between atoms: C4_5  and  N2_6 
ROOT
HETATM    1  C1  UNL     1      21.987   3.012  47.931  1.00  0.00     0.143 C 
HETATM    2  N1  UNL     1      21.764   3.095  49.273  1.00  0.00    -0.416 N 
HETATM    3  C2  UNL     1      20.552   2.901  49.900  1.00  0.00     0.118 C 
HETATM    4  C3  UNL     1      20.146   1.450  49.912  1.00  0.00     0.055 C 
HETATM    5  C4  UNL     1      19.171   1.293  51.048  1.00  0.00     0.223 C 
HETATM    6  C5  UNL     1      19.717   1.792  52.369  1.00  0.00     0.072 C 
HETATM    7  C6  UNL     1      20.938   1.173  52.863  1.00  0.00    -0.042 A 
HETATM    8  C7  UNL     1      20.639   0.418  53.932  1.00  0.00     0.113 A 
HETATM    9  N3  UNL     1      21.552  -0.324  54.671  1.00  0.00    -0.287 N 
HETATM   10  N4  UNL     1      22.889  -0.385  54.406  1.00  0.00    -0.160 NA
HETATM   11  C8  UNL     1      23.290   0.316  53.381  1.00  0.00     0.147 A 
HETATM   12  C9  UNL     1      22.342   1.198  52.468  1.00  0.00     0.080 A 
HETATM   13  C10 UNL     1      22.203   2.048  51.314  1.00  0.00     0.030 A 
HETATM   14  C11 UNL     1      23.415   1.694  51.492  1.00  0.00     0.064 A 
HETATM   15  C12 UNL     1      24.436   1.382  51.663  1.00  0.00    -0.112 A 
HETATM   16  C13 UNL     1      25.636   0.998  51.886  1.00  0.00     0.079 A 
HETATM   17  C14 UNL     1      26.835   0.672  52.035  1.00  0.00     0.015 A 
HETATM   18  C15 UNL     1      27.531  -0.211  52.996  1.00  0.00     0.058 A 
HETATM   19  C16 UNL     1      26.611  -0.781  53.988  1.00  0.00    -0.005 A 
HETATM   20  C17 UNL     1      25.286  -0.631  54.122  1.00  0.00     0.095 A 
HETATM   21  N5  UNL     1      24.789   0.284  53.035  1.00  0.00    -0.302 N 
HETATM   22  C18 UNL     1      22.877   2.594  50.142  1.00  0.00     0.135 A 
HETATM   23  H14 UNL     1      21.438  -0.927  55.494  1.00  0.00     0.188 HD
ENDROOT
BRANCH   5  24
HETATM   24  N2  UNL     1      18.719  -0.064  51.119  1.00  0.00     0.083 N 
HETATM   25  H9  UNL     1      17.690  -0.115  51.330  1.00  0.00     0.313 HD
HETATM   26  H10 UNL     1      19.276  -0.677  51.753  1.00  0.00     0.313 HD
ENDBRANCH   5  24
TORSDOF 1
ENDMDL
MODEL 7
REMARK VINA RESULT:      -8.0      2.496      5.092
REMARK  1 active torsions:
REMARK  status: ('A' for Active; 'I' for Inactive)
REMARK    1  A    between atoms: C4_5  and  N2_6 
ROOT
HETATM    1  C1  UNL     1      26.687   3.394  49.708  1.00  0.00     0.143 C 
HETATM    2  N1  UNL     1      25.686   3.947  50.450  1.00  0.00    -0.416 N 
HETATM    3  C2  UNL     1      24.800   4.910  50.014  1.00  0.00     0.118 C 
HETATM    4  C3  UNL     1      23.788   4.350  49.048  1.00  0.00     0.055 C 
HETATM    5  C4  UNL     1      22.606   5.281  49.090  1.00  0.00     0.223 C 
HETATM    6  C5  UNL     1      22.070   5.494  50.489  1.00  0.00     0.072 C 
HETATM    7  C6  UNL     1      21.621   4.317  51.219  1.00  0.00    -0.042 A 
HETATM    8  C7  UNL     1      20.282   4.358  51.324  1.00  0.00     0.113 A 
HETATM    9  N3  UNL     1      19.498   3.403  51.957  1.00  0.00    -0.287 N 
HETATM   10  N4  UNL     1      19.988   2.283  52.565  1.00  0.00    -0.160 NA
HETATM   11  C8  UNL     1      21.285   2.144  52.522  1.00  0.00     0.147 A 
HETATM   12  C9  UNL     1      22.276   3.166  51.829  1.00  0.00     0.080 A 
HETATM   13  C10 UNL     1      23.628   3.495  51.455  1.00  0.00     0.030 A 
HETATM   14  C11 UNL     1      23.575   2.405  52.116  1.00  0.00     0.064 A 
HETATM   15  C12 UNL     1      23.507   1.484  52.678  1.00  0.00    -0.112 A 
HETATM   16  C13 UNL     1      23.399   0.397  53.344  1.00  0.00     0.079 A 
HETATM   17  C14 UNL     1      23.383  -0.674  53.993  1.00  0.00     0.015 A 
HETATM   18  C15 UNL     1      22.293  -1.493  54.563  1.00  0.00     0.058 A 
HETATM   19  C16 UNL     1      20.973  -0.888  54.341  1.00  0.00    -0.005 A 
HETATM   20  C17 UNL     1      20.639   0.242  53.705  1.00  0.00     0.095 A 
HETATM   21  N5  UNL     1      21.892   0.899  53.190  1.00  0.00    -0.302 N 
HETATM   22  C18 UNL     1      25.005   3.017  51.406  1.00  0.00     0.135 A 
HETATM   23  H14 UNL     1      18.483   3.332  52.098  1.00  0.00     0.188 HD
ENDROOT
BRANCH   5  24
HETATM   24  N2  UNL     1      21.596   4.828  48.180  1.00  0.00     0.083 N 
HETATM   25  H9  UNL     1      21.760   3.829  47.893  1.00  0.00     0.313 HD
HETATM   26  H10 UNL     1      21.439   5.449  47.357  1.00  0.00     0.313 HD
ENDBRANCH   5  24
TORSDOF 1
ENDMDL
MODEL 8
REMARK VINA RESULT:      -7.9      1.504      5.199
REMARK  1 active torsions:
REMARK  status: ('A' for Active; 'I' for Inactive)
REMARK    1  A    between atoms: C4_5  and  N2_6 
ROOT
HETATM    1  C1  UNL     1      21.928  -1.627  54.015  1.00  0.00     0.143 C 
HETATM    2  N1  UNL     1      22.733  -0.535  54.149  1.00  0.00    -0.416 N 
HETATM    3  C2  UNL     1      24.063  -0.557  54.516  1.00  0.00     0.118 C 
HETATM    4  C3  UNL     1      24.945  -1.085  53.415  1.00  0.00     0.055 C 
HETATM    5  C4  UNL     1      26.326  -0.555  53.690  1.00  0.00     0.223 C 
HETATM    6  C5  UNL     1      26.362   0.951  53.839  1.00  0.00     0.072 C 
HETATM    7  C6  UNL     1      25.895   1.746  52.713  1.00  0.00    -0.042 A 
HETATM    8  C7  UNL     1      26.948   2.357  52.147  1.00  0.00     0.113 A 
HETATM    9  N3  UNL     1      26.890   3.201  51.046  1.00  0.00    -0.287 N 
HETATM   10  N4  UNL     1      25.741   3.526  50.384  1.00  0.00    -0.160 NA
HETATM   11  C8  UNL     1      24.652   2.983  50.854  1.00  0.00     0.147 A 
HETATM   12  C9  UNL     1      24.597   2.008  52.101  1.00  0.00     0.080 A 
HETATM   13  C10 UNL     1      23.806   1.160  52.955  1.00  0.00     0.030 A 
HETATM   14  C11 UNL     1      23.088   1.744  52.077  1.00  0.00     0.064 A 
HETATM   15  C12 UNL     1      22.498   2.249  51.325  1.00  0.00    -0.112 A 
HETATM   16  C13 UNL     1      21.823   2.858  50.425  1.00  0.00     0.079 A 
HETATM   17  C14 UNL     1      21.089   3.417  49.579  1.00  0.00     0.015 A 
HETATM   18  C15 UNL     1      21.364   4.325  48.445  1.00  0.00     0.058 A 
HETATM   19  C16 UNL     1      22.791   4.651  48.332  1.00  0.00    -0.005 A 
HETATM   20  C17 UNL     1      23.831   4.240  49.071  1.00  0.00     0.095 A 
HETATM   21  N5  UNL     1      23.327   3.315  50.145  1.00  0.00    -0.302 N 
HETATM   22  C18 UNL     1      22.490   0.568  53.165  1.00  0.00     0.135 A 
HETATM   23  H14 UNL     1      27.619   3.715  50.538  1.00  0.00     0.188 HD
ENDROOT
BRANCH   5  24
HETATM   24  N2  UNL     1      27.238  -1.027  52.691  1.00  0.00     0.083 N 
HETATM   25  H9  UNL     1      27.439  -2.052  52.811  1.00  0.00     0.313 HD
HETATM   26  H10 UNL     1      28.113  -0.467  52.599  1.00  0.00     0.313 HD
ENDBRANCH   5  24
TORSDOF 1
ENDMDL
MODEL 9
REMARK VINA RESULT:      -7.8      5.503      7.469
REMARK  1 active torsions:
REMARK  status: ('A' for Active; 'I' for Inactive)
REMARK    1  A    between atoms: C4_5  and  N2_6 
ROOT
HETATM    1  C1  UNL     1      26.022   2.926  50.589  1.00  0.00     0.143 C 
HETATM    2  N1  UNL     1      25.888   3.815  49.564  1.00  0.00    -0.416 N 
HETATM    3  C2  UNL     1      24.907   4.778  49.459  1.00  0.00     0.118 C 
HETATM    4  C3  UNL     1      25.122   5.912  50.428  1.00  0.00     0.055 C 
HETATM    5  C4  UNL     1      24.382   7.095  49.864  1.00  0.00     0.223 C 
HETATM    6  C5  UNL     1      24.780   7.418  48.440  1.00  0.00     0.072 C 
HETATM    7  C6  UNL     1      26.181   7.725  48.191  1.00  0.00    -0.042 A 
HETATM    8  C7  UNL     1      26.294   9.032  47.906  1.00  0.00     0.113 A 
HETATM    9  N3  UNL     1      27.481   9.690  47.612  1.00  0.00    -0.287 N 
HETATM   10  N4  UNL     1      28.705   9.089  47.573  1.00  0.00    -0.160 NA
HETATM   11  C8  UNL     1      28.710   7.811  47.836  1.00  0.00     0.147 A 
HETATM   12  C9  UNL     1      27.421   6.959  48.184  1.00  0.00     0.080 A 
HETATM   13  C10 UNL     1      26.865   5.687  48.567  1.00  0.00     0.030 A 
HETATM   14  C11 UNL     1      28.127   5.614  48.397  1.00  0.00     0.064 A 
HETATM   15  C12 UNL     1      29.196   5.576  48.247  1.00  0.00    -0.112 A 
HETATM   16  C13 UNL     1      30.463   5.557  48.065  1.00  0.00     0.079 A 
HETATM   17  C14 UNL     1      31.700   5.451  47.903  1.00  0.00     0.015 A 
HETATM   18  C15 UNL     1      32.763   6.424  47.572  1.00  0.00     0.058 A 
HETATM   19  C16 UNL     1      32.228   7.775  47.361  1.00  0.00    -0.005 A 
HETATM   20  C17 UNL     1      30.969   8.227  47.441  1.00  0.00     0.095 A 
HETATM   21  N5  UNL     1      30.065   7.081  47.807  1.00  0.00    -0.302 N 
HETATM   22  C18 UNL     1      27.171   4.322  48.981  1.00  0.00     0.135 A 
HETATM   23  H14 UNL     1      27.682  10.670  47.381  1.00  0.00     0.188 HD
ENDROOT
BRANCH   5  24
HETATM   24  N2  UNL     1      24.521   8.220  50.740  1.00  0.00     0.083 N 
HETATM   25  H9  UNL     1      24.751   9.096  50.204  1.00  0.00     0.313 HD
HETATM   26  H10 UNL     1      25.172   8.072  51.541  1.00  0.00     0.313 HD
ENDBRANCH   5  24
TORSDOF 1
ENDMDL
