MODEL 1
REMARK VINA RESULT:      -8.0      0.000      0.000
REMARK  4 active torsions:
REMARK  status: ('A' for Active; 'I' for Inactive)
REMARK    1  A    between atoms: C3_5  and  C4_7 
REMARK    2  A    between atoms: C5_8  and  C6_9 
REMARK    3  A    between atoms: C7_10  and  N2_11 
REMARK    4  A    between atoms: N2_11  and  C8_12 
ROOT
HETATM    1  C6  UNL     1      24.642   2.722  53.101  1.00  0.00     0.017 C 
HETATM    2  C7  UNL     1      25.947   2.728  53.296  1.00  0.00     0.088 C 
ENDROOT
BRANCH   1   3
HETATM    3  C5  UNL     1      23.937   3.267  51.949  1.00  0.00     0.004 C 
HETATM    4  C4  UNL     1      23.242   2.250  51.485  1.00  0.00     0.037 C 
BRANCH   4   5
HETATM    5  C3  UNL     1      23.354   0.983  52.179  1.00  0.00     0.096 A 
HETATM    6  C2  UNL     1      22.140   0.151  52.369  1.00  0.00     0.264 A 
HETATM    7  N1  UNL     1      22.454  -1.062  53.090  1.00  0.00    -0.306 N 
HETATM    8  C14 UNL     1      21.188   0.858  53.300  1.00  0.00     0.237 C 
HETATM    9  O2  UNL     1      23.670  -0.040  52.786  1.00  0.00    -0.322 OA
HETATM   10  C1  UNL     1      21.499  -1.265  54.126  1.00  0.00     0.362 C 
HETATM   11  H1  UNL     1      23.165  -1.855  53.099  1.00  0.00     0.167 HD
HETATM   12  O1  UNL     1      21.239  -2.058  55.070  1.00  0.00    -0.238 OA
HETATM   13  O3  UNL     1      20.579  -0.206  53.999  1.00  0.00    -0.299 OA
ENDBRANCH   4   5
ENDBRANCH   1   3
BRANCH   2  14
HETATM   14  N2  UNL     1      27.088   2.413  54.074  1.00  0.00    -0.366 N 
HETATM   15  H7  UNL     1      27.447   3.051  54.810  1.00  0.00     0.165 HD
BRANCH  14  16
HETATM   16  C8  UNL     1      27.742   1.185  53.822  1.00  0.00     0.033 A 
HETATM   17  C9  UNL     1      29.070   0.994  54.168  1.00  0.00     0.032 A 
HETATM   18  C10 UNL     1      29.709  -0.226  53.918  1.00  0.00     0.046 A 
HETATM   19  C11 UNL     1      28.946  -1.221  53.310  1.00  0.00     0.138 A 
HETATM   20  F1  UNL     1      29.593  -2.391  53.081  1.00  0.00    -0.204 F 
HETATM   21  C12 UNL     1      27.628  -1.096  52.943  1.00  0.00     0.074 A 
HETATM   22 CL1  UNL     1      26.721  -2.381  52.184  1.00  0.00    -0.081 Cl
HETATM   23  C13 UNL     1      27.094   0.142  53.234  1.00  0.00     0.056 A 
ENDBRANCH  14  16
ENDBRANCH   2  14
TORSDOF 4
ENDMDL
MODEL 2
REMARK VINA RESULT:      -7.6      4.231      6.047
REMARK  4 active torsions:
REMARK  status: ('A' for Active; 'I' for Inactive)
REMARK    1  A    between atoms: C3_5  and  C4_7 
REMARK    2  A    between atoms: C5_8  and  C6_9 
REMARK    3  A    between atoms: C7_10  and  N2_11 
REMARK    4  A    between atoms: N2_11  and  C8_12 
ROOT
HETATM    1  C6  UNL     1      23.752   2.244  52.679  1.00  0.00     0.017 C 
HETATM    2  C7  UNL     1      23.385   3.294  51.968  1.00  0.00     0.088 C 
ENDROOT
BRANCH   1   3
HETATM    3  C5  UNL     1      22.891   1.160  53.127  1.00  0.00     0.004 C 
HETATM    4  C4  UNL     1      23.670   0.098  53.104  1.00  0.00     0.037 C 
BRANCH   4   5
HETATM    5  C3  UNL     1      25.044   0.278  52.682  1.00  0.00     0.096 A 
HETATM    6  C2  UNL     1      26.114  -0.509  53.341  1.00  0.00     0.264 A 
HETATM    7  N1  UNL     1      27.410  -0.180  52.791  1.00  0.00    -0.306 N 
HETATM    8  C14 UNL     1      26.241  -0.077  54.779  1.00  0.00     0.237 C 
HETATM    9  O2  UNL     1      26.124   0.583  52.176  1.00  0.00    -0.322 OA
HETATM   10  C1  UNL     1      28.340   0.032  53.848  1.00  0.00     0.362 C 
HETATM   11  H1  UNL     1      27.897  -0.047  51.854  1.00  0.00     0.167 HD
HETATM   12  O1  UNL     1      29.542   0.358  54.037  1.00  0.00    -0.238 OA
HETATM   13  O3  UNL     1      27.622  -0.219  55.033  1.00  0.00    -0.299 OA
ENDBRANCH   4   5
ENDBRANCH   1   3
BRANCH   2  14
HETATM   14  N2  UNL     1      23.681   4.512  51.308  1.00  0.00    -0.366 N 
HETATM   15  H7  UNL     1      23.080   5.353  51.407  1.00  0.00     0.165 HD
BRANCH  14  16
HETATM   16  C8  UNL     1      24.838   4.560  50.496  1.00  0.00     0.033 A 
HETATM   17  C9  UNL     1      25.600   3.427  50.263  1.00  0.00     0.032 A 
HETATM   18  C10 UNL     1      26.743   3.484  49.455  1.00  0.00     0.046 A 
HETATM   19  C11 UNL     1      27.064   4.725  48.910  1.00  0.00     0.138 A 
HETATM   20  F1  UNL     1      28.176   4.748  48.133  1.00  0.00    -0.204 F 
HETATM   21  C12 UNL     1      26.352   5.884  49.103  1.00  0.00     0.074 A 
HETATM   22 CL1  UNL     1      26.805   7.414  48.392  1.00  0.00    -0.081 Cl
HETATM   23  C13 UNL     1      25.247   5.719  49.912  1.00  0.00     0.056 A 
ENDBRANCH  14  16
ENDBRANCH   2  14
TORSDOF 4
ENDMDL
MODEL 3
REMARK VINA RESULT:      -7.6      3.508      5.687
REMARK  4 active torsions:
REMARK  status: ('A' for Active; 'I' for Inactive)
REMARK    1  A    between atoms: C3_5  and  C4_7 
REMARK    2  A    between atoms: C5_8  and  C6_9 
REMARK    3  A    between atoms: C7_10  and  N2_11 
REMARK    4  A    between atoms: N2_11  and  C8_12 
ROOT
HETATM    1  C6  UNL     1      24.645   2.963  51.259  1.00  0.00     0.017 C 
HETATM    2  C7  UNL     1      23.458   2.428  51.040  1.00  0.00     0.088 C 
ENDROOT
BRANCH   1   3
HETATM    3  C5  UNL     1      25.822   2.830  50.412  1.00  0.00     0.004 C 
HETATM    4  C4  UNL     1      26.766   2.418  51.233  1.00  0.00     0.037 C 
BRANCH   4   5
HETATM    5  C3  UNL     1      26.413   2.227  52.625  1.00  0.00     0.096 A 
HETATM    6  C2  UNL     1      26.983   1.073  53.364  1.00  0.00     0.264 A 
HETATM    7  N1  UNL     1      26.504   1.048  54.728  1.00  0.00    -0.306 N 
HETATM    8  C14 UNL     1      26.434  -0.209  52.792  1.00  0.00     0.237 C 
HETATM    9  O2  UNL     1      25.988   2.252  53.780  1.00  0.00    -0.322 OA
HETATM   10  C1  UNL     1      26.079  -0.269  55.063  1.00  0.00     0.362 C 
HETATM   11  H1  UNL     1      26.367   1.691  55.565  1.00  0.00     0.167 HD
HETATM   12  O1  UNL     1      25.564  -0.914  56.015  1.00  0.00    -0.238 OA
HETATM   13  O3  UNL     1      26.348  -1.050  53.923  1.00  0.00    -0.299 OA
ENDBRANCH   4   5
ENDBRANCH   1   3
BRANCH   2  14
HETATM   14  N2  UNL     1      22.110   2.206  51.410  1.00  0.00    -0.366 N 
HETATM   15  H7  UNL     1      21.336   2.805  51.061  1.00  0.00     0.165 HD
BRANCH  14  16
HETATM   16  C8  UNL     1      21.831   1.128  52.282  1.00  0.00     0.033 A 
HETATM   17  C9  UNL     1      22.826   0.557  53.059  1.00  0.00     0.032 A 
HETATM   18  C10 UNL     1      22.541  -0.508  53.922  1.00  0.00     0.046 A 
HETATM   19  C11 UNL     1      21.221  -0.955  53.952  1.00  0.00     0.138 A 
HETATM   20  F1  UNL     1      20.977  -1.987  54.797  1.00  0.00    -0.204 F 
HETATM   21  C12 UNL     1      20.191  -0.433  53.208  1.00  0.00     0.074 A 
HETATM   22 CL1  UNL     1      18.553  -1.035  53.290  1.00  0.00    -0.081 Cl
HETATM   23  C13 UNL     1      20.577   0.611  52.394  1.00  0.00     0.056 A 
ENDBRANCH  14  16
ENDBRANCH   2  14
TORSDOF 4
ENDMDL
MODEL 4
REMARK VINA RESULT:      -7.4      5.096      6.852
REMARK  4 active torsions:
REMARK  status: ('A' for Active; 'I' for Inactive)
REMARK    1  A    between atoms: C3_5  and  C4_7 
REMARK    2  A    between atoms: C5_8  and  C6_9 
REMARK    3  A    between atoms: C7_10  and  N2_11 
REMARK    4  A    between atoms: N2_11  and  C8_12 
ROOT
HETATM    1  C6  UNL     1      25.537   2.448  51.858  1.00  0.00     0.017 C 
HETATM    2  C7  UNL     1      25.551   2.853  50.602  1.00  0.00     0.088 C 
ENDROOT
BRANCH   1   3
HETATM    3  C5  UNL     1      24.358   2.152  52.659  1.00  0.00     0.004 C 
HETATM    4  C4  UNL     1      24.532   0.905  53.044  1.00  0.00     0.037 C 
BRANCH   4   5
HETATM    5  C3  UNL     1      25.737   0.227  52.609  1.00  0.00     0.096 A 
HETATM    6  C2  UNL     1      26.521  -0.559  53.593  1.00  0.00     0.264 A 
HETATM    7  N1  UNL     1      27.687  -1.146  52.972  1.00  0.00    -0.306 N 
HETATM    8  C14 UNL     1      27.119   0.372  54.616  1.00  0.00     0.237 C 
HETATM    9  O2  UNL     1      26.711  -0.260  52.035  1.00  0.00    -0.322 OA
HETATM   10  C1  UNL     1      28.830  -0.921  53.790  1.00  0.00     0.362 C 
HETATM   11  H1  UNL     1      27.971  -1.693  52.104  1.00  0.00     0.167 HD
HETATM   12  O1  UNL     1      30.073  -1.130  53.807  1.00  0.00    -0.238 OA
HETATM   13  O3  UNL     1      28.349  -0.246  54.928  1.00  0.00    -0.299 OA
ENDBRANCH   4   5
ENDBRANCH   1   3
BRANCH   2  14
HETATM   14  N2  UNL     1      26.244   3.250  49.433  1.00  0.00    -0.366 N 
HETATM   15  H7  UNL     1      26.550   2.567  48.713  1.00  0.00     0.165 HD
BRANCH  14  16
HETATM   16  C8  UNL     1      26.516   4.627  49.261  1.00  0.00     0.033 A 
HETATM   17  C9  UNL     1      25.687   5.596  49.803  1.00  0.00     0.032 A 
HETATM   18  C10 UNL     1      25.964   6.958  49.630  1.00  0.00     0.046 A 
HETATM   19  C11 UNL     1      27.103   7.276  48.892  1.00  0.00     0.138 A 
HETATM   20  F1  UNL     1      27.345   8.602  48.741  1.00  0.00    -0.204 F 
HETATM   21  C12 UNL     1      27.963   6.366  48.329  1.00  0.00     0.074 A 
HETATM   22 CL1  UNL     1      29.378   6.826  47.413  1.00  0.00    -0.081 Cl
HETATM   23  C13 UNL     1      27.600   5.055  48.559  1.00  0.00     0.056 A 
ENDBRANCH  14  16
ENDBRANCH   2  14
TORSDOF 4
ENDMDL
MODEL 5
REMARK VINA RESULT:      -7.4      2.296      3.314
REMARK  4 active torsions:
REMARK  status: ('A' for Active; 'I' for Inactive)
REMARK    1  A    between atoms: C3_5  and  C4_7 
REMARK    2  A    between atoms: C5_8  and  C6_9 
REMARK    3  A    between atoms: C7_10  and  N2_11 
REMARK    4  A    between atoms: N2_11  and  C8_12 
ROOT
HETATM    1  C6  UNL     1      23.223  -0.385  53.784  1.00  0.00     0.017 C 
HETATM    2  C7  UNL     1      24.418   0.168  53.684  1.00  0.00     0.088 C 
ENDROOT
BRANCH   1   3
HETATM    3  C5  UNL     1      22.722  -1.163  54.907  1.00  0.00     0.004 C 
HETATM    4  C4  UNL     1      21.440  -1.314  54.649  1.00  0.00     0.037 C 
BRANCH   4   5
HETATM    5  C3  UNL     1      20.922  -0.723  53.432  1.00  0.00     0.096 A 
HETATM    6  C2  UNL     1      19.496  -0.318  53.372  1.00  0.00     0.264 A 
HETATM    7  N1  UNL     1      19.171   0.237  52.077  1.00  0.00    -0.306 N 
HETATM    8  C14 UNL     1      18.624  -1.546  53.439  1.00  0.00     0.237 C 
HETATM    9  O2  UNL     1      20.695  -0.248  52.319  1.00  0.00    -0.322 OA
HETATM   10  C1  UNL     1      17.960  -0.337  51.599  1.00  0.00     0.362 C 
HETATM   11  H1  UNL     1      19.541   0.936  51.365  1.00  0.00     0.167 HD
HETATM   12  O1  UNL     1      17.199  -0.312  50.595  1.00  0.00    -0.238 OA
HETATM   13  O3  UNL     1      17.524  -1.199  52.625  1.00  0.00    -0.299 OA
ENDBRANCH   4   5
ENDBRANCH   1   3
BRANCH   2  14
HETATM   14  N2  UNL     1      25.378   0.930  52.976  1.00  0.00    -0.366 N 
HETATM   15  H7  UNL     1      25.108   1.703  52.338  1.00  0.00     0.165 HD
BRANCH  14  16
HETATM   16  C8  UNL     1      26.744   0.610  53.159  1.00  0.00     0.033 A 
HETATM   17  C9  UNL     1      27.687   1.596  53.397  1.00  0.00     0.032 A 
HETATM   18  C10 UNL     1      29.037   1.271  53.581  1.00  0.00     0.046 A 
HETATM   19  C11 UNL     1      29.371  -0.080  53.509  1.00  0.00     0.138 A 
HETATM   20  F1  UNL     1      30.685  -0.364  53.690  1.00  0.00    -0.204 F 
HETATM   21  C12 UNL     1      28.486  -1.104  53.276  1.00  0.00     0.074 A 
HETATM   22 CL1  UNL     1      28.965  -2.782  53.198  1.00  0.00    -0.081 Cl
HETATM   23  C13 UNL     1      27.185  -0.677  53.111  1.00  0.00     0.056 A 
ENDBRANCH  14  16
ENDBRANCH   2  14
TORSDOF 4
ENDMDL
MODEL 6
REMARK VINA RESULT:      -7.1      3.526      4.667
REMARK  4 active torsions:
REMARK  status: ('A' for Active; 'I' for Inactive)
REMARK    1  A    between atoms: C3_5  and  C4_7 
REMARK    2  A    between atoms: C5_8  and  C6_9 
REMARK    3  A    between atoms: C7_10  and  N2_11 
REMARK    4  A    between atoms: N2_11  and  C8_12 
ROOT
HETATM    1  C6  UNL     1      23.795   2.549  52.462  1.00  0.00     0.017 C 
HETATM    2  C7  UNL     1      25.065   2.301  52.200  1.00  0.00     0.088 C 
ENDROOT
BRANCH   1   3
HETATM    3  C5  UNL     1      22.653   1.760  52.023  1.00  0.00     0.004 C 
HETATM    4  C4  UNL     1      21.692   2.646  51.863  1.00  0.00     0.037 C 
BRANCH   4   5
HETATM    5  C3  UNL     1      22.001   4.034  52.139  1.00  0.00     0.096 A 
HETATM    6  C2  UNL     1      21.572   5.078  51.176  1.00  0.00     0.264 A 
HETATM    7  N1  UNL     1      21.982   6.391  51.621  1.00  0.00    -0.306 N 
HETATM    8  C14 UNL     1      22.330   4.910  49.885  1.00  0.00     0.237 C 
HETATM    9  O2  UNL     1      22.361   5.132  52.564  1.00  0.00    -0.322 OA
HETATM   10  C1  UNL     1      22.579   7.099  50.541  1.00  0.00     0.362 C 
HETATM   11  H1  UNL     1      21.982   7.002  52.493  1.00  0.00     0.167 HD
HETATM   12  O1  UNL     1      23.136   8.201  50.287  1.00  0.00    -0.238 OA
HETATM   13  O3  UNL     1      22.483   6.238  49.431  1.00  0.00    -0.299 OA
ENDBRANCH   4   5
ENDBRANCH   1   3
BRANCH   2  14
HETATM   14  N2  UNL     1      26.440   2.620  52.310  1.00  0.00    -0.366 N 
HETATM   15  H7  UNL     1      26.812   3.556  52.058  1.00  0.00     0.165 HD
BRANCH  14  16
HETATM   16  C8  UNL     1      27.317   1.615  52.781  1.00  0.00     0.033 A 
HETATM   17  C9  UNL     1      28.471   1.937  53.475  1.00  0.00     0.032 A 
HETATM   18  C10 UNL     1      29.333   0.936  53.941  1.00  0.00     0.046 A 
HETATM   19  C11 UNL     1      28.969  -0.381  53.667  1.00  0.00     0.138 A 
HETATM   20  F1  UNL     1      29.824  -1.328  54.130  1.00  0.00    -0.204 F 
HETATM   21  C12 UNL     1      27.842  -0.766  52.984  1.00  0.00     0.074 A 
HETATM   22 CL1  UNL     1      27.437  -2.437  52.671  1.00  0.00    -0.081 Cl
HETATM   23  C13 UNL     1      27.063   0.294  52.571  1.00  0.00     0.056 A 
ENDBRANCH  14  16
ENDBRANCH   2  14
TORSDOF 4
ENDMDL
MODEL 7
REMARK VINA RESULT:      -7.1      4.847      6.896
REMARK  4 active torsions:
REMARK  status: ('A' for Active; 'I' for Inactive)
REMARK    1  A    between atoms: C3_5  and  C4_7 
REMARK    2  A    between atoms: C5_8  and  C6_9 
REMARK    3  A    between atoms: C7_10  and  N2_11 
REMARK    4  A    between atoms: N2_11  and  C8_12 
ROOT
HETATM    1  C6  UNL     1      23.602   4.026  52.588  1.00  0.00     0.017 C 
HETATM    2  C7  UNL     1      23.599   5.247  52.087  1.00  0.00     0.088 C 
ENDROOT
BRANCH   1   3
HETATM    3  C5  UNL     1      22.679   2.951  52.250  1.00  0.00     0.004 C 
HETATM    4  C4  UNL     1      23.313   1.855  52.613  1.00  0.00     0.037 C 
BRANCH   4   5
HETATM    5  C3  UNL     1      24.632   2.000  53.195  1.00  0.00     0.096 A 
HETATM    6  C2  UNL     1      25.640   0.932  52.980  1.00  0.00     0.264 A 
HETATM    7  N1  UNL     1      26.881   1.253  53.646  1.00  0.00    -0.306 N 
HETATM    8  C14 UNL     1      25.196  -0.325  53.683  1.00  0.00     0.237 C 
HETATM    9  O2  UNL     1      25.672   2.320  53.770  1.00  0.00    -0.322 OA
HETATM   10  C1  UNL     1      27.346   0.118  54.369  1.00  0.00     0.362 C 
HETATM   11  H1  UNL     1      27.564   2.061  53.773  1.00  0.00     0.167 HD
HETATM   12  O1  UNL     1      28.283  -0.234  55.134  1.00  0.00    -0.238 OA
HETATM   13  O3  UNL     1      26.415  -0.904  54.097  1.00  0.00    -0.299 OA
ENDBRANCH   4   5
ENDBRANCH   1   3
BRANCH   2  14
HETATM   14  N2  UNL     1      24.135   6.555  52.003  1.00  0.00    -0.366 N 
HETATM   15  H7  UNL     1      24.157   7.197  52.819  1.00  0.00     0.165 HD
BRANCH  14  16
HETATM   16  C8  UNL     1      24.651   6.979  50.756  1.00  0.00     0.033 A 
HETATM   17  C9  UNL     1      24.128   8.081  50.100  1.00  0.00     0.032 A 
HETATM   18  C10 UNL     1      24.647   8.497  48.867  1.00  0.00     0.046 A 
HETATM   19  C11 UNL     1      25.701   7.748  48.347  1.00  0.00     0.138 A 
HETATM   20  F1  UNL     1      26.181   8.174  47.152  1.00  0.00    -0.204 F 
HETATM   21  C12 UNL     1      26.263   6.648  48.946  1.00  0.00     0.074 A 
HETATM   22 CL1  UNL     1      27.587   5.749  48.244  1.00  0.00    -0.081 Cl
HETATM   23  C13 UNL     1      25.681   6.324  50.154  1.00  0.00     0.056 A 
ENDBRANCH  14  16
ENDBRANCH   2  14
TORSDOF 4
ENDMDL
MODEL 8
REMARK VINA RESULT:      -7.1      4.994      7.043
REMARK  4 active torsions:
REMARK  status: ('A' for Active; 'I' for Inactive)
REMARK    1  A    between atoms: C3_5  and  C4_7 
REMARK    2  A    between atoms: C5_8  and  C6_9 
REMARK    3  A    between atoms: C7_10  and  N2_11 
REMARK    4  A    between atoms: N2_11  and  C8_12 
ROOT
HETATM    1  C6  UNL     1      24.971   1.969  51.407  1.00  0.00     0.017 C 
HETATM    2  C7  UNL     1      25.518   3.147  51.169  1.00  0.00     0.088 C 
ENDROOT
BRANCH   1   3
HETATM    3  C5  UNL     1      23.986   1.666  52.435  1.00  0.00     0.004 C 
HETATM    4  C4  UNL     1      24.487   0.623  53.064  1.00  0.00     0.037 C 
BRANCH   4   5
HETATM    5  C3  UNL     1      25.761   0.107  52.607  1.00  0.00     0.096 A 
HETATM    6  C2  UNL     1      26.604  -0.677  53.543  1.00  0.00     0.264 A 
HETATM    7  N1  UNL     1      27.834  -1.091  52.907  1.00  0.00    -0.306 N 
HETATM    8  C14 UNL     1      27.085   0.219  54.655  1.00  0.00     0.237 C 
HETATM    9  O2  UNL     1      26.790  -0.231  52.021  1.00  0.00    -0.322 OA
HETATM   10  C1  UNL     1      28.934  -0.823  53.770  1.00  0.00     0.362 C 
HETATM   11  H1  UNL     1      28.187  -1.532  52.004  1.00  0.00     0.167 HD
HETATM   12  O1  UNL     1      30.191  -0.908  53.802  1.00  0.00    -0.238 OA
HETATM   13  O3  UNL     1      28.366  -0.298  54.947  1.00  0.00    -0.299 OA
ENDBRANCH   4   5
ENDBRANCH   1   3
BRANCH   2  14
HETATM   14  N2  UNL     1      26.395   3.983  50.437  1.00  0.00    -0.366 N 
HETATM   15  H7  UNL     1      27.428   3.902  50.514  1.00  0.00     0.165 HD
BRANCH  14  16
HETATM   16  C8  UNL     1      25.825   4.951  49.578  1.00  0.00     0.033 A 
HETATM   17  C9  UNL     1      26.600   5.939  48.994  1.00  0.00     0.032 A 
HETATM   18  C10 UNL     1      26.028   6.893  48.143  1.00  0.00     0.046 A 
HETATM   19  C11 UNL     1      24.655   6.793  47.923  1.00  0.00     0.138 A 
HETATM   20  F1  UNL     1      24.130   7.730  47.095  1.00  0.00    -0.204 F 
HETATM   21  C12 UNL     1      23.832   5.840  48.471  1.00  0.00     0.074 A 
HETATM   22 CL1  UNL     1      22.115   5.765  48.157  1.00  0.00    -0.081 Cl
HETATM   23  C13 UNL     1      24.494   4.951  49.291  1.00  0.00     0.056 A 
ENDBRANCH  14  16
ENDBRANCH   2  14
TORSDOF 4
ENDMDL
MODEL 9
REMARK VINA RESULT:      -6.7      4.471      5.617
REMARK  4 active torsions:
REMARK  status: ('A' for Active; 'I' for Inactive)
REMARK    1  A    between atoms: C3_5  and  C4_7 
REMARK    2  A    between atoms: C5_8  and  C6_9 
REMARK    3  A    between atoms: C7_10  and  N2_11 
REMARK    4  A    between atoms: N2_11  and  C8_12 
ROOT
HETATM    1  C6  UNL     1      24.169   2.363  52.360  1.00  0.00     0.017 C 
HETATM    2  C7  UNL     1      24.600   3.331  51.573  1.00  0.00     0.088 C 
ENDROOT
BRANCH   1   3
HETATM    3  C5  UNL     1      24.980   1.317  52.967  1.00  0.00     0.004 C 
HETATM    4  C4  UNL     1      24.109   0.388  53.304  1.00  0.00     0.037 C 
BRANCH   4   5
HETATM    5  C3  UNL     1      22.712   0.634  53.009  1.00  0.00     0.096 A 
HETATM    6  C2  UNL     1      21.674   0.119  53.936  1.00  0.00     0.264 A 
HETATM    7  N1  UNL     1      20.349   0.454  53.464  1.00  0.00    -0.306 N 
HETATM    8  C14 UNL     1      21.672  -1.388  53.898  1.00  0.00     0.237 C 
HETATM    9  O2  UNL     1      21.605   0.951  52.574  1.00  0.00    -0.322 OA
HETATM   10  C1  UNL     1      19.511  -0.694  53.531  1.00  0.00     0.362 C 
HETATM   11  H1  UNL     1      19.794   1.280  53.084  1.00  0.00     0.167 HD
HETATM   12  O1  UNL     1      18.336  -1.061  53.259  1.00  0.00    -0.238 OA
HETATM   13  O3  UNL     1      20.311  -1.709  54.092  1.00  0.00    -0.299 OA
ENDBRANCH   4   5
ENDBRANCH   1   3
BRANCH   2  14
HETATM   14  N2  UNL     1      24.371   4.482  50.781  1.00  0.00    -0.366 N 
HETATM   15  H7  UNL     1      23.460   4.981  50.783  1.00  0.00     0.165 HD
BRANCH  14  16
HETATM   16  C8  UNL     1      25.431   4.949  49.970  1.00  0.00     0.033 A 
HETATM   17  C9  UNL     1      26.458   4.107  49.576  1.00  0.00     0.032 A 
HETATM   18  C10 UNL     1      27.503   4.576  48.770  1.00  0.00     0.046 A 
HETATM   19  C11 UNL     1      27.451   5.918  48.395  1.00  0.00     0.138 A 
HETATM   20  F1  UNL     1      28.477   6.343  47.616  1.00  0.00    -0.204 F 
HETATM   21  C12 UNL     1      26.463   6.803  48.752  1.00  0.00     0.074 A 
HETATM   22 CL1  UNL     1      26.452   8.476  48.250  1.00  0.00    -0.081 Cl
HETATM   23  C13 UNL     1      25.484   6.240  49.543  1.00  0.00     0.056 A 
ENDBRANCH  14  16
ENDBRANCH   2  14
TORSDOF 4
ENDMDL
