MODEL 1
REMARK VINA RESULT:      -8.6      0.000      0.000
REMARK  0 active torsions:
REMARK  status: ('A' for Active; 'I' for Inactive)
ROOT
HETATM    1  C1  UNL     1      22.322   1.796  47.834  1.00  0.00     0.027 C 
HETATM    2  C2  UNL     1      22.194   2.455  49.133  1.00  0.00     0.026 C 
HETATM    3  C3  UNL     1      20.959   3.433  49.089  1.00  0.00     0.142 C 
HETATM    4  N1  UNL     1      21.200   4.577  50.023  1.00  0.00    -0.370 N 
HETATM    5  C4  UNL     1      21.127   5.010  51.452  1.00  0.00     0.122 C 
HETATM    6  C5  UNL     1      21.922   4.025  51.951  1.00  0.00     0.101 C 
HETATM    7  C6  UNL     1      20.685   3.215  52.292  1.00  0.00     0.100 C 
HETATM    8  C7  UNL     1      20.431   1.956  52.808  1.00  0.00     0.069 C 
HETATM    9  N2  UNL     1      20.517   0.545  53.380  1.00  0.00    -0.387 N 
HETATM   10  C8  UNL     1      20.909   0.222  51.897  1.00  0.00     0.052 A 
HETATM   11  C9  UNL     1      22.167   0.008  52.346  1.00  0.00    -0.008 A 
HETATM   12  C10 UNL     1      22.109   0.804  51.280  1.00  0.00     0.067 A 
HETATM   13  C11 UNL     1      21.956   1.593  50.212  1.00  0.00    -0.066 A 
HETATM   14  C12 UNL     1      20.783   1.050  50.776  1.00  0.00     0.067 A 
HETATM   15  C13 UNL     1      19.695   0.524  51.331  1.00  0.00    -0.008 A 
HETATM   16  O1  UNL     1      23.324   4.237  51.896  1.00  0.00    -0.243 OA
HETATM   17  N3  UNL     1      24.133   3.533  51.002  1.00  0.00    -0.272 N 
HETATM   18  C14 UNL     1      24.258   4.179  49.713  1.00  0.00     0.130 A 
HETATM   19  C15 UNL     1      23.298   3.421  49.343  1.00  0.00     0.005 A 
HETATM   20  S1  UNL     1      23.140   4.934  48.316  1.00  0.00    -0.127 SA
HETATM   21  C16 UNL     1      21.657   5.672  49.190  1.00  0.00     0.166 C 
HETATM   22  C17 UNL     1      22.039   6.897  49.814  1.00  0.00     0.008 C 
HETATM   23  C18 UNL     1      22.908   7.713  50.394  1.00  0.00    -0.001 C 
HETATM   24  C19 UNL     1      24.346   7.551  50.719  1.00  0.00    -0.004 C 
HETATM   25  C20 UNL     1      24.970   6.413  50.453  1.00  0.00    -0.023 C 
HETATM   26  C21 UNL     1      25.359   5.064  50.050  1.00  0.00     0.076 C 
HETATM   27  H9  UNL     1      20.246   0.798  54.389  1.00  0.00     0.160 HD
HETATM   28  H14 UNL     1      24.192   2.901  51.829  1.00  0.00     0.190 HD
ENDROOT
TORSDOF 0
ENDMDL
MODEL 2
REMARK VINA RESULT:      -8.6      2.455      3.819
REMARK  0 active torsions:
REMARK  status: ('A' for Active; 'I' for Inactive)
ROOT
HETATM    1  C1  UNL     1      26.967   3.956  49.348  1.00  0.00     0.027 C 
HETATM    2  C2  UNL     1      25.796   3.618  50.157  1.00  0.00     0.026 C 
HETATM    3  C3  UNL     1      24.827   2.717  49.301  1.00  0.00     0.142 C 
HETATM    4  N1  UNL     1      23.418   2.942  49.749  1.00  0.00    -0.370 N 
HETATM    5  C4  UNL     1      22.398   2.564  50.774  1.00  0.00     0.122 C 
HETATM    6  C5  UNL     1      23.133   2.924  51.861  1.00  0.00     0.101 C 
HETATM    7  C6  UNL     1      23.594   1.486  52.012  1.00  0.00     0.100 C 
HETATM    8  C7  UNL     1      24.471   0.803  52.837  1.00  0.00     0.069 C 
HETATM    9  N2  UNL     1      25.490   0.384  53.891  1.00  0.00    -0.387 N 
HETATM   10  C8  UNL     1      26.464   1.099  52.893  1.00  0.00     0.052 A 
HETATM   11  C9  UNL     1      26.575   2.086  53.812  1.00  0.00    -0.008 A 
HETATM   12  C10 UNL     1      26.324   2.529  52.581  1.00  0.00     0.067 A 
HETATM   13  C11 UNL     1      26.073   2.881  51.316  1.00  0.00    -0.066 A 
HETATM   14  C12 UNL     1      26.203   1.502  51.579  1.00  0.00     0.067 A 
HETATM   15  C13 UNL     1      26.330   0.208  51.857  1.00  0.00    -0.008 A 
HETATM   16  O1  UNL     1      23.096   4.291  52.242  1.00  0.00    -0.243 OA
HETATM   17  N3  UNL     1      24.192   5.132  52.040  1.00  0.00    -0.272 N 
HETATM   18  C14 UNL     1      24.190   5.774  50.743  1.00  0.00     0.130 A 
HETATM   19  C15 UNL     1      24.941   4.810  50.369  1.00  0.00     0.005 A 
HETATM   20  S1  UNL     1      24.024   5.319  48.863  1.00  0.00    -0.127 SA
HETATM   21  C16 UNL     1      22.846   3.865  48.789  1.00  0.00     0.166 C 
HETATM   22  C17 UNL     1      21.512   4.330  48.993  1.00  0.00     0.008 C 
HETATM   23  C18 UNL     1      20.607   5.161  49.492  1.00  0.00    -0.001 C 
HETATM   24  C19 UNL     1      20.743   6.363  50.351  1.00  0.00    -0.004 C 
HETATM   25  C20 UNL     1      21.934   6.749  50.782  1.00  0.00    -0.023 C 
HETATM   26  C21 UNL     1      23.353   6.907  51.092  1.00  0.00     0.076 C 
HETATM   27  H9  UNL     1      24.797  -0.099  54.555  1.00  0.00     0.160 HD
HETATM   28  H14 UNL     1      24.400   4.798  53.006  1.00  0.00     0.190 HD
ENDROOT
TORSDOF 0
ENDMDL
MODEL 3
REMARK VINA RESULT:      -8.5      8.713     11.358
REMARK  0 active torsions:
REMARK  status: ('A' for Active; 'I' for Inactive)
ROOT
HETATM    1  C1  UNL     1      33.811   8.853  45.792  1.00  0.00     0.027 C 
HETATM    2  C2  UNL     1      33.057   7.934  46.644  1.00  0.00     0.026 C 
HETATM    3  C3  UNL     1      31.986   7.186  45.763  1.00  0.00     0.142 C 
HETATM    4  N1  UNL     1      30.806   6.834  46.612  1.00  0.00    -0.370 N 
HETATM    5  C4  UNL     1      30.271   5.840  47.593  1.00  0.00     0.122 C 
HETATM    6  C5  UNL     1      31.282   5.959  48.496  1.00  0.00     0.101 C 
HETATM    7  C6  UNL     1      31.963   4.753  47.876  1.00  0.00     0.100 C 
HETATM    8  C7  UNL     1      33.159   4.080  48.061  1.00  0.00     0.069 C 
HETATM    9  N2  UNL     1      34.530   3.598  48.520  1.00  0.00    -0.387 N 
HETATM   10  C8  UNL     1      34.984   4.868  47.723  1.00  0.00     0.052 A 
HETATM   11  C9  UNL     1      35.270   5.434  48.917  1.00  0.00    -0.008 A 
HETATM   12  C10 UNL     1      34.546   6.215  48.117  1.00  0.00     0.067 A 
HETATM   13  C11 UNL     1      33.821   6.927  47.248  1.00  0.00    -0.066 A 
HETATM   14  C12 UNL     1      34.226   5.641  46.835  1.00  0.00     0.067 A 
HETATM   15  C13 UNL     1      34.622   4.423  46.475  1.00  0.00    -0.008 A 
HETATM   16  O1  UNL     1      31.191   7.022  49.432  1.00  0.00    -0.243 OA
HETATM   17  N3  UNL     1      32.018   8.143  49.344  1.00  0.00    -0.272 N 
HETATM   18  C14 UNL     1      31.473   9.192  48.508  1.00  0.00     0.130 A 
HETATM   19  C15 UNL     1      32.172   8.681  47.570  1.00  0.00     0.005 A 
HETATM   20  S1  UNL     1      30.725   9.438  46.734  1.00  0.00    -0.127 SA
HETATM   21  C16 UNL     1      29.811   7.852  46.338  1.00  0.00     0.166 C 
HETATM   22  C17 UNL     1      28.581   7.825  47.062  1.00  0.00     0.008 C 
HETATM   23  C18 UNL     1      27.802   8.132  48.091  1.00  0.00    -0.001 C 
HETATM   24  C19 UNL     1      28.060   8.918  49.321  1.00  0.00    -0.004 C 
HETATM   25  C20 UNL     1      29.260   9.427  49.553  1.00  0.00    -0.023 C 
HETATM   26  C21 UNL     1      30.661   9.840  49.523  1.00  0.00     0.076 C 
HETATM   27  H9  UNL     1      34.188   2.734  49.060  1.00  0.00     0.160 HD
HETATM   28  H14 UNL     1      32.595   7.546  49.975  1.00  0.00     0.190 HD
ENDROOT
TORSDOF 0
ENDMDL
MODEL 4
REMARK VINA RESULT:      -8.3      2.303      2.904
REMARK  0 active torsions:
REMARK  status: ('A' for Active; 'I' for Inactive)
ROOT
HETATM    1  C1  UNL     1      22.669   2.213  48.104  1.00  0.00     0.027 C 
HETATM    2  C2  UNL     1      22.946   3.181  49.164  1.00  0.00     0.026 C 
HETATM    3  C3  UNL     1      21.635   3.396  50.013  1.00  0.00     0.142 C 
HETATM    4  N1  UNL     1      21.631   4.782  50.575  1.00  0.00    -0.370 N 
HETATM    5  C4  UNL     1      22.146   5.642  51.684  1.00  0.00     0.122 C 
HETATM    6  C5  UNL     1      23.467   5.395  51.468  1.00  0.00     0.101 C 
HETATM    7  C6  UNL     1      23.428   4.313  52.529  1.00  0.00     0.100 C 
HETATM    8  C7  UNL     1      24.317   3.377  53.031  1.00  0.00     0.069 C 
HETATM    9  N2  UNL     1      25.522   2.494  53.334  1.00  0.00    -0.387 N 
HETATM   10  C8  UNL     1      25.095   1.847  51.972  1.00  0.00     0.052 A 
HETATM   11  C9  UNL     1      26.199   2.413  51.433  1.00  0.00    -0.008 A 
HETATM   12  C10 UNL     1      25.090   2.626  50.725  1.00  0.00     0.067 A 
HETATM   13  C11 UNL     1      23.930   2.787  50.081  1.00  0.00    -0.066 A 
HETATM   14  C12 UNL     1      23.897   2.034  51.272  1.00  0.00     0.067 A 
HETATM   15  C13 UNL     1      23.897   1.328  52.399  1.00  0.00    -0.008 A 
HETATM   16  O1  UNL     1      24.116   6.180  50.479  1.00  0.00    -0.243 OA
HETATM   17  N3  UNL     1      24.487   5.637  49.247  1.00  0.00    -0.272 N 
HETATM   18  C14 UNL     1      23.445   5.726  48.246  1.00  0.00     0.130 A 
HETATM   19  C15 UNL     1      23.130   4.540  48.602  1.00  0.00     0.005 A 
HETATM   20  S1  UNL     1      21.565   5.300  48.019  1.00  0.00    -0.127 SA
HETATM   21  C16 UNL     1      20.775   5.556  49.698  1.00  0.00     0.166 C 
HETATM   22  C17 UNL     1      20.627   6.955  49.940  1.00  0.00     0.008 C 
HETATM   23  C18 UNL     1      20.976   8.227  49.802  1.00  0.00    -0.001 C 
HETATM   24  C19 UNL     1      22.082   8.869  49.051  1.00  0.00    -0.004 C 
HETATM   25  C20 UNL     1      22.959   8.131  48.387  1.00  0.00    -0.023 C 
HETATM   26  C21 UNL     1      23.748   7.065  47.775  1.00  0.00     0.076 C 
HETATM   27  H9  UNL     1      25.791   2.959  54.265  1.00  0.00     0.160 HD
HETATM   28  H14 UNL     1      25.364   5.468  49.786  1.00  0.00     0.190 HD
ENDROOT
TORSDOF 0
ENDMDL
MODEL 5
REMARK VINA RESULT:      -8.2      1.757      3.265
REMARK  0 active torsions:
REMARK  status: ('A' for Active; 'I' for Inactive)
ROOT
HETATM    1  C1  UNL     1      24.979   2.493  53.291  1.00  0.00     0.027 C 
HETATM    2  C2  UNL     1      23.740   2.351  52.528  1.00  0.00     0.026 C 
HETATM    3  C3  UNL     1      24.074   1.708  51.128  1.00  0.00     0.142 C 
HETATM    4  N1  UNL     1      23.081   2.183  50.115  1.00  0.00    -0.370 N 
HETATM    5  C4  UNL     1      21.709   1.960  49.567  1.00  0.00     0.122 C 
HETATM    6  C5  UNL     1      21.048   2.108  50.747  1.00  0.00     0.101 C 
HETATM    7  C6  UNL     1      21.054   0.602  50.927  1.00  0.00     0.100 C 
HETATM    8  C7  UNL     1      20.651  -0.285  51.911  1.00  0.00     0.069 C 
HETATM    9  N2  UNL     1      20.112  -0.953  53.171  1.00  0.00    -0.387 N 
HETATM   10  C8  UNL     1      21.452  -0.394  53.758  1.00  0.00     0.052 A 
HETATM   11  C9  UNL     1      20.702   0.501  54.442  1.00  0.00    -0.008 A 
HETATM   12  C10 UNL     1      21.728   1.050  53.792  1.00  0.00     0.067 A 
HETATM   13  C11 UNL     1      22.780   1.513  53.110  1.00  0.00    -0.066 A 
HETATM   14  C12 UNL     1      22.547   0.124  53.057  1.00  0.00     0.067 A 
HETATM   15  C13 UNL     1      22.303  -1.183  53.024  1.00  0.00    -0.008 A 
HETATM   16  O1  UNL     1      20.736   3.433  51.151  1.00  0.00    -0.243 OA
HETATM   17  N3  UNL     1      21.411   4.050  52.205  1.00  0.00    -0.272 N 
HETATM   18  C14 UNL     1      22.608   4.748  51.789  1.00  0.00     0.130 A 
HETATM   19  C15 UNL     1      23.230   3.676  52.101  1.00  0.00     0.005 A 
HETATM   20  S1  UNL     1      24.225   4.437  50.760  1.00  0.00    -0.127 SA
HETATM   21  C16 UNL     1      23.743   3.251  49.392  1.00  0.00     0.166 C 
HETATM   22  C17 UNL     1      23.012   3.960  48.392  1.00  0.00     0.008 C 
HETATM   23  C18 UNL     1      22.207   4.926  47.970  1.00  0.00    -0.001 C 
HETATM   24  C19 UNL     1      21.530   6.029  48.693  1.00  0.00    -0.004 C 
HETATM   25  C20 UNL     1      21.656   6.147  50.007  1.00  0.00    -0.023 C 
HETATM   26  C21 UNL     1      21.979   6.004  51.424  1.00  0.00     0.076 C 
HETATM   27  H9  UNL     1      19.200  -1.324  52.739  1.00  0.00     0.160 HD
HETATM   28  H14 UNL     1      20.611   3.630  52.728  1.00  0.00     0.190 HD
ENDROOT
TORSDOF 0
ENDMDL
MODEL 6
REMARK VINA RESULT:      -8.1      5.641      8.196
REMARK  0 active torsions:
REMARK  status: ('A' for Active; 'I' for Inactive)
ROOT
HETATM    1  C1  UNL     1      28.777   5.944  47.970  1.00  0.00     0.027 C 
HETATM    2  C2  UNL     1      28.114   7.228  48.193  1.00  0.00     0.026 C 
HETATM    3  C3  UNL     1      27.743   7.859  46.797  1.00  0.00     0.142 C 
HETATM    4  N1  UNL     1      27.749   9.350  46.911  1.00  0.00    -0.370 N 
HETATM    5  C4  UNL     1      26.946  10.537  47.338  1.00  0.00     0.122 C 
HETATM    6  C5  UNL     1      26.734  10.125  48.617  1.00  0.00     0.101 C 
HETATM    7  C6  UNL     1      25.391   9.556  48.201  1.00  0.00     0.100 C 
HETATM    8  C7  UNL     1      24.384   8.830  48.814  1.00  0.00     0.069 C 
HETATM    9  N2  UNL     1      23.499   8.051  49.780  1.00  0.00    -0.387 N 
HETATM   10  C8  UNL     1      24.587   6.953  49.521  1.00  0.00     0.052 A 
HETATM   11  C9  UNL     1      25.016   7.175  50.785  1.00  0.00    -0.008 A 
HETATM   12  C10 UNL     1      25.995   7.173  49.881  1.00  0.00     0.067 A 
HETATM   13  C11 UNL     1      26.910   7.155  48.907  1.00  0.00    -0.066 A 
HETATM   14  C12 UNL     1      25.570   6.938  48.526  1.00  0.00     0.067 A 
HETATM   15  C13 UNL     1      24.297   6.737  48.196  1.00  0.00    -0.008 A 
HETATM   16  O1  UNL     1      27.756  10.404  49.562  1.00  0.00    -0.243 OA
HETATM   17  N3  UNL     1      28.575   9.392  50.068  1.00  0.00    -0.272 N 
HETATM   18  C14 UNL     1      29.756   9.157  49.265  1.00  0.00     0.130 A 
HETATM   19  C15 UNL     1      29.075   8.236  48.699  1.00  0.00     0.005 A 
HETATM   20  S1  UNL     1      30.252   8.820  47.418  1.00  0.00    -0.127 SA
HETATM   21  C16 UNL     1      29.027   9.778  46.375  1.00  0.00     0.166 C 
HETATM   22  C17 UNL     1      29.359  11.165  46.413  1.00  0.00     0.008 C 
HETATM   23  C18 UNL     1      29.868  12.249  46.983  1.00  0.00    -0.001 C 
HETATM   24  C19 UNL     1      30.515  12.456  48.301  1.00  0.00    -0.004 C 
HETATM   25  C20 UNL     1      30.631  11.452  49.158  1.00  0.00    -0.023 C 
HETATM   26  C21 UNL     1      30.600  10.174  49.865  1.00  0.00     0.076 C 
HETATM   27  H9  UNL     1      22.769   8.823  49.939  1.00  0.00     0.160 HD
HETATM   28  H14 UNL     1      27.819   9.384  50.786  1.00  0.00     0.190 HD
ENDROOT
TORSDOF 0
ENDMDL
MODEL 7
REMARK VINA RESULT:      -8.1      5.691      8.243
REMARK  0 active torsions:
REMARK  status: ('A' for Active; 'I' for Inactive)
ROOT
HETATM    1  C1  UNL     1      27.383   8.266  45.163  1.00  0.00     0.027 C 
HETATM    2  C2  UNL     1      27.470   8.525  46.600  1.00  0.00     0.026 C 
HETATM    3  C3  UNL     1      26.438   9.655  46.978  1.00  0.00     0.142 C 
HETATM    4  N1  UNL     1      26.951  10.419  48.156  1.00  0.00    -0.370 N 
HETATM    5  C4  UNL     1      27.058  10.418  49.648  1.00  0.00     0.122 C 
HETATM    6  C5  UNL     1      27.688   9.217  49.754  1.00  0.00     0.101 C 
HETATM    7  C6  UNL     1      26.349   8.549  50.002  1.00  0.00     0.100 C 
HETATM    8  C7  UNL     1      25.901   7.250  50.175  1.00  0.00     0.069 C 
HETATM    9  N2  UNL     1      25.763   5.738  50.316  1.00  0.00    -0.387 N 
HETATM   10  C8  UNL     1      25.984   5.809  48.767  1.00  0.00     0.052 A 
HETATM   11  C9  UNL     1      27.208   5.276  48.985  1.00  0.00    -0.008 A 
HETATM   12  C10 UNL     1      27.227   6.350  48.197  1.00  0.00     0.067 A 
HETATM   13  C11 UNL     1      27.150   7.432  47.416  1.00  0.00    -0.066 A 
HETATM   14  C12 UNL     1      25.938   6.940  47.944  1.00  0.00     0.067 A 
HETATM   15  C13 UNL     1      24.812   6.453  48.457  1.00  0.00    -0.008 A 
HETATM   16  O1  UNL     1      29.099   9.211  49.594  1.00  0.00    -0.243 OA
HETATM   17  N3  UNL     1      29.699   8.683  48.449  1.00  0.00    -0.272 N 
HETATM   18  C14 UNL     1      29.853   9.652  47.385  1.00  0.00     0.130 A 
HETATM   19  C15 UNL     1      28.746   9.199  46.937  1.00  0.00     0.005 A 
HETATM   20  S1  UNL     1      28.802  10.952  46.398  1.00  0.00    -0.127 SA
HETATM   21  C16 UNL     1      27.545  11.625  47.613  1.00  0.00     0.166 C 
HETATM   22  C17 UNL     1      28.191  12.535  48.502  1.00  0.00     0.008 C 
HETATM   23  C18 UNL     1      29.234  12.996  49.179  1.00  0.00    -0.001 C 
HETATM   24  C19 UNL     1      30.635  12.519  49.271  1.00  0.00    -0.004 C 
HETATM   25  C20 UNL     1      31.017  11.426  48.626  1.00  0.00    -0.023 C 
HETATM   26  C21 UNL     1      31.120  10.212  47.820  1.00  0.00     0.076 C 
HETATM   27  H9  UNL     1      25.614   5.722  51.381  1.00  0.00     0.160 HD
HETATM   28  H14 UNL     1      29.696   7.834  49.054  1.00  0.00     0.190 HD
ENDROOT
TORSDOF 0
ENDMDL
MODEL 8
REMARK VINA RESULT:      -7.9      1.778      5.530
REMARK  0 active torsions:
REMARK  status: ('A' for Active; 'I' for Inactive)
ROOT
HETATM    1  C1  UNL     1      22.069   3.468  47.712  1.00  0.00     0.027 C 
HETATM    2  C2  UNL     1      22.298   3.777  49.123  1.00  0.00     0.026 C 
HETATM    3  C3  UNL     1      23.625   3.068  49.592  1.00  0.00     0.142 C 
HETATM    4  N1  UNL     1      23.527   2.748  51.049  1.00  0.00    -0.370 N 
HETATM    5  C4  UNL     1      23.682   3.310  52.426  1.00  0.00     0.122 C 
HETATM    6  C5  UNL     1      22.803   4.337  52.271  1.00  0.00     0.101 C 
HETATM    7  C6  UNL     1      23.958   5.259  51.930  1.00  0.00     0.100 C 
HETATM    8  C7  UNL     1      24.096   6.578  51.529  1.00  0.00     0.069 C 
HETATM    9  N2  UNL     1      23.880   8.026  51.106  1.00  0.00    -0.387 N 
HETATM   10  C8  UNL     1      23.418   7.325  49.783  1.00  0.00     0.052 A 
HETATM   11  C9  UNL     1      22.157   7.692  50.106  1.00  0.00    -0.008 A 
HETATM   12  C10 UNL     1      22.268   6.409  49.765  1.00  0.00     0.067 A 
HETATM   13  C11 UNL     1      22.474   5.137  49.409  1.00  0.00    -0.066 A 
HETATM   14  C12 UNL     1      23.599   5.987  49.413  1.00  0.00     0.067 A 
HETATM   15  C13 UNL     1      24.642   6.813  49.427  1.00  0.00    -0.008 A 
HETATM   16  O1  UNL     1      21.429   4.049  52.479  1.00  0.00    -0.243 OA
HETATM   17  N3  UNL     1      20.530   3.985  51.413  1.00  0.00    -0.272 N 
HETATM   18  C14 UNL     1      20.438   2.668  50.820  1.00  0.00     0.130 A 
HETATM   19  C15 UNL     1      21.305   3.087  49.980  1.00  0.00     0.005 A 
HETATM   20  S1  UNL     1      21.590   1.278  50.105  1.00  0.00    -0.127 SA
HETATM   21  C16 UNL     1      23.164   1.346  51.118  1.00  0.00     0.166 C 
HETATM   22  C17 UNL     1      22.926   0.760  52.398  1.00  0.00     0.008 C 
HETATM   23  C18 UNL     1      22.161   0.433  53.431  1.00  0.00    -0.001 C 
HETATM   24  C19 UNL     1      20.723   0.671  53.704  1.00  0.00    -0.004 C 
HETATM   25  C20 UNL     1      19.979   1.349  52.843  1.00  0.00    -0.023 C 
HETATM   26  C21 UNL     1      19.443   2.121  51.725  1.00  0.00     0.076 C 
HETATM   27  H9  UNL     1      24.201   8.479  52.026  1.00  0.00     0.160 HD
HETATM   28  H14 UNL     1      20.427   4.990  51.670  1.00  0.00     0.190 HD
ENDROOT
TORSDOF 0
ENDMDL
MODEL 9
REMARK VINA RESULT:      -7.9      8.258     11.239
REMARK  0 active torsions:
REMARK  status: ('A' for Active; 'I' for Inactive)
ROOT
HETATM    1  C1  UNL     1      31.132   8.009  44.294  1.00  0.00     0.027 C 
HETATM    2  C2  UNL     1      31.195   7.806  45.741  1.00  0.00     0.026 C 
HETATM    3  C3  UNL     1      32.096   8.932  46.376  1.00  0.00     0.142 C 
HETATM    4  N1  UNL     1      32.753   8.404  47.611  1.00  0.00    -0.370 N 
HETATM    5  C4  UNL     1      32.557   8.140  49.069  1.00  0.00     0.122 C 
HETATM    6  C5  UNL     1      31.459   7.347  48.934  1.00  0.00     0.101 C 
HETATM    7  C6  UNL     1      30.572   8.551  49.189  1.00  0.00     0.100 C 
HETATM    8  C7  UNL     1      29.210   8.801  49.195  1.00  0.00     0.069 C 
HETATM    9  N2  UNL     1      27.690   8.720  49.112  1.00  0.00    -0.387 N 
HETATM   10  C8  UNL     1      28.011   8.676  47.579  1.00  0.00     0.052 A 
HETATM   11  C9  UNL     1      27.639   7.375  47.607  1.00  0.00    -0.008 A 
HETATM   12  C10 UNL     1      28.805   7.584  46.996  1.00  0.00     0.067 A 
HETATM   13  C11 UNL     1      29.963   7.888  46.403  1.00  0.00    -0.066 A 
HETATM   14  C12 UNL     1      29.227   8.960  46.948  1.00  0.00     0.067 A 
HETATM   15  C13 UNL     1      28.511   9.950  47.474  1.00  0.00    -0.008 A 
HETATM   16  O1  UNL     1      31.684   5.974  48.655  1.00  0.00    -0.243 OA
HETATM   17  N3  UNL     1      31.418   5.434  47.395  1.00  0.00    -0.272 N 
HETATM   18  C14 UNL     1      32.540   5.524  46.485  1.00  0.00     0.130 A 
HETATM   19  C15 UNL     1      31.996   6.602  46.069  1.00  0.00     0.005 A 
HETATM   20  S1  UNL     1      33.797   6.838  45.805  1.00  0.00    -0.127 SA
HETATM   21  C16 UNL     1      34.097   8.038  47.212  1.00  0.00     0.166 C 
HETATM   22  C17 UNL     1      34.958   7.429  48.173  1.00  0.00     0.008 C 
HETATM   23  C18 UNL     1      35.468   6.390  48.822  1.00  0.00    -0.001 C 
HETATM   24  C19 UNL     1      35.195   4.936  48.719  1.00  0.00    -0.004 C 
HETATM   25  C20 UNL     1      34.274   4.483  47.883  1.00  0.00    -0.023 C 
HETATM   26  C21 UNL     1      33.214   4.305  46.893  1.00  0.00     0.076 C 
HETATM   27  H9  UNL     1      27.501   8.752  50.170  1.00  0.00     0.160 HD
HETATM   28  H14 UNL     1      30.501   5.259  47.860  1.00  0.00     0.190 HD
ENDROOT
TORSDOF 0
ENDMDL
