MODEL 1
REMARK VINA RESULT:      -6.7      0.000      0.000
REMARK  10 active torsions:
REMARK  status: ('A' for Active; 'I' for Inactive)
REMARK    1  A    between atoms: N1_1  and  C1_2 
REMARK    2  A    between atoms: C1_2  and  C2_3 
REMARK    3  A    between atoms: C6_9  and  C7_10 
REMARK    4  A    between atoms: C7_10  and  C8_11 
REMARK    5  A    between atoms: C12_16  and  O1_17 
REMARK    6  A    between atoms: O1_17  and  C13_18 
REMARK    7  A    between atoms: C13_18  and  C14_19 
REMARK    8  A    between atoms: C14_19  and  O2_20 
REMARK    9  A    between atoms: C14_19  and  C15_21 
REMARK   10  A    between atoms: C15_21  and  N4_22 
ROOT
HETATM    1  C2  UNL     1      25.254   0.260  53.094  1.00  0.00     0.005 A 
HETATM    2  C3  UNL     1      24.175   1.091  52.961  1.00  0.00     0.044 A 
HETATM    3  C4  UNL     1      24.275   2.113  52.037  1.00  0.00     0.071 A 
HETATM    4  N2  UNL     1      23.212   2.953  51.915  1.00  0.00    -0.241 NA
HETATM    5  C5  UNL     1      23.245   3.982  51.053  1.00  0.00     0.234 A 
HETATM    6  N3  UNL     1      24.370   4.103  50.352  1.00  0.00    -0.245 NA
HETATM    7  C6  UNL     1      25.445   3.326  50.413  1.00  0.00     0.052 A 
HETATM    8  C10 UNL     1      25.439   2.271  51.282  1.00  0.00     0.020 A 
HETATM    9  C11 UNL     1      26.496   1.424  51.454  1.00  0.00     0.053 A 
HETATM   10  C12 UNL     1      26.448   0.369  52.377  1.00  0.00     0.077 A 
ENDROOT
BRANCH  10  11
HETATM   11  O1  UNL     1      27.301  -0.517  52.693  1.00  0.00    -0.348 OA
BRANCH  11  12
HETATM   12  C13 UNL     1      28.182  -1.433  53.022  1.00  0.00     0.209 C 
BRANCH  12  13
HETATM   13  C14 UNL     1      29.283  -0.976  53.994  1.00  0.00     0.170 C 
BRANCH  13  14
HETATM   14  O2  UNL     1      28.551  -0.326  55.038  1.00  0.00    -0.392 OA
HETATM   15  H15 UNL     1      28.045   0.471  54.662  1.00  0.00     0.210 HD
ENDBRANCH  13  14
BRANCH  13  16
HETATM   16  C15 UNL     1      30.123   0.135  53.394  1.00  0.00     0.300 C 
BRANCH  16  17
HETATM   17  N4  UNL     1      29.528   1.413  53.838  1.00  0.00     0.080 N 
HETATM   18  H18 UNL     1      30.258   2.158  53.985  1.00  0.00     0.312 HD
HETATM   19  H19 UNL     1      28.989   1.263  54.732  1.00  0.00     0.312 HD
ENDBRANCH  16  17
ENDBRANCH  13  16
ENDBRANCH  12  13
ENDBRANCH  11  12
ENDBRANCH  10  11
BRANCH   1  20
HETATM   20  C1  UNL     1      24.982  -0.772  54.173  1.00  0.00     0.308 C 
BRANCH  20  21
HETATM   21  N1  UNL     1      25.762  -0.512  55.343  1.00  0.00     0.082 N 
HETATM   22  H1  UNL     1      26.323   0.403  55.303  1.00  0.00     0.313 HD
HETATM   23  H2  UNL     1      24.985  -0.386  56.101  1.00  0.00     0.313 HD
ENDBRANCH  20  21
ENDBRANCH   1  20
BRANCH   7  24
HETATM   24  C7  UNL     1      26.603   3.551  49.507  1.00  0.00     0.089 C 
BRANCH  24  25
HETATM   25  C8  UNL     1      26.604   4.984  49.121  1.00  0.00     0.009 C 
HETATM   26  C9  UNL     1      27.430   5.741  48.440  1.00  0.00     0.184 C 
HETATM   27  F1  UNL     1      28.525   6.103  47.711  1.00  0.00    -0.220 F 
ENDBRANCH  24  25
ENDBRANCH   7  24
TORSDOF 10
ENDMDL
MODEL 2
REMARK VINA RESULT:      -6.4      4.369      7.090
REMARK  10 active torsions:
REMARK  status: ('A' for Active; 'I' for Inactive)
REMARK    1  A    between atoms: N1_1  and  C1_2 
REMARK    2  A    between atoms: C1_2  and  C2_3 
REMARK    3  A    between atoms: C6_9  and  C7_10 
REMARK    4  A    between atoms: C7_10  and  C8_11 
REMARK    5  A    between atoms: C12_16  and  O1_17 
REMARK    6  A    between atoms: O1_17  and  C13_18 
REMARK    7  A    between atoms: C13_18  and  C14_19 
REMARK    8  A    between atoms: C14_19  and  O2_20 
REMARK    9  A    between atoms: C14_19  and  C15_21 
REMARK   10  A    between atoms: C15_21  and  N4_22 
ROOT
HETATM    1  C2  UNL     1      25.139   1.283  51.984  1.00  0.00     0.005 A 
HETATM    2  C3  UNL     1      25.262   0.344  52.972  1.00  0.00     0.044 A 
HETATM    3  C4  UNL     1      24.108  -0.032  53.632  1.00  0.00     0.071 A 
HETATM    4  N2  UNL     1      24.228  -0.952  54.628  1.00  0.00    -0.241 NA
HETATM    5  C5  UNL     1      23.154  -1.350  55.328  1.00  0.00     0.234 A 
HETATM    6  N3  UNL     1      22.001  -0.787  54.973  1.00  0.00    -0.245 NA
HETATM    7  C6  UNL     1      21.804   0.111  54.015  1.00  0.00     0.052 A 
HETATM    8  C10 UNL     1      22.880   0.536  53.287  1.00  0.00     0.020 A 
HETATM    9  C11 UNL     1      22.805   1.476  52.301  1.00  0.00     0.053 A 
HETATM   10  C12 UNL     1      23.944   1.894  51.598  1.00  0.00     0.077 A 
ENDROOT
BRANCH  10  11
HETATM   11  O1  UNL     1      24.098   2.741  50.664  1.00  0.00    -0.348 OA
BRANCH  11  12
HETATM   12  C13 UNL     1      24.256   3.617  49.699  1.00  0.00     0.209 C 
BRANCH  12  13
HETATM   13  C14 UNL     1      24.459   5.074  50.152  1.00  0.00     0.170 C 
BRANCH  13  14
HETATM   14  O2  UNL     1      25.860   5.138  50.435  1.00  0.00    -0.392 OA
HETATM   15  H15 UNL     1      26.029   5.770  51.212  1.00  0.00     0.210 HD
ENDBRANCH  13  14
BRANCH  13  16
HETATM   16  C15 UNL     1      23.805   5.330  51.496  1.00  0.00     0.300 C 
BRANCH  16  17
HETATM   17  N4  UNL     1      24.343   6.612  52.000  1.00  0.00     0.080 N 
HETATM   18  H18 UNL     1      25.389   6.578  52.125  1.00  0.00     0.312 HD
HETATM   19  H19 UNL     1      23.884   6.854  52.917  1.00  0.00     0.312 HD
ENDBRANCH  16  17
ENDBRANCH  13  16
ENDBRANCH  12  13
ENDBRANCH  11  12
ENDBRANCH  10  11
BRANCH   1  20
HETATM   20  C1  UNL     1      26.504   1.600  51.400  1.00  0.00     0.308 C 
BRANCH  20  21
HETATM   21  N1  UNL     1      26.990   2.856  51.879  1.00  0.00     0.082 N 
HETATM   22  H1  UNL     1      27.756   3.293  51.266  1.00  0.00     0.313 HD
HETATM   23  H2  UNL     1      26.101   3.485  51.787  1.00  0.00     0.313 HD
ENDBRANCH  20  21
ENDBRANCH   1  20
BRANCH   7  24
HETATM   24  C7  UNL     1      20.435   0.595  53.691  1.00  0.00     0.089 C 
BRANCH  24  25
HETATM   25  C8  UNL     1      19.699  -0.524  53.052  1.00  0.00     0.009 C 
HETATM   26  C9  UNL     1      18.487  -1.008  53.186  1.00  0.00     0.184 C 
HETATM   27  F1  UNL     1      17.212  -1.149  53.649  1.00  0.00    -0.220 F 
ENDBRANCH  24  25
ENDBRANCH   7  24
TORSDOF 10
ENDMDL
MODEL 3
REMARK VINA RESULT:      -6.4      3.156      5.951
REMARK  10 active torsions:
REMARK  status: ('A' for Active; 'I' for Inactive)
REMARK    1  A    between atoms: N1_1  and  C1_2 
REMARK    2  A    between atoms: C1_2  and  C2_3 
REMARK    3  A    between atoms: C6_9  and  C7_10 
REMARK    4  A    between atoms: C7_10  and  C8_11 
REMARK    5  A    between atoms: C12_16  and  O1_17 
REMARK    6  A    between atoms: O1_17  and  C13_18 
REMARK    7  A    between atoms: C13_18  and  C14_19 
REMARK    8  A    between atoms: C14_19  and  O2_20 
REMARK    9  A    between atoms: C14_19  and  C15_21 
REMARK   10  A    between atoms: C15_21  and  N4_22 
ROOT
HETATM    1  C2  UNL     1      23.237   1.548  51.724  1.00  0.00     0.005 A 
HETATM    2  C3  UNL     1      22.739   0.658  52.636  1.00  0.00     0.044 A 
HETATM    3  C4  UNL     1      23.634   0.105  53.532  1.00  0.00     0.071 A 
HETATM    4  N2  UNL     1      23.148  -0.795  54.429  1.00  0.00    -0.241 NA
HETATM    5  C5  UNL     1      23.962  -1.389  55.316  1.00  0.00     0.234 A 
HETATM    6  N3  UNL     1      25.242  -1.031  55.244  1.00  0.00    -0.245 NA
HETATM    7  C6  UNL     1      25.790  -0.162  54.403  1.00  0.00     0.052 A 
HETATM    8  C10 UNL     1      24.985   0.457  53.488  1.00  0.00     0.020 A 
HETATM    9  C11 UNL     1      25.440   1.343  52.555  1.00  0.00     0.053 A 
HETATM   10  C12 UNL     1      24.575   1.935  51.623  1.00  0.00     0.077 A 
ENDROOT
BRANCH  10  11
HETATM   11  O1  UNL     1      24.783   2.765  50.685  1.00  0.00    -0.348 OA
BRANCH  11  12
HETATM   12  C13 UNL     1      24.997   3.623  49.715  1.00  0.00     0.209 C 
BRANCH  12  13
HETATM   13  C14 UNL     1      26.472   3.841  49.334  1.00  0.00     0.170 C 
BRANCH  13  14
HETATM   14  O2  UNL     1      27.149   3.774  50.593  1.00  0.00    -0.392 OA
HETATM   15  H15 UNL     1      27.892   4.467  50.624  1.00  0.00     0.210 HD
ENDBRANCH  13  14
BRANCH  13  16
HETATM   16  C15 UNL     1      26.717   5.263  48.866  1.00  0.00     0.300 C 
BRANCH  16  17
HETATM   17  N4  UNL     1      28.178   5.482  48.898  1.00  0.00     0.080 N 
HETATM   18  H18 UNL     1      28.575   5.638  47.934  1.00  0.00     0.312 HD
HETATM   19  H19 UNL     1      28.651   4.654  49.347  1.00  0.00     0.312 HD
ENDBRANCH  16  17
ENDBRANCH  13  16
ENDBRANCH  12  13
ENDBRANCH  11  12
ENDBRANCH  10  11
BRANCH   1  20
HETATM   20  C1  UNL     1      22.126   2.020  50.803  1.00  0.00     0.308 C 
BRANCH  20  21
HETATM   21  N1  UNL     1      22.198   1.369  49.533  1.00  0.00     0.082 N 
HETATM   22  H1  UNL     1      21.622   1.844  48.762  1.00  0.00     0.313 HD
HETATM   23  H2  UNL     1      23.253   1.499  49.279  1.00  0.00     0.313 HD
ENDBRANCH  20  21
ENDBRANCH   1  20
BRANCH   7  24
HETATM   24  C7  UNL     1      27.234   0.185  54.496  1.00  0.00     0.089 C 
BRANCH  24  25
HETATM   25  C8  UNL     1      27.988  -0.787  53.667  1.00  0.00     0.009 C 
HETATM   26  C9  UNL     1      29.260  -1.083  53.546  1.00  0.00     0.184 C 
HETATM   27  F1  UNL     1      30.607  -1.040  53.755  1.00  0.00    -0.220 F 
ENDBRANCH  24  25
ENDBRANCH   7  24
TORSDOF 10
ENDMDL
MODEL 4
REMARK VINA RESULT:      -6.4      3.283      5.507
REMARK  10 active torsions:
REMARK  status: ('A' for Active; 'I' for Inactive)
REMARK    1  A    between atoms: N1_1  and  C1_2 
REMARK    2  A    between atoms: C1_2  and  C2_3 
REMARK    3  A    between atoms: C6_9  and  C7_10 
REMARK    4  A    between atoms: C7_10  and  C8_11 
REMARK    5  A    between atoms: C12_16  and  O1_17 
REMARK    6  A    between atoms: O1_17  and  C13_18 
REMARK    7  A    between atoms: C13_18  and  C14_19 
REMARK    8  A    between atoms: C14_19  and  O2_20 
REMARK    9  A    between atoms: C14_19  and  C15_21 
REMARK   10  A    between atoms: C15_21  and  N4_22 
ROOT
HETATM    1  C2  UNL     1      25.175   0.098  53.573  1.00  0.00     0.005 A 
HETATM    2  C3  UNL     1      24.359  -0.725  54.300  1.00  0.00     0.044 A 
HETATM    3  C4  UNL     1      23.013  -0.718  53.985  1.00  0.00     0.071 A 
HETATM    4  N2  UNL     1      22.194  -1.521  54.717  1.00  0.00    -0.241 NA
HETATM    5  C5  UNL     1      20.872  -1.550  54.484  1.00  0.00     0.234 A 
HETATM    6  N3  UNL     1      20.449  -0.753  53.505  1.00  0.00    -0.245 NA
HETATM    7  C6  UNL     1      21.183   0.054  52.748  1.00  0.00     0.052 A 
HETATM    8  C10 UNL     1      22.531   0.105  52.965  1.00  0.00     0.020 A 
HETATM    9  C11 UNL     1      23.381   0.917  52.272  1.00  0.00     0.053 A 
HETATM   10  C12 UNL     1      24.755   0.948  52.548  1.00  0.00     0.077 A 
ENDROOT
BRANCH  10  11
HETATM   11  O1  UNL     1      25.705   1.619  52.038  1.00  0.00    -0.348 OA
BRANCH  11  12
HETATM   12  C13 UNL     1      26.687   2.313  51.510  1.00  0.00     0.209 C 
BRANCH  12  13
HETATM   13  C14 UNL     1      26.398   2.926  50.128  1.00  0.00     0.170 C 
BRANCH  13  14
HETATM   14  O2  UNL     1      27.299   4.036  50.066  1.00  0.00    -0.392 OA
HETATM   15  H15 UNL     1      27.290   4.539  50.949  1.00  0.00     0.210 HD
ENDBRANCH  13  14
BRANCH  13  16
HETATM   16  C15 UNL     1      25.026   3.570  50.085  1.00  0.00     0.300 C 
BRANCH  16  17
HETATM   17  N4  UNL     1      24.903   4.404  51.299  1.00  0.00     0.080 N 
HETATM   18  H18 UNL     1      25.772   4.365  51.894  1.00  0.00     0.312 HD
HETATM   19  H19 UNL     1      24.071   4.087  51.865  1.00  0.00     0.312 HD
ENDBRANCH  16  17
ENDBRANCH  13  16
ENDBRANCH  12  13
ENDBRANCH  11  12
ENDBRANCH  10  11
BRANCH   1  20
HETATM   20  C1  UNL     1      26.602  -0.013  54.079  1.00  0.00     0.308 C 
BRANCH  20  21
HETATM   21  N1  UNL     1      26.932   1.085  54.933  1.00  0.00     0.082 N 
HETATM   22  H1  UNL     1      26.187   1.304  55.676  1.00  0.00     0.313 HD
HETATM   23  H2  UNL     1      27.810   0.699  55.457  1.00  0.00     0.313 HD
ENDBRANCH  20  21
ENDBRANCH   1  20
BRANCH   7  24
HETATM   24  C7  UNL     1      20.566   0.833  51.641  1.00  0.00     0.089 C 
BRANCH  24  25
HETATM   25  C8  UNL     1      20.013   2.082  52.220  1.00  0.00     0.009 C 
HETATM   26  C9  UNL     1      20.489   3.292  52.392  1.00  0.00     0.184 C 
HETATM   27  F1  UNL     1      21.366   4.336  52.362  1.00  0.00    -0.220 F 
ENDBRANCH  24  25
ENDBRANCH   7  24
TORSDOF 10
ENDMDL
MODEL 5
REMARK VINA RESULT:      -6.3      3.351      6.232
REMARK  10 active torsions:
REMARK  status: ('A' for Active; 'I' for Inactive)
REMARK    1  A    between atoms: N1_1  and  C1_2 
REMARK    2  A    between atoms: C1_2  and  C2_3 
REMARK    3  A    between atoms: C6_9  and  C7_10 
REMARK    4  A    between atoms: C7_10  and  C8_11 
REMARK    5  A    between atoms: C12_16  and  O1_17 
REMARK    6  A    between atoms: O1_17  and  C13_18 
REMARK    7  A    between atoms: C13_18  and  C14_19 
REMARK    8  A    between atoms: C14_19  and  O2_20 
REMARK    9  A    between atoms: C14_19  and  C15_21 
REMARK   10  A    between atoms: C15_21  and  N4_22 
ROOT
HETATM    1  C2  UNL     1      22.968   1.465  51.791  1.00  0.00     0.005 A 
HETATM    2  C3  UNL     1      22.653   0.539  52.748  1.00  0.00     0.044 A 
HETATM    3  C4  UNL     1      23.687   0.066  53.533  1.00  0.00     0.071 A 
HETATM    4  N2  UNL     1      23.382  -0.868  54.474  1.00  0.00    -0.241 NA
HETATM    5  C5  UNL     1      24.338  -1.389  55.260  1.00  0.00     0.234 A 
HETATM    6  N3  UNL     1      25.567  -0.925  55.047  1.00  0.00    -0.245 NA
HETATM    7  C6  UNL     1      25.942  -0.017  54.154  1.00  0.00     0.052 A 
HETATM    8  C10 UNL     1      24.990   0.530  53.340  1.00  0.00     0.020 A 
HETATM    9  C11 UNL     1      25.260   1.447  52.366  1.00  0.00     0.053 A 
HETATM   10  C12 UNL     1      24.249   1.962  51.542  1.00  0.00     0.077 A 
ENDROOT
BRANCH  10  11
HETATM   11  O1  UNL     1      24.280   2.803  50.591  1.00  0.00    -0.348 OA
BRANCH  11  12
HETATM   12  C13 UNL     1      24.311   3.672  49.607  1.00  0.00     0.209 C 
BRANCH  12  13
HETATM   13  C14 UNL     1      24.576   5.131  50.018  1.00  0.00     0.170 C 
BRANCH  13  14
HETATM   14  O2  UNL     1      25.949   5.115  50.419  1.00  0.00    -0.392 OA
HETATM   15  H15 UNL     1      26.292   4.159  50.446  1.00  0.00     0.210 HD
ENDBRANCH  13  14
BRANCH  13  16
HETATM   16  C15 UNL     1      23.831   5.490  51.289  1.00  0.00     0.300 C 
BRANCH  16  17
HETATM   17  N4  UNL     1      24.457   6.718  51.824  1.00  0.00     0.080 N 
HETATM   18  H18 UNL     1      25.484   6.585  52.017  1.00  0.00     0.312 HD
HETATM   19  H19 UNL     1      23.965   7.012  52.708  1.00  0.00     0.312 HD
ENDBRANCH  16  17
ENDBRANCH  13  16
ENDBRANCH  12  13
ENDBRANCH  11  12
ENDBRANCH  10  11
BRANCH   1  20
HETATM   20  C1  UNL     1      21.725   1.838  51.004  1.00  0.00     0.308 C 
BRANCH  20  21
HETATM   21  N1  UNL     1      21.187   3.085  51.451  1.00  0.00     0.082 N 
HETATM   22  H1  UNL     1      20.320   2.991  52.078  1.00  0.00     0.313 HD
HETATM   23  H2  UNL     1      22.001   3.464  52.074  1.00  0.00     0.313 HD
ENDBRANCH  20  21
ENDBRANCH   1  20
BRANCH   7  24
HETATM   24  C7  UNL     1      27.353   0.451  54.085  1.00  0.00     0.089 C 
BRANCH  24  25
HETATM   25  C8  UNL     1      28.137  -0.579  53.361  1.00  0.00     0.009 C 
HETATM   26  C9  UNL     1      29.331  -1.095  53.527  1.00  0.00     0.184 C 
HETATM   27  F1  UNL     1      30.562  -1.317  54.070  1.00  0.00    -0.220 F 
ENDBRANCH  24  25
ENDBRANCH   7  24
TORSDOF 10
ENDMDL
MODEL 6
REMARK VINA RESULT:      -6.3      2.850      3.276
REMARK  10 active torsions:
REMARK  status: ('A' for Active; 'I' for Inactive)
REMARK    1  A    between atoms: N1_1  and  C1_2 
REMARK    2  A    between atoms: C1_2  and  C2_3 
REMARK    3  A    between atoms: C6_9  and  C7_10 
REMARK    4  A    between atoms: C7_10  and  C8_11 
REMARK    5  A    between atoms: C12_16  and  O1_17 
REMARK    6  A    between atoms: O1_17  and  C13_18 
REMARK    7  A    between atoms: C13_18  and  C14_19 
REMARK    8  A    between atoms: C14_19  and  O2_20 
REMARK    9  A    between atoms: C14_19  and  C15_21 
REMARK   10  A    between atoms: C15_21  and  N4_22 
ROOT
HETATM    1  C2  UNL     1      24.064  -0.565  54.035  1.00  0.00     0.005 A 
HETATM    2  C3  UNL     1      22.719  -0.353  54.166  1.00  0.00     0.044 A 
HETATM    3  C4  UNL     1      22.149   0.606  53.352  1.00  0.00     0.071 A 
HETATM    4  N2  UNL     1      20.814   0.834  53.492  1.00  0.00    -0.241 NA
HETATM    5  C5  UNL     1      20.194   1.765  52.750  1.00  0.00     0.234 A 
HETATM    6  N3  UNL     1      20.974   2.423  51.894  1.00  0.00    -0.245 NA
HETATM    7  C6  UNL     1      22.276   2.258  51.699  1.00  0.00     0.052 A 
HETATM    8  C10 UNL     1      22.933   1.317  52.441  1.00  0.00     0.020 A 
HETATM    9  C11 UNL     1      24.274   1.079  52.350  1.00  0.00     0.053 A 
HETATM   10  C12 UNL     1      24.904   0.116  53.151  1.00  0.00     0.077 A 
ENDROOT
BRANCH  10  11
HETATM   11  O1  UNL     1      26.116  -0.256  53.231  1.00  0.00    -0.348 OA
BRANCH  11  12
HETATM   12  C13 UNL     1      27.368  -0.641  53.314  1.00  0.00     0.209 C 
BRANCH  12  13
HETATM   13  C14 UNL     1      28.302   0.301  54.095  1.00  0.00     0.170 C 
BRANCH  13  14
HETATM   14  O2  UNL     1      27.535   0.636  55.255  1.00  0.00    -0.392 OA
HETATM   15  H15 UNL     1      27.387   1.641  55.296  1.00  0.00     0.210 HD
ENDBRANCH  13  14
BRANCH  13  16
HETATM   16  C15 UNL     1      28.473   1.627  53.378  1.00  0.00     0.300 C 
BRANCH  16  17
HETATM   17  N4  UNL     1      27.479   2.559  53.952  1.00  0.00     0.080 N 
HETATM   18  H18 UNL     1      27.937   3.343  54.486  1.00  0.00     0.312 HD
HETATM   19  H19 UNL     1      26.823   2.031  54.587  1.00  0.00     0.312 HD
ENDBRANCH  16  17
ENDBRANCH  13  16
ENDBRANCH  12  13
ENDBRANCH  11  12
ENDBRANCH  10  11
BRANCH   1  20
HETATM   20  C1  UNL     1      24.521  -1.618  55.028  1.00  0.00     0.308 C 
BRANCH  20  21
HETATM   21  N1  UNL     1      25.178  -1.019  56.148  1.00  0.00     0.082 N 
HETATM   22  H1  UNL     1      24.520  -0.756  56.955  1.00  0.00     0.313 HD
HETATM   23  H2  UNL     1      25.809  -1.840  56.497  1.00  0.00     0.313 HD
ENDBRANCH  20  21
ENDBRANCH   1  20
BRANCH   7  24
HETATM   24  C7  UNL     1      22.996   3.027  50.648  1.00  0.00     0.089 C 
BRANCH  24  25
HETATM   25  C8  UNL     1      23.164   4.417  51.140  1.00  0.00     0.009 C 
HETATM   26  C9  UNL     1      23.459   4.939  52.306  1.00  0.00     0.184 C 
HETATM   27  F1  UNL     1      23.774   5.008  53.631  1.00  0.00    -0.220 F 
ENDBRANCH  24  25
ENDBRANCH   7  24
TORSDOF 10
ENDMDL
MODEL 7
REMARK VINA RESULT:      -6.3      3.159      4.995
REMARK  10 active torsions:
REMARK  status: ('A' for Active; 'I' for Inactive)
REMARK    1  A    between atoms: N1_1  and  C1_2 
REMARK    2  A    between atoms: C1_2  and  C2_3 
REMARK    3  A    between atoms: C6_9  and  C7_10 
REMARK    4  A    between atoms: C7_10  and  C8_11 
REMARK    5  A    between atoms: C12_16  and  O1_17 
REMARK    6  A    between atoms: O1_17  and  C13_18 
REMARK    7  A    between atoms: C13_18  and  C14_19 
REMARK    8  A    between atoms: C14_19  and  O2_20 
REMARK    9  A    between atoms: C14_19  and  C15_21 
REMARK   10  A    between atoms: C15_21  and  N4_22 
ROOT
HETATM    1  C2  UNL     1      25.593   0.494  52.773  1.00  0.00     0.005 A 
HETATM    2  C3  UNL     1      26.534   1.220  52.094  1.00  0.00     0.044 A 
HETATM    3  C4  UNL     1      26.076   2.187  51.221  1.00  0.00     0.071 A 
HETATM    4  N2  UNL     1      27.007   2.899  50.530  1.00  0.00    -0.241 NA
HETATM    5  C5  UNL     1      26.637   3.841  49.648  1.00  0.00     0.234 A 
HETATM    6  N3  UNL     1      25.323   4.012  49.514  1.00  0.00    -0.245 NA
HETATM    7  C6  UNL     1      24.357   3.361  50.151  1.00  0.00     0.052 A 
HETATM    8  C10 UNL     1      24.705   2.397  51.054  1.00  0.00     0.020 A 
HETATM    9  C11 UNL     1      23.801   1.642  51.744  1.00  0.00     0.053 A 
HETATM   10  C12 UNL     1      24.211   0.648  52.645  1.00  0.00     0.077 A 
ENDROOT
BRANCH  10  11
HETATM   11  O1  UNL     1      23.551  -0.156  53.374  1.00  0.00    -0.348 OA
BRANCH  11  12
HETATM   12  C13 UNL     1      22.870  -0.987  54.129  1.00  0.00     0.209 C 
BRANCH  12  13
HETATM   13  C14 UNL     1      21.448  -0.533  54.500  1.00  0.00     0.170 C 
BRANCH  13  14
HETATM   14  O2  UNL     1      20.821  -1.744  54.936  1.00  0.00    -0.392 OA
HETATM   15  H15 UNL     1      21.484  -2.310  55.458  1.00  0.00     0.210 HD
ENDBRANCH  13  14
BRANCH  13  16
HETATM   16  C15 UNL     1      20.655  -0.138  53.269  1.00  0.00     0.300 C 
BRANCH  16  17
HETATM   17  N4  UNL     1      20.584   1.338  53.257  1.00  0.00     0.080 N 
HETATM   18  H18 UNL     1      21.513   1.775  53.019  1.00  0.00     0.312 HD
HETATM   19  H19 UNL     1      20.259   1.685  54.198  1.00  0.00     0.312 HD
ENDBRANCH  16  17
ENDBRANCH  13  16
ENDBRANCH  12  13
ENDBRANCH  11  12
ENDBRANCH  10  11
BRANCH   1  20
HETATM   20  C1  UNL     1      26.273  -0.541  53.651  1.00  0.00     0.308 C 
BRANCH  20  21
HETATM   21  N1  UNL     1      26.232  -0.155  55.027  1.00  0.00     0.082 N 
HETATM   22  H1  UNL     1      27.199  -0.028  55.476  1.00  0.00     0.313 HD
HETATM   23  H2  UNL     1      25.768   0.832  54.965  1.00  0.00     0.313 HD
ENDBRANCH  20  21
ENDBRANCH   1  20
BRANCH   7  24
HETATM   24  C7  UNL     1      22.928   3.719  49.941  1.00  0.00     0.089 C 
BRANCH  24  25
HETATM   25  C8  UNL     1      22.516   3.183  48.621  1.00  0.00     0.009 C 
HETATM   26  C9  UNL     1      22.091   2.013  48.208  1.00  0.00     0.184 C 
HETATM   27  F1  UNL     1      21.714   0.703  48.251  1.00  0.00    -0.220 F 
ENDBRANCH  24  25
ENDBRANCH   7  24
TORSDOF 10
ENDMDL
MODEL 8
REMARK VINA RESULT:      -6.2      3.441      4.419
REMARK  10 active torsions:
REMARK  status: ('A' for Active; 'I' for Inactive)
REMARK    1  A    between atoms: N1_1  and  C1_2 
REMARK    2  A    between atoms: C1_2  and  C2_3 
REMARK    3  A    between atoms: C6_9  and  C7_10 
REMARK    4  A    between atoms: C7_10  and  C8_11 
REMARK    5  A    between atoms: C12_16  and  O1_17 
REMARK    6  A    between atoms: O1_17  and  C13_18 
REMARK    7  A    between atoms: C13_18  and  C14_19 
REMARK    8  A    between atoms: C14_19  and  O2_20 
REMARK    9  A    between atoms: C14_19  and  C15_21 
REMARK   10  A    between atoms: C15_21  and  N4_22 
ROOT
HETATM    1  C2  UNL     1      24.671  -0.054  53.526  1.00  0.00     0.005 A 
HETATM    2  C3  UNL     1      23.488  -0.627  53.906  1.00  0.00     0.044 A 
HETATM    3  C4  UNL     1      22.326  -0.038  53.448  1.00  0.00     0.071 A 
HETATM    4  N2  UNL     1      21.146  -0.593  53.839  1.00  0.00    -0.241 NA
HETATM    5  C5  UNL     1      19.975  -0.063  53.451  1.00  0.00     0.234 A 
HETATM    6  N3  UNL     1      20.067   1.015  52.675  1.00  0.00    -0.245 NA
HETATM    7  C6  UNL     1      21.175   1.611  52.252  1.00  0.00     0.052 A 
HETATM    8  C10 UNL     1      22.381   1.094  52.632  1.00  0.00     0.020 A 
HETATM    9  C11 UNL     1      23.584   1.637  52.285  1.00  0.00     0.053 A 
HETATM   10  C12 UNL     1      24.795   1.080  52.720  1.00  0.00     0.077 A 
ENDROOT
BRANCH  10  11
HETATM   11  O1  UNL     1      26.002   1.420  52.522  1.00  0.00    -0.348 OA
BRANCH  11  12
HETATM   12  C13 UNL     1      27.251   1.770  52.317  1.00  0.00     0.209 C 
BRANCH  12  13
HETATM   13  C14 UNL     1      28.013   2.267  53.558  1.00  0.00     0.170 C 
BRANCH  13  14
HETATM   14  O2  UNL     1      29.066   3.060  53.000  1.00  0.00    -0.392 OA
HETATM   15  H15 UNL     1      29.252   3.859  53.598  1.00  0.00     0.210 HD
ENDBRANCH  13  14
BRANCH  13  16
HETATM   16  C15 UNL     1      28.743   1.130  54.248  1.00  0.00     0.300 C 
BRANCH  16  17
HETATM   17  N4  UNL     1      29.965   0.862  53.463  1.00  0.00     0.080 N 
HETATM   18  H18 UNL     1      30.146   1.612  52.746  1.00  0.00     0.312 HD
HETATM   19  H19 UNL     1      29.881  -0.074  52.984  1.00  0.00     0.312 HD
ENDBRANCH  16  17
ENDBRANCH  13  16
ENDBRANCH  12  13
ENDBRANCH  11  12
ENDBRANCH  10  11
BRANCH   1  20
HETATM   20  C1  UNL     1      25.833  -0.806  54.150  1.00  0.00     0.308 C 
BRANCH  20  21
HETATM   21  N1  UNL     1      26.539  -1.569  53.169  1.00  0.00     0.082 N 
HETATM   22  H1  UNL     1      26.436  -1.200  52.166  1.00  0.00     0.313 HD
HETATM   23  H2  UNL     1      27.577  -1.408  53.470  1.00  0.00     0.313 HD
ENDBRANCH  20  21
ENDBRANCH   1  20
BRANCH   7  24
HETATM   24  C7  UNL     1      21.111   2.774  51.326  1.00  0.00     0.089 C 
BRANCH  24  25
HETATM   25  C8  UNL     1      20.497   2.310  50.057  1.00  0.00     0.009 C 
HETATM   26  C9  UNL     1      20.858   1.450  49.135  1.00  0.00     0.184 C 
HETATM   27  F1  UNL     1      21.610   0.519  48.480  1.00  0.00    -0.220 F 
ENDBRANCH  24  25
ENDBRANCH   7  24
TORSDOF 10
ENDMDL
MODEL 9
REMARK VINA RESULT:      -6.2      4.046      5.688
REMARK  10 active torsions:
REMARK  status: ('A' for Active; 'I' for Inactive)
REMARK    1  A    between atoms: N1_1  and  C1_2 
REMARK    2  A    between atoms: C1_2  and  C2_3 
REMARK    3  A    between atoms: C6_9  and  C7_10 
REMARK    4  A    between atoms: C7_10  and  C8_11 
REMARK    5  A    between atoms: C12_16  and  O1_17 
REMARK    6  A    between atoms: O1_17  and  C13_18 
REMARK    7  A    between atoms: C13_18  and  C14_19 
REMARK    8  A    between atoms: C14_19  and  O2_20 
REMARK    9  A    between atoms: C14_19  and  C15_21 
REMARK   10  A    between atoms: C15_21  and  N4_22 
ROOT
HETATM    1  C2  UNL     1      25.213   1.728  52.297  1.00  0.00     0.005 A 
HETATM    2  C3  UNL     1      24.312   2.744  52.129  1.00  0.00     0.044 A 
HETATM    3  C4  UNL     1      22.986   2.462  52.393  1.00  0.00     0.071 A 
HETATM    4  N2  UNL     1      22.084   3.465  52.210  1.00  0.00    -0.241 NA
HETATM    5  C5  UNL     1      20.775   3.259  52.426  1.00  0.00     0.234 A 
HETATM    6  N3  UNL     1      20.449   2.031  52.824  1.00  0.00    -0.245 NA
HETATM    7  C6  UNL     1      21.267   1.006  53.026  1.00  0.00     0.052 A 
HETATM    8  C10 UNL     1      22.605   1.186  52.813  1.00  0.00     0.020 A 
HETATM    9  C11 UNL     1      23.536   0.199  52.958  1.00  0.00     0.053 A 
HETATM   10  C12 UNL     1      24.896   0.430  52.705  1.00  0.00     0.077 A 
ENDROOT
BRANCH  10  11
HETATM   11  O1  UNL     1      25.910  -0.332  52.772  1.00  0.00    -0.348 OA
BRANCH  11  12
HETATM   12  C13 UNL     1      26.957  -1.120  52.842  1.00  0.00     0.209 C 
BRANCH  12  13
HETATM   13  C14 UNL     1      28.231  -0.483  53.425  1.00  0.00     0.170 C 
BRANCH  13  14
HETATM   14  O2  UNL     1      29.057  -1.613  53.721  1.00  0.00    -0.392 OA
HETATM   15  H15 UNL     1      29.073  -2.249  52.929  1.00  0.00     0.210 HD
ENDBRANCH  13  14
BRANCH  13  16
HETATM   16  C15 UNL     1      27.965   0.138  54.783  1.00  0.00     0.300 C 
BRANCH  16  17
HETATM   17  N4  UNL     1      28.822   1.338  54.884  1.00  0.00     0.080 N 
HETATM   18  H18 UNL     1      29.427   1.462  54.031  1.00  0.00     0.312 HD
HETATM   19  H19 UNL     1      29.428   1.271  55.743  1.00  0.00     0.312 HD
ENDBRANCH  16  17
ENDBRANCH  13  16
ENDBRANCH  12  13
ENDBRANCH  11  12
ENDBRANCH  10  11
BRANCH   1  20
HETATM   20  C1  UNL     1      26.605   2.205  51.926  1.00  0.00     0.308 C 
BRANCH  20  21
HETATM   21  N1  UNL     1      26.548   3.347  51.069  1.00  0.00     0.082 N 
HETATM   22  H1  UNL     1      27.242   3.318  50.250  1.00  0.00     0.313 HD
HETATM   23  H2  UNL     1      25.543   3.255  50.648  1.00  0.00     0.313 HD
ENDBRANCH  20  21
ENDBRANCH   1  20
BRANCH   7  24
HETATM   24  C7  UNL     1      20.753  -0.292  53.542  1.00  0.00     0.089 C 
BRANCH  24  25
HETATM   25  C8  UNL     1      19.346  -0.433  53.092  1.00  0.00     0.009 C 
HETATM   26  C9  UNL     1      18.396  -1.302  53.338  1.00  0.00     0.184 C 
HETATM   27  F1  UNL     1      17.767  -2.392  53.866  1.00  0.00    -0.220 F 
ENDBRANCH  24  25
ENDBRANCH   7  24
TORSDOF 10
ENDMDL
