MODEL 1
REMARK VINA RESULT:      -8.1      0.000      0.000
REMARK  9 active torsions:
REMARK  status: ('A' for Active; 'I' for Inactive)
REMARK    1  A    between atoms: O1_2  and  C2_3 
REMARK    2  A    between atoms: C2_3  and  C15_21 
REMARK    3  A    between atoms: C3_4  and  C4_5 
REMARK    4  A    between atoms: C6_9  and  N3_10 
REMARK    5  A    between atoms: N3_10  and  C7_11 
REMARK    6  A    between atoms: C15_21  and  C16_22 
REMARK    7  A    between atoms: C16_22  and  N4_23 
REMARK    8  A    between atoms: N4_23  and  C18_25 
REMARK    9  A    between atoms: C18_25  and  C20_27 
REMARK       I    between atoms: C20_27  and  N5_28 
ROOT
HETATM    1  C4  UNL     1      24.583   3.246  51.867  1.00  0.00     0.070 A 
HETATM    2  N1  UNL     1      23.739   4.150  52.462  1.00  0.00    -0.241 NA
HETATM    3  C5  UNL     1      23.524   5.359  51.929  1.00  0.00     0.235 A 
HETATM    4  N2  UNL     1      24.145   5.671  50.811  1.00  0.00    -0.224 NA
HETATM    5  C6  UNL     1      24.994   4.896  50.121  1.00  0.00     0.137 A 
HETATM    6  C13 UNL     1      25.178   3.676  50.707  1.00  0.00     0.013 A 
HETATM    7  C14 UNL     1      26.125   2.735  50.058  1.00  0.00     0.055 C 
ENDROOT
BRANCH   1   8
HETATM    8  C3  UNL     1      24.755   1.967  52.525  1.00  0.00     0.064 C 
HETATM    9  C2  UNL     1      24.058   0.986  53.130  1.00  0.00     0.049 C 
BRANCH   9  10
HETATM   10  O1  UNL     1      22.744   0.708  53.439  1.00  0.00    -0.360 OA
HETATM   11  C1  UNL     1      22.197  -0.417  54.027  1.00  0.00     0.209 C 
ENDBRANCH   9  10
BRANCH   9  12
HETATM   12  C15 UNL     1      24.720  -0.192  53.665  1.00  0.00     0.095 C 
BRANCH  12  13
HETATM   13  C16 UNL     1      26.106  -0.130  54.144  1.00  0.00     0.279 C 
BRANCH  13  14
HETATM   14  N4  UNL     1      27.209  -0.381  53.324  1.00  0.00     0.097 N 
HETATM   15  C17 UNL     1      27.229  -1.717  52.811  1.00  0.00     0.310 C 
BRANCH  14  16
HETATM   16  C18 UNL     1      28.431  -0.048  53.991  1.00  0.00     0.309 C 
HETATM   17  C19 UNL     1      29.601  -0.879  53.511  1.00  0.00     0.053 C 
BRANCH  16  18
HETATM   18  C20 UNL     1      28.826   1.370  53.778  1.00  0.00     0.248 C 
HETATM   19  N5  UNL     1      29.656   2.240  54.539  1.00  0.00    -0.368 N 
HETATM   20  H24 UNL     1      30.625   2.608  54.398  1.00  0.00     0.159 HD
HETATM   21  H25 UNL     1      29.657   2.806  55.441  1.00  0.00     0.159 HD
HETATM   22  O2  UNL     1      28.520   2.172  52.861  1.00  0.00    -0.271 OA
ENDBRANCH  16  18
ENDBRANCH  14  16
ENDBRANCH  13  14
ENDBRANCH  12  13
ENDBRANCH   9  12
ENDBRANCH   1   8
BRANCH   5  23
HETATM   23  N3  UNL     1      25.664   5.226  48.922  1.00  0.00    -0.340 N 
HETATM   24  H6  UNL     1      25.282   4.852  48.028  1.00  0.00     0.167 HD
BRANCH  23  25
HETATM   25  C7  UNL     1      26.821   6.024  48.787  1.00  0.00     0.035 A 
HETATM   26  C8  UNL     1      28.027   5.473  48.371  1.00  0.00     0.032 A 
HETATM   27  C9  UNL     1      29.188   6.188  48.215  1.00  0.00     0.046 A 
HETATM   28  C10 UNL     1      29.205   7.539  48.477  1.00  0.00     0.138 A 
HETATM   29  F1  UNL     1      30.365   8.206  48.313  1.00  0.00    -0.204 F 
HETATM   30  C11 UNL     1      28.046   8.148  48.892  1.00  0.00     0.074 A 
HETATM   31 CL1  UNL     1      28.086   9.847  49.216  1.00  0.00    -0.081 Cl
HETATM   32  C12 UNL     1      26.918   7.376  49.028  1.00  0.00     0.056 A 
ENDBRANCH  23  25
ENDBRANCH   5  23
TORSDOF 9
ENDMDL
MODEL 2
REMARK VINA RESULT:      -7.9      5.714      8.581
REMARK  9 active torsions:
REMARK  status: ('A' for Active; 'I' for Inactive)
REMARK    1  A    between atoms: O1_2  and  C2_3 
REMARK    2  A    between atoms: C2_3  and  C15_21 
REMARK    3  A    between atoms: C3_4  and  C4_5 
REMARK    4  A    between atoms: C6_9  and  N3_10 
REMARK    5  A    between atoms: N3_10  and  C7_11 
REMARK    6  A    between atoms: C15_21  and  C16_22 
REMARK    7  A    between atoms: C16_22  and  N4_23 
REMARK    8  A    between atoms: N4_23  and  C18_25 
REMARK    9  A    between atoms: C18_25  and  C20_27 
REMARK       I    between atoms: C20_27  and  N5_28 
ROOT
HETATM    1  C4  UNL     1      21.103  -0.288  53.170  1.00  0.00     0.070 A 
HETATM    2  N1  UNL     1      21.203  -1.062  54.298  1.00  0.00    -0.241 NA
HETATM    3  C5  UNL     1      22.388  -1.315  54.868  1.00  0.00     0.235 A 
HETATM    4  N2  UNL     1      23.469  -0.803  54.319  1.00  0.00    -0.224 NA
HETATM    5  C6  UNL     1      23.526  -0.033  53.223  1.00  0.00     0.137 A 
HETATM    6  C13 UNL     1      22.293   0.194  52.682  1.00  0.00     0.013 A 
HETATM    7  C14 UNL     1      22.223   1.004  51.441  1.00  0.00     0.055 C 
ENDROOT
BRANCH   1   8
HETATM    8  C3  UNL     1      19.777  -0.078  52.625  1.00  0.00     0.064 C 
HETATM    9  C2  UNL     1      18.499  -0.478  52.768  1.00  0.00     0.049 C 
BRANCH   9  10
HETATM   10  O1  UNL     1      17.785  -1.349  53.562  1.00  0.00    -0.360 OA
HETATM   11  C1  UNL     1      17.814  -2.730  53.600  1.00  0.00     0.209 C 
ENDBRANCH   9  10
BRANCH   9  12
HETATM   12  C15 UNL     1      17.440   0.063  51.932  1.00  0.00     0.095 C 
BRANCH  12  13
HETATM   13  C16 UNL     1      17.724   0.575  50.587  1.00  0.00     0.279 C 
BRANCH  13  14
HETATM   14  N4  UNL     1      17.848   1.936  50.298  1.00  0.00     0.097 N 
HETATM   15  C17 UNL     1      18.915   2.215  49.386  1.00  0.00     0.310 C 
BRANCH  14  16
HETATM   16  C18 UNL     1      17.955   2.709  51.497  1.00  0.00     0.309 C 
HETATM   17  C19 UNL     1      19.290   3.411  51.620  1.00  0.00     0.053 C 
BRANCH  16  18
HETATM   18  C20 UNL     1      16.925   3.779  51.576  1.00  0.00     0.248 C 
HETATM   19  N5  UNL     1      16.261   4.524  50.562  1.00  0.00    -0.368 N 
HETATM   20  H24 UNL     1      15.292   4.493  50.171  1.00  0.00     0.159 HD
HETATM   21  H25 UNL     1      16.433   5.313  49.866  1.00  0.00     0.159 HD
HETATM   22  O2  UNL     1      16.372   4.305  52.575  1.00  0.00    -0.271 OA
ENDBRANCH  16  18
ENDBRANCH  14  16
ENDBRANCH  13  14
ENDBRANCH  12  13
ENDBRANCH   9  12
ENDBRANCH   1   8
BRANCH   5  23
HETATM   23  N3  UNL     1      24.684   0.518  52.629  1.00  0.00    -0.340 N 
HETATM   24  H6  UNL     1      24.559   1.241  51.892  1.00  0.00     0.167 HD
BRANCH  23  25
HETATM   25  C7  UNL     1      26.027   0.196  52.927  1.00  0.00     0.035 A 
HETATM   26  C8  UNL     1      26.544  -1.060  52.633  1.00  0.00     0.032 A 
HETATM   27  C9  UNL     1      27.837  -1.440  52.891  1.00  0.00     0.046 A 
HETATM   28  C10 UNL     1      28.712  -0.554  53.476  1.00  0.00     0.138 A 
HETATM   29  F1  UNL     1      29.973  -0.965  53.715  1.00  0.00    -0.204 F 
HETATM   30  C11 UNL     1      28.265   0.707  53.792  1.00  0.00     0.074 A 
HETATM   31 CL1  UNL     1      29.379   1.808  54.527  1.00  0.00    -0.081 Cl
HETATM   32  C12 UNL     1      26.959   1.024  53.508  1.00  0.00     0.056 A 
ENDBRANCH  23  25
ENDBRANCH   5  23
TORSDOF 9
ENDMDL
MODEL 3
REMARK VINA RESULT:      -7.9      5.777      9.422
REMARK  9 active torsions:
REMARK  status: ('A' for Active; 'I' for Inactive)
REMARK    1  A    between atoms: O1_2  and  C2_3 
REMARK    2  A    between atoms: C2_3  and  C15_21 
REMARK    3  A    between atoms: C3_4  and  C4_5 
REMARK    4  A    between atoms: C6_9  and  N3_10 
REMARK    5  A    between atoms: N3_10  and  C7_11 
REMARK    6  A    between atoms: C15_21  and  C16_22 
REMARK    7  A    between atoms: C16_22  and  N4_23 
REMARK    8  A    between atoms: N4_23  and  C18_25 
REMARK    9  A    between atoms: C18_25  and  C20_27 
REMARK       I    between atoms: C20_27  and  N5_28 
ROOT
HETATM    1  C4  UNL     1      20.891  -0.113  52.991  1.00  0.00     0.070 A 
HETATM    2  N1  UNL     1      20.930  -0.833  54.158  1.00  0.00    -0.241 NA
HETATM    3  C5  UNL     1      22.089  -1.109  54.770  1.00  0.00     0.235 A 
HETATM    4  N2  UNL     1      23.205  -0.672  54.225  1.00  0.00    -0.224 NA
HETATM    5  C6  UNL     1      23.321   0.038  53.094  1.00  0.00     0.137 A 
HETATM    6  C13 UNL     1      22.113   0.291  52.511  1.00  0.00     0.013 A 
HETATM    7  C14 UNL     1      22.107   1.041  51.231  1.00  0.00     0.055 C 
ENDROOT
BRANCH   1   8
HETATM    8  C3  UNL     1      19.589   0.126  52.403  1.00  0.00     0.064 C 
HETATM    9  C2  UNL     1      18.307  -0.279  52.472  1.00  0.00     0.049 C 
BRANCH   9  10
HETATM   10  O1  UNL     1      17.560  -1.189  53.189  1.00  0.00    -0.360 OA
HETATM   11  C1  UNL     1      17.887  -2.470  53.595  1.00  0.00     0.209 C 
ENDBRANCH   9  10
BRANCH   9  12
HETATM   12  C15 UNL     1      17.282   0.306  51.622  1.00  0.00     0.095 C 
BRANCH  12  13
HETATM   13  C16 UNL     1      15.861   0.212  51.976  1.00  0.00     0.279 C 
BRANCH  13  14
HETATM   14  N4  UNL     1      15.197   1.178  52.735  1.00  0.00     0.097 N 
HETATM   15  C17 UNL     1      13.971   0.697  53.297  1.00  0.00     0.310 C 
BRANCH  14  16
HETATM   16  C18 UNL     1      15.003   2.380  51.983  1.00  0.00     0.309 C 
HETATM   17  C19 UNL     1      13.548   2.632  51.652  1.00  0.00     0.053 C 
BRANCH  16  18
HETATM   18  C20 UNL     1      15.468   3.588  52.715  1.00  0.00     0.248 C 
HETATM   19  N5  UNL     1      14.922   4.281  53.831  1.00  0.00    -0.368 N 
HETATM   20  H24 UNL     1      15.195   4.339  54.839  1.00  0.00     0.159 HD
HETATM   21  H25 UNL     1      14.124   4.938  54.090  1.00  0.00     0.159 HD
HETATM   22  O2  UNL     1      16.475   4.316  52.528  1.00  0.00    -0.271 OA
ENDBRANCH  16  18
ENDBRANCH  14  16
ENDBRANCH  13  14
ENDBRANCH  12  13
ENDBRANCH   9  12
ENDBRANCH   1   8
BRANCH   5  23
HETATM   23  N3  UNL     1      24.516   0.508  52.504  1.00  0.00    -0.340 N 
HETATM   24  H6  UNL     1      24.442   1.221  51.749  1.00  0.00     0.167 HD
BRANCH  23  25
HETATM   25  C7  UNL     1      25.834   0.117  52.825  1.00  0.00     0.035 A 
HETATM   26  C8  UNL     1      26.281  -1.174  52.568  1.00  0.00     0.032 A 
HETATM   27  C9  UNL     1      27.547  -1.621  52.851  1.00  0.00     0.046 A 
HETATM   28  C10 UNL     1      28.465  -0.774  53.427  1.00  0.00     0.138 A 
HETATM   29  F1  UNL     1      29.698  -1.251  53.691  1.00  0.00    -0.204 F 
HETATM   30  C11 UNL     1      28.088   0.518  53.708  1.00  0.00     0.074 A 
HETATM   31 CL1  UNL     1      29.256   1.570  54.432  1.00  0.00    -0.081 Cl
HETATM   32  C12 UNL     1      26.806   0.903  53.400  1.00  0.00     0.056 A 
ENDBRANCH  23  25
ENDBRANCH   5  23
TORSDOF 9
ENDMDL
MODEL 4
REMARK VINA RESULT:      -7.7      1.887      2.603
REMARK  9 active torsions:
REMARK  status: ('A' for Active; 'I' for Inactive)
REMARK    1  A    between atoms: O1_2  and  C2_3 
REMARK    2  A    between atoms: C2_3  and  C15_21 
REMARK    3  A    between atoms: C3_4  and  C4_5 
REMARK    4  A    between atoms: C6_9  and  N3_10 
REMARK    5  A    between atoms: N3_10  and  C7_11 
REMARK    6  A    between atoms: C15_21  and  C16_22 
REMARK    7  A    between atoms: C16_22  and  N4_23 
REMARK    8  A    between atoms: N4_23  and  C18_25 
REMARK    9  A    between atoms: C18_25  and  C20_27 
REMARK       I    between atoms: C20_27  and  N5_28 
ROOT
HETATM    1  C4  UNL     1      23.315   1.854  51.551  1.00  0.00     0.070 A 
HETATM    2  N1  UNL     1      22.583   1.340  50.510  1.00  0.00    -0.241 NA
HETATM    3  C5  UNL     1      22.004   2.138  49.604  1.00  0.00     0.235 A 
HETATM    4  N2  UNL     1      22.148   3.440  49.732  1.00  0.00    -0.224 NA
HETATM    5  C6  UNL     1      22.828   4.082  50.692  1.00  0.00     0.137 A 
HETATM    6  C13 UNL     1      23.399   3.224  51.588  1.00  0.00     0.013 A 
HETATM    7  C14 UNL     1      24.152   3.813  52.723  1.00  0.00     0.055 C 
ENDROOT
BRANCH   1   8
HETATM    8  C3  UNL     1      23.896   0.909  52.483  1.00  0.00     0.064 C 
HETATM    9  C2  UNL     1      23.575  -0.136  53.269  1.00  0.00     0.049 C 
BRANCH   9  10
HETATM   10  O1  UNL     1      22.449  -0.862  53.591  1.00  0.00    -0.360 OA
HETATM   11  C1  UNL     1      21.851  -1.059  54.822  1.00  0.00     0.209 C 
ENDBRANCH   9  10
BRANCH   9  12
HETATM   12  C15 UNL     1      24.578  -0.814  54.073  1.00  0.00     0.095 C 
BRANCH  12  13
HETATM   13  C16 UNL     1      25.884  -0.197  54.332  1.00  0.00     0.279 C 
BRANCH  13  14
HETATM   14  N4  UNL     1      26.960  -0.287  53.445  1.00  0.00     0.097 N 
HETATM   15  C17 UNL     1      27.001  -1.536  52.746  1.00  0.00     0.310 C 
BRANCH  14  16
HETATM   16  C18 UNL     1      28.197  -0.007  54.107  1.00  0.00     0.309 C 
HETATM   17  C19 UNL     1      29.305  -0.952  53.697  1.00  0.00     0.053 C 
BRANCH  16  18
HETATM   18  C20 UNL     1      28.701   1.361  53.813  1.00  0.00     0.248 C 
HETATM   19  N5  UNL     1      29.575   2.219  54.538  1.00  0.00    -0.368 N 
HETATM   20  H24 UNL     1      30.571   2.506  54.401  1.00  0.00     0.159 HD
HETATM   21  H25 UNL     1      29.595   2.844  55.401  1.00  0.00     0.159 HD
HETATM   22  O2  UNL     1      28.477   2.119  52.836  1.00  0.00    -0.271 OA
ENDBRANCH  16  18
ENDBRANCH  14  16
ENDBRANCH  13  14
ENDBRANCH  12  13
ENDBRANCH   9  12
ENDBRANCH   1   8
BRANCH   5  23
HETATM   23  N3  UNL     1      22.985   5.479  50.834  1.00  0.00    -0.340 N 
HETATM   24  H6  UNL     1      22.243   6.006  51.339  1.00  0.00     0.167 HD
BRANCH  23  25
HETATM   25  C7  UNL     1      24.058   6.267  50.360  1.00  0.00     0.035 A 
HETATM   26  C8  UNL     1      24.071   7.644  50.544  1.00  0.00     0.032 A 
HETATM   27  C9  UNL     1      25.079   8.469  50.114  1.00  0.00     0.046 A 
HETATM   28  C10 UNL     1      26.166   7.942  49.454  1.00  0.00     0.138 A 
HETATM   29  F1  UNL     1      27.135   8.785  49.046  1.00  0.00    -0.204 F 
HETATM   30  C11 UNL     1      26.217   6.586  49.239  1.00  0.00     0.074 A 
HETATM   31 CL1  UNL     1      27.591   5.941  48.409  1.00  0.00    -0.081 Cl
HETATM   32  C12 UNL     1      25.174   5.816  49.695  1.00  0.00     0.056 A 
ENDBRANCH  23  25
ENDBRANCH   5  23
TORSDOF 9
ENDMDL
MODEL 5
REMARK VINA RESULT:      -7.7      3.881      7.668
REMARK  9 active torsions:
REMARK  status: ('A' for Active; 'I' for Inactive)
REMARK    1  A    between atoms: O1_2  and  C2_3 
REMARK    2  A    between atoms: C2_3  and  C15_21 
REMARK    3  A    between atoms: C3_4  and  C4_5 
REMARK    4  A    between atoms: C6_9  and  N3_10 
REMARK    5  A    between atoms: N3_10  and  C7_11 
REMARK    6  A    between atoms: C15_21  and  C16_22 
REMARK    7  A    between atoms: C16_22  and  N4_23 
REMARK    8  A    between atoms: N4_23  and  C18_25 
REMARK    9  A    between atoms: C18_25  and  C20_27 
REMARK       I    between atoms: C20_27  and  N5_28 
ROOT
HETATM    1  C4  UNL     1      25.688   5.354  49.824  1.00  0.00     0.070 A 
HETATM    2  N1  UNL     1      24.750   6.079  50.514  1.00  0.00    -0.241 NA
HETATM    3  C5  UNL     1      23.955   5.504  51.425  1.00  0.00     0.235 A 
HETATM    4  N2  UNL     1      24.091   4.214  51.650  1.00  0.00    -0.224 NA
HETATM    5  C6  UNL     1      24.958   3.382  51.055  1.00  0.00     0.137 A 
HETATM    6  C13 UNL     1      25.743   4.018  50.136  1.00  0.00     0.013 A 
HETATM    7  C14 UNL     1      26.723   3.199  49.381  1.00  0.00     0.055 C 
ENDROOT
BRANCH   1   8
HETATM    8  C3  UNL     1      26.494   6.067  48.853  1.00  0.00     0.064 C 
HETATM    9  C2  UNL     1      26.905   7.307  48.525  1.00  0.00     0.049 C 
BRANCH   9  10
HETATM   10  O1  UNL     1      26.741   8.593  48.992  1.00  0.00    -0.360 OA
HETATM   11  C1  UNL     1      27.006   9.116  50.243  1.00  0.00     0.209 C 
ENDBRANCH   9  10
BRANCH   9  12
HETATM   12  C15 UNL     1      27.779   7.537  47.387  1.00  0.00     0.095 C 
BRANCH  12  13
HETATM   13  C16 UNL     1      29.199   7.172  47.436  1.00  0.00     0.279 C 
BRANCH  13  14
HETATM   14  N4  UNL     1      30.084   7.672  48.395  1.00  0.00     0.097 N 
HETATM   15  C17 UNL     1      30.122   9.103  48.422  1.00  0.00     0.310 C 
BRANCH  14  16
HETATM   16  C18 UNL     1      31.389   7.107  48.236  1.00  0.00     0.309 C 
HETATM   17  C19 UNL     1      32.492   8.074  48.607  1.00  0.00     0.053 C 
BRANCH  16  18
HETATM   18  C20 UNL     1      31.596   5.908  49.091  1.00  0.00     0.248 C 
HETATM   19  N5  UNL     1      31.608   5.751  50.505  1.00  0.00    -0.368 N 
HETATM   20  H24 UNL     1      30.928   5.338  51.184  1.00  0.00     0.159 HD
HETATM   21  H25 UNL     1      32.216   5.952  51.356  1.00  0.00     0.159 HD
HETATM   22  O2  UNL     1      31.818   4.712  48.776  1.00  0.00    -0.271 OA
ENDBRANCH  16  18
ENDBRANCH  14  16
ENDBRANCH  13  14
ENDBRANCH  12  13
ENDBRANCH   9  12
ENDBRANCH   1   8
BRANCH   5  23
HETATM   23  N3  UNL     1      25.107   1.997  51.292  1.00  0.00    -0.340 N 
HETATM   24  H6  UNL     1      24.419   1.349  50.855  1.00  0.00     0.167 HD
BRANCH  23  25
HETATM   25  C7  UNL     1      26.105   1.370  52.070  1.00  0.00     0.035 A 
HETATM   26  C8  UNL     1      26.153  -0.013  52.194  1.00  0.00     0.032 A 
HETATM   27  C9  UNL     1      27.094  -0.688  52.929  1.00  0.00     0.046 A 
HETATM   28  C10 UNL     1      28.071   0.007  53.603  1.00  0.00     0.138 A 
HETATM   29  F1  UNL     1      28.977  -0.691  54.315  1.00  0.00    -0.204 F 
HETATM   30  C11 UNL     1      28.083   1.379  53.522  1.00  0.00     0.074 A 
HETATM   31 CL1  UNL     1      29.319   2.238  54.374  1.00  0.00    -0.081 Cl
HETATM   32  C12 UNL     1      27.112   1.994  52.769  1.00  0.00     0.056 A 
ENDBRANCH  23  25
ENDBRANCH   5  23
TORSDOF 9
ENDMDL
MODEL 6
REMARK VINA RESULT:      -7.6      1.937      2.526
REMARK  9 active torsions:
REMARK  status: ('A' for Active; 'I' for Inactive)
REMARK    1  A    between atoms: O1_2  and  C2_3 
REMARK    2  A    between atoms: C2_3  and  C15_21 
REMARK    3  A    between atoms: C3_4  and  C4_5 
REMARK    4  A    between atoms: C6_9  and  N3_10 
REMARK    5  A    between atoms: N3_10  and  C7_11 
REMARK    6  A    between atoms: C15_21  and  C16_22 
REMARK    7  A    between atoms: C16_22  and  N4_23 
REMARK    8  A    between atoms: N4_23  and  C18_25 
REMARK    9  A    between atoms: C18_25  and  C20_27 
REMARK       I    between atoms: C20_27  and  N5_28 
ROOT
HETATM    1  C4  UNL     1      24.787   4.301  50.948  1.00  0.00     0.070 A 
HETATM    2  N1  UNL     1      23.910   5.236  51.436  1.00  0.00    -0.241 NA
HETATM    3  C5  UNL     1      23.880   6.485  50.953  1.00  0.00     0.235 A 
HETATM    4  N2  UNL     1      24.718   6.804  49.990  1.00  0.00    -0.224 NA
HETATM    5  C6  UNL     1      25.627   6.002  49.417  1.00  0.00     0.137 A 
HETATM    6  C13 UNL     1      25.616   4.743  49.945  1.00  0.00     0.013 A 
HETATM    7  C14 UNL     1      26.602   3.766  49.421  1.00  0.00     0.055 C 
ENDROOT
BRANCH   1   8
HETATM    8  C3  UNL     1      24.747   2.981  51.542  1.00  0.00     0.064 C 
HETATM    9  C2  UNL     1      23.891   2.075  52.051  1.00  0.00     0.049 C 
BRANCH   9  10
HETATM   10  O1  UNL     1      22.535   1.963  52.270  1.00  0.00    -0.360 OA
HETATM   11  C1  UNL     1      21.843   1.067  53.063  1.00  0.00     0.209 C 
ENDBRANCH   9  10
BRANCH   9  12
HETATM   12  C15 UNL     1      24.357   0.793  52.555  1.00  0.00     0.095 C 
BRANCH  12  13
HETATM   13  C16 UNL     1      25.766   0.402  52.439  1.00  0.00     0.279 C 
BRANCH  13  14
HETATM   14  N4  UNL     1      26.466  -0.245  53.460  1.00  0.00     0.097 N 
HETATM   15  C17 UNL     1      26.624   0.570  54.627  1.00  0.00     0.310 C 
BRANCH  14  16
HETATM   16  C18 UNL     1      27.719  -0.748  52.987  1.00  0.00     0.309 C 
HETATM   17  C19 UNL     1      28.838  -0.561  53.989  1.00  0.00     0.053 C 
BRANCH  16  18
HETATM   18  C20 UNL     1      27.673  -2.206  52.698  1.00  0.00     0.248 C 
HETATM   19  N5  UNL     1      28.496  -3.280  53.139  1.00  0.00    -0.368 N 
HETATM   20  H24 UNL     1      28.354  -4.053  53.828  1.00  0.00     0.159 HD
HETATM   21  H25 UNL     1      29.463  -3.700  52.985  1.00  0.00     0.159 HD
HETATM   22  O2  UNL     1      26.884  -2.869  51.978  1.00  0.00    -0.271 OA
ENDBRANCH  16  18
ENDBRANCH  14  16
ENDBRANCH  13  14
ENDBRANCH  12  13
ENDBRANCH   9  12
ENDBRANCH   1   8
BRANCH   5  23
HETATM   23  N3  UNL     1      26.529   6.340  48.383  1.00  0.00    -0.340 N 
HETATM   24  H6  UNL     1      26.282   6.068  47.409  1.00  0.00     0.167 HD
BRANCH  23  25
HETATM   25  C7  UNL     1      27.759   7.021  48.518  1.00  0.00     0.035 A 
HETATM   26  C8  UNL     1      27.813   8.302  49.053  1.00  0.00     0.032 A 
HETATM   27  C9  UNL     1      28.971   9.020  49.216  1.00  0.00     0.046 A 
HETATM   28  C10 UNL     1      30.178   8.477  48.839  1.00  0.00     0.138 A 
HETATM   29  F1  UNL     1      31.292   9.215  49.014  1.00  0.00    -0.204 F 
HETATM   30  C11 UNL     1      30.196   7.212  48.303  1.00  0.00     0.074 A 
HETATM   31 CL1  UNL     1      31.722   6.545  47.835  1.00  0.00    -0.081 Cl
HETATM   32  C12 UNL     1      29.002   6.546  48.166  1.00  0.00     0.056 A 
ENDBRANCH  23  25
ENDBRANCH   5  23
TORSDOF 9
ENDMDL
MODEL 7
REMARK VINA RESULT:      -7.4      4.958      8.808
REMARK  9 active torsions:
REMARK  status: ('A' for Active; 'I' for Inactive)
REMARK    1  A    between atoms: O1_2  and  C2_3 
REMARK    2  A    between atoms: C2_3  and  C15_21 
REMARK    3  A    between atoms: C3_4  and  C4_5 
REMARK    4  A    between atoms: C6_9  and  N3_10 
REMARK    5  A    between atoms: N3_10  and  C7_11 
REMARK    6  A    between atoms: C15_21  and  C16_22 
REMARK    7  A    between atoms: C16_22  and  N4_23 
REMARK    8  A    between atoms: N4_23  and  C18_25 
REMARK    9  A    between atoms: C18_25  and  C20_27 
REMARK       I    between atoms: C20_27  and  N5_28 
ROOT
HETATM    1  C4  UNL     1      25.546   5.417  49.952  1.00  0.00     0.070 A 
HETATM    2  N1  UNL     1      24.633   6.189  50.625  1.00  0.00    -0.241 NA
HETATM    3  C5  UNL     1      23.785   5.653  51.512  1.00  0.00     0.235 A 
HETATM    4  N2  UNL     1      23.842   4.357  51.729  1.00  0.00    -0.224 NA
HETATM    5  C6  UNL     1      24.675   3.481  51.148  1.00  0.00     0.137 A 
HETATM    6  C13 UNL     1      25.517   4.078  50.254  1.00  0.00     0.013 A 
HETATM    7  C14 UNL     1      26.468   3.210  49.516  1.00  0.00     0.055 C 
ENDROOT
BRANCH   1   8
HETATM    8  C3  UNL     1      26.414   6.090  49.007  1.00  0.00     0.064 C 
HETATM    9  C2  UNL     1      26.417   7.072  48.085  1.00  0.00     0.049 C 
BRANCH   9  10
HETATM   10  O1  UNL     1      25.522   7.977  47.556  1.00  0.00    -0.360 OA
HETATM   11  C1  UNL     1      24.765   8.942  48.194  1.00  0.00     0.209 C 
ENDBRANCH   9  10
BRANCH   9  12
HETATM   12  C15 UNL     1      27.621   7.411  47.345  1.00  0.00     0.095 C 
BRANCH  12  13
HETATM   13  C16 UNL     1      28.911   7.562  48.027  1.00  0.00     0.279 C 
BRANCH  13  14
HETATM   14  N4  UNL     1      29.660   8.741  47.994  1.00  0.00     0.097 N 
HETATM   15  C17 UNL     1      30.961   8.557  47.425  1.00  0.00     0.310 C 
BRANCH  14  16
HETATM   16  C18 UNL     1      29.726   9.345  49.290  1.00  0.00     0.309 C 
HETATM   17  C19 UNL     1      30.575  10.598  49.306  1.00  0.00     0.053 C 
BRANCH  16  18
HETATM   18  C20 UNL     1      28.388   9.755  49.794  1.00  0.00     0.248 C 
HETATM   19  N5  UNL     1      27.600   9.268  50.874  1.00  0.00    -0.368 N 
HETATM   20  H24 UNL     1      27.374   9.647  51.822  1.00  0.00     0.159 HD
HETATM   21  H25 UNL     1      26.991   8.438  51.147  1.00  0.00     0.159 HD
HETATM   22  O2  UNL     1      27.602  10.646  49.386  1.00  0.00    -0.271 OA
ENDBRANCH  16  18
ENDBRANCH  14  16
ENDBRANCH  13  14
ENDBRANCH  12  13
ENDBRANCH   9  12
ENDBRANCH   1   8
BRANCH   5  23
HETATM   23  N3  UNL     1      24.740   2.088  51.377  1.00  0.00    -0.340 N 
HETATM   24  H6  UNL     1      25.614   1.589  51.113  1.00  0.00     0.167 HD
BRANCH  23  25
HETATM   25  C7  UNL     1      23.733   1.271  51.936  1.00  0.00     0.035 A 
HETATM   26  C8  UNL     1      23.976   0.511  53.073  1.00  0.00     0.032 A 
HETATM   27  C9  UNL     1      23.046  -0.301  53.671  1.00  0.00     0.046 A 
HETATM   28  C10 UNL     1      21.779  -0.400  53.146  1.00  0.00     0.138 A 
HETATM   29  F1  UNL     1      20.893  -1.209  53.761  1.00  0.00    -0.204 F 
HETATM   30  C11 UNL     1      21.470   0.326  52.021  1.00  0.00     0.074 A 
HETATM   31 CL1  UNL     1      19.871   0.191  51.374  1.00  0.00    -0.081 Cl
HETATM   32  C12 UNL     1      22.447   1.120  51.471  1.00  0.00     0.056 A 
ENDBRANCH  23  25
ENDBRANCH   5  23
TORSDOF 9
ENDMDL
MODEL 8
REMARK VINA RESULT:      -7.4      4.458      8.388
REMARK  9 active torsions:
REMARK  status: ('A' for Active; 'I' for Inactive)
REMARK    1  A    between atoms: O1_2  and  C2_3 
REMARK    2  A    between atoms: C2_3  and  C15_21 
REMARK    3  A    between atoms: C3_4  and  C4_5 
REMARK    4  A    between atoms: C6_9  and  N3_10 
REMARK    5  A    between atoms: N3_10  and  C7_11 
REMARK    6  A    between atoms: C15_21  and  C16_22 
REMARK    7  A    between atoms: C16_22  and  N4_23 
REMARK    8  A    between atoms: N4_23  and  C18_25 
REMARK    9  A    between atoms: C18_25  and  C20_27 
REMARK       I    between atoms: C20_27  and  N5_28 
ROOT
HETATM    1  C4  UNL     1      25.701   5.498  49.725  1.00  0.00     0.070 A 
HETATM    2  N1  UNL     1      24.792   6.324  50.337  1.00  0.00    -0.241 NA
HETATM    3  C5  UNL     1      23.895   5.849  51.211  1.00  0.00     0.235 A 
HETATM    4  N2  UNL     1      23.899   4.560  51.475  1.00  0.00    -0.224 NA
HETATM    5  C6  UNL     1      24.722   3.636  50.956  1.00  0.00     0.137 A 
HETATM    6  C13 UNL     1      25.615   4.172  50.073  1.00  0.00     0.013 A 
HETATM    7  C14 UNL     1      26.560   3.247  49.401  1.00  0.00     0.055 C 
ENDROOT
BRANCH   1   8
HETATM    8  C3  UNL     1      26.625   6.107  48.790  1.00  0.00     0.064 C 
HETATM    9  C2  UNL     1      27.443   7.167  48.649  1.00  0.00     0.049 C 
BRANCH   9  10
HETATM   10  O1  UNL     1      27.820   8.270  49.385  1.00  0.00    -0.360 OA
HETATM   11  C1  UNL     1      27.048   9.121  50.154  1.00  0.00     0.209 C 
ENDBRANCH   9  10
BRANCH   9  12
HETATM   12  C15 UNL     1      28.232   7.359  47.444  1.00  0.00     0.095 C 
BRANCH  12  13
HETATM   13  C16 UNL     1      29.665   7.045  47.420  1.00  0.00     0.279 C 
BRANCH  13  14
HETATM   14  N4  UNL     1      30.642   7.964  47.028  1.00  0.00     0.097 N 
HETATM   15  C17 UNL     1      31.464   7.480  45.960  1.00  0.00     0.310 C 
BRANCH  14  16
HETATM   16  C18 UNL     1      31.422   8.395  48.148  1.00  0.00     0.309 C 
HETATM   17  C19 UNL     1      32.828   8.797  47.759  1.00  0.00     0.053 C 
BRANCH  16  18
HETATM   18  C20 UNL     1      30.834   9.580  48.827  1.00  0.00     0.248 C 
HETATM   19  N5  UNL     1      30.548   9.834  50.198  1.00  0.00    -0.368 N 
HETATM   20  H24 UNL     1      31.003  10.432  50.924  1.00  0.00     0.159 HD
HETATM   21  H25 UNL     1      29.856   9.568  50.963  1.00  0.00     0.159 HD
HETATM   22  O2  UNL     1      30.433  10.673  48.356  1.00  0.00    -0.271 OA
ENDBRANCH  16  18
ENDBRANCH  14  16
ENDBRANCH  13  14
ENDBRANCH  12  13
ENDBRANCH   9  12
ENDBRANCH   1   8
BRANCH   5  23
HETATM   23  N3  UNL     1      24.730   2.251  51.235  1.00  0.00    -0.340 N 
HETATM   24  H6  UNL     1      24.096   1.637  50.683  1.00  0.00     0.167 HD
BRANCH  23  25
HETATM   25  C7  UNL     1      25.517   1.583  52.199  1.00  0.00     0.035 A 
HETATM   26  C8  UNL     1      25.777   2.160  53.436  1.00  0.00     0.032 A 
HETATM   27  C9  UNL     1      26.530   1.568  54.418  1.00  0.00     0.046 A 
HETATM   28  C10 UNL     1      27.081   0.325  54.210  1.00  0.00     0.138 A 
HETATM   29  F1  UNL     1      27.814  -0.223  55.199  1.00  0.00    -0.204 F 
HETATM   30  C11 UNL     1      26.862  -0.303  53.007  1.00  0.00     0.074 A 
HETATM   31 CL1  UNL     1      27.561  -1.867  52.762  1.00  0.00    -0.081 Cl
HETATM   32  C12 UNL     1      26.099   0.344  52.065  1.00  0.00     0.056 A 
ENDBRANCH  23  25
ENDBRANCH   5  23
TORSDOF 9
ENDMDL
MODEL 9
REMARK VINA RESULT:      -7.4      6.640      9.967
REMARK  9 active torsions:
REMARK  status: ('A' for Active; 'I' for Inactive)
REMARK    1  A    between atoms: O1_2  and  C2_3 
REMARK    2  A    between atoms: C2_3  and  C15_21 
REMARK    3  A    between atoms: C3_4  and  C4_5 
REMARK    4  A    between atoms: C6_9  and  N3_10 
REMARK    5  A    between atoms: N3_10  and  C7_11 
REMARK    6  A    between atoms: C15_21  and  C16_22 
REMARK    7  A    between atoms: C16_22  and  N4_23 
REMARK    8  A    between atoms: N4_23  and  C18_25 
REMARK    9  A    between atoms: C18_25  and  C20_27 
REMARK       I    between atoms: C20_27  and  N5_28 
ROOT
HETATM    1  C4  UNL     1      21.028   1.070  52.401  1.00  0.00     0.070 A 
HETATM    2  N1  UNL     1      20.473   1.403  51.191  1.00  0.00    -0.241 NA
HETATM    3  C5  UNL     1      19.311   0.874  50.788  1.00  0.00     0.235 A 
HETATM    4  N2  UNL     1      18.703   0.018  51.581  1.00  0.00    -0.224 NA
HETATM    5  C6  UNL     1      19.123  -0.401  52.783  1.00  0.00     0.137 A 
HETATM    6  C13 UNL     1      20.311   0.167  53.146  1.00  0.00     0.013 A 
HETATM    7  C14 UNL     1      20.902  -0.242  54.444  1.00  0.00     0.055 C 
ENDROOT
BRANCH   1   8
HETATM    8  C3  UNL     1      22.292   1.689  52.743  1.00  0.00     0.064 C 
HETATM    9  C2  UNL     1      23.050   2.768  52.470  1.00  0.00     0.049 C 
BRANCH   9  10
HETATM   10  O1  UNL     1      22.982   3.886  51.666  1.00  0.00    -0.360 OA
HETATM   11  C1  UNL     1      22.071   4.925  51.680  1.00  0.00     0.209 C 
ENDBRANCH   9  10
BRANCH   9  12
HETATM   12  C15 UNL     1      24.334   2.974  53.119  1.00  0.00     0.095 C 
BRANCH  12  13
HETATM   13  C16 UNL     1      25.284   1.868  53.286  1.00  0.00     0.279 C 
BRANCH  13  14
HETATM   14  N4  UNL     1      26.669   2.032  53.211  1.00  0.00     0.097 N 
HETATM   15  C17 UNL     1      27.132   2.243  51.873  1.00  0.00     0.310 C 
BRANCH  14  16
HETATM   16  C18 UNL     1      27.351   0.947  53.846  1.00  0.00     0.309 C 
HETATM   17  C19 UNL     1      27.310  -0.326  53.029  1.00  0.00     0.053 C 
BRANCH  16  18
HETATM   18  C20 UNL     1      28.792   1.237  54.073  1.00  0.00     0.248 C 
HETATM   19  N5  UNL     1      29.968   0.644  53.535  1.00  0.00    -0.368 N 
HETATM   20  H24 UNL     1      30.666   0.958  52.822  1.00  0.00     0.159 HD
HETATM   21  H25 UNL     1      30.559  -0.240  53.609  1.00  0.00     0.159 HD
HETATM   22  O2  UNL     1      29.345   2.092  54.810  1.00  0.00    -0.271 OA
ENDBRANCH  16  18
ENDBRANCH  14  16
ENDBRANCH  13  14
ENDBRANCH  12  13
ENDBRANCH   9  12
ENDBRANCH   1   8
BRANCH   5  23
HETATM   23  N3  UNL     1      18.475  -1.321  53.638  1.00  0.00    -0.340 N 
HETATM   24  H6  UNL     1      18.774  -1.359  54.634  1.00  0.00     0.167 HD
BRANCH  23  25
HETATM   25  C7  UNL     1      17.441  -2.219  53.292  1.00  0.00     0.035 A 
HETATM   26  C8  UNL     1      17.513  -3.562  53.639  1.00  0.00     0.032 A 
HETATM   27  C9  UNL     1      16.546  -4.488  53.339  1.00  0.00     0.046 A 
HETATM   28  C10 UNL     1      15.416  -4.107  52.653  1.00  0.00     0.138 A 
HETATM   29  F1  UNL     1      14.489  -5.046  52.376  1.00  0.00    -0.204 F 
HETATM   30  C11 UNL     1      15.280  -2.792  52.280  1.00  0.00     0.074 A 
HETATM   31 CL1  UNL     1      13.852  -2.330  51.419  1.00  0.00    -0.081 Cl
HETATM   32  C12 UNL     1      16.285  -1.915  52.611  1.00  0.00     0.056 A 
ENDBRANCH  23  25
ENDBRANCH   5  23
TORSDOF 9
ENDMDL
