MODEL 1
REMARK VINA RESULT:      -8.5      0.000      0.000
REMARK  8 active torsions:
REMARK  status: ('A' for Active; 'I' for Inactive)
REMARK    1  A    between atoms: C2_2  and  C3_3 
REMARK    2  A    between atoms: C3_3  and  C4_4 
REMARK    3  A    between atoms: C4_4  and  C5_5 
REMARK    4  A    between atoms: C5_5  and  N1_6 
REMARK    5  A    between atoms: N1_6  and  C6_7 
REMARK    6  A    between atoms: C6_7  and  C7_8 
REMARK    7  A    between atoms: C11_13  and  N3_14 
REMARK    8  A    between atoms: N3_14  and  C12_15 
ROOT
HETATM    1  C7  UNL     1      23.313   0.978  52.184  1.00  0.00     0.004 A 
HETATM    2  C8  UNL     1      21.904   1.025  52.079  1.00  0.00     0.030 A 
HETATM    3  C9  UNL     1      21.347   0.084  52.964  1.00  0.00     0.119 A 
HETATM    4  N2  UNL     1      22.337  -0.554  53.624  1.00  0.00    -0.247 N 
HETATM    5  C10 UNL     1      23.451   0.010  53.127  1.00  0.00     0.111 A 
HETATM    6  C11 UNL     1      24.809  -0.315  53.591  1.00  0.00     0.159 C 
HETATM    7  N4  UNL     1      25.185  -0.873  54.702  1.00  0.00    -0.220 NA
HETATM    8  C19 UNL     1      24.316  -1.315  55.764  1.00  0.00     0.259 C 
HETATM    9  N5  UNL     1      23.059  -1.600  55.740  1.00  0.00    -0.152 NA
HETATM   10  N6  UNL     1      22.195  -1.543  54.605  1.00  0.00    -0.212 N 
HETATM   11  H26 UNL     1      21.371  -2.194  54.373  1.00  0.00     0.211 HD
ENDROOT
BRANCH   6  12
HETATM   12  N3  UNL     1      25.891   0.001  52.755  1.00  0.00    -0.339 N 
HETATM   13  H17 UNL     1      25.593   0.351  51.825  1.00  0.00     0.167 HD
BRANCH  12  14
HETATM   14  C12 UNL     1      27.283  -0.143  53.102  1.00  0.00     0.039 A 
HETATM   15  C13 UNL     1      27.768  -1.419  53.003  1.00  0.00     0.030 A 
HETATM   16  C14 UNL     1      29.056  -1.827  53.227  1.00  0.00     0.002 A 
HETATM   17  C15 UNL     1      29.954  -0.811  53.593  1.00  0.00     0.001 A 
HETATM   18  C16 UNL     1      29.484   0.500  53.702  1.00  0.00     0.009 A 
HETATM   19  C17 UNL     1      28.165   0.844  53.462  1.00  0.00    -0.035 A 
HETATM   20  C18 UNL     1      27.634   2.226  53.590  1.00  0.00     0.050 C 
ENDBRANCH  12  14
ENDBRANCH   6  12
BRANCH   1  21
HETATM   21  C6  UNL     1      24.122   1.809  51.345  1.00  0.00     0.310 C 
BRANCH  21  22
HETATM   22  N1  UNL     1      24.722   3.011  51.825  1.00  0.00     0.087 NA
HETATM   23  H12 UNL     1      25.702   2.983  52.149  1.00  0.00     0.316 HD
BRANCH  22  24
HETATM   24  C5  UNL     1      24.729   4.053  50.786  1.00  0.00     0.270 C 
BRANCH  24  25
HETATM   25  C4  UNL     1      25.221   3.492  49.475  1.00  0.00     0.030 C 
BRANCH  25  26
HETATM   26  C3  UNL     1      26.706   3.818  49.387  1.00  0.00     0.001 C 
BRANCH  26  27
HETATM   27  C2  UNL     1      26.920   5.223  48.860  1.00  0.00    -0.005 C 
HETATM   28  C1  UNL     1      28.360   5.329  48.405  1.00  0.00     0.005 C 
ENDBRANCH  26  27
ENDBRANCH  25  26
ENDBRANCH  24  25
ENDBRANCH  22  24
ENDBRANCH  21  22
ENDBRANCH   1  21
TORSDOF 8
ENDMDL
MODEL 2
REMARK VINA RESULT:      -8.2      1.780      4.787
REMARK  8 active torsions:
REMARK  status: ('A' for Active; 'I' for Inactive)
REMARK    1  A    between atoms: C2_2  and  C3_3 
REMARK    2  A    between atoms: C3_3  and  C4_4 
REMARK    3  A    between atoms: C4_4  and  C5_5 
REMARK    4  A    between atoms: C5_5  and  N1_6 
REMARK    5  A    between atoms: N1_6  and  C6_7 
REMARK    6  A    between atoms: C6_7  and  C7_8 
REMARK    7  A    between atoms: C11_13  and  N3_14 
REMARK    8  A    between atoms: N3_14  and  C12_15 
ROOT
HETATM    1  C7  UNL     1      27.293   1.848  52.938  1.00  0.00     0.004 A 
HETATM    2  C8  UNL     1      28.470   2.366  53.526  1.00  0.00     0.030 A 
HETATM    3  C9  UNL     1      29.209   1.306  54.082  1.00  0.00     0.119 A 
HETATM    4  N2  UNL     1      28.556   0.143  53.874  1.00  0.00    -0.247 N 
HETATM    5  C10 UNL     1      27.454   0.525  53.206  1.00  0.00     0.111 A 
HETATM    6  C11 UNL     1      26.443  -0.412  52.691  1.00  0.00     0.159 C 
HETATM    7  N4  UNL     1      26.547  -1.686  52.461  1.00  0.00    -0.220 NA
HETATM    8  C19 UNL     1      27.725  -2.491  52.670  1.00  0.00     0.259 C 
HETATM    9  N5  UNL     1      28.752  -2.276  53.419  1.00  0.00    -0.152 NA
HETATM   10  N6  UNL     1      28.973  -1.139  54.253  1.00  0.00    -0.212 N 
HETATM   11  H26 UNL     1      29.465  -1.112  55.209  1.00  0.00     0.211 HD
ENDROOT
BRANCH   6  12
HETATM   12  N3  UNL     1      25.166   0.087  52.389  1.00  0.00    -0.339 N 
HETATM   13  H17 UNL     1      25.158   0.687  51.543  1.00  0.00     0.167 HD
BRANCH  12  14
HETATM   14  C12 UNL     1      23.970  -0.168  53.152  1.00  0.00     0.039 A 
HETATM   15  C13 UNL     1      24.176  -0.819  54.338  1.00  0.00     0.030 A 
HETATM   16  C14 UNL     1      23.227  -1.142  55.273  1.00  0.00     0.002 A 
HETATM   17  C15 UNL     1      21.916  -0.752  54.958  1.00  0.00     0.001 A 
HETATM   18  C16 UNL     1      21.679  -0.086  53.754  1.00  0.00     0.009 A 
HETATM   19  C17 UNL     1      22.686   0.209  52.850  1.00  0.00    -0.035 A 
HETATM   20  C18 UNL     1      22.458   0.898  51.554  1.00  0.00     0.050 C 
ENDBRANCH  12  14
ENDBRANCH   6  12
BRANCH   1  21
HETATM   21  C6  UNL     1      26.339   2.734  52.344  1.00  0.00     0.310 C 
BRANCH  21  22
HETATM   22  N1  UNL     1      26.303   2.973  50.939  1.00  0.00     0.087 NA
HETATM   23  H12 UNL     1      26.177   2.170  50.301  1.00  0.00     0.316 HD
BRANCH  22  24
HETATM   24  C5  UNL     1      25.198   3.877  50.581  1.00  0.00     0.270 C 
BRANCH  24  25
HETATM   25  C4  UNL     1      25.529   4.651  49.331  1.00  0.00     0.030 C 
BRANCH  25  26
HETATM   26  C3  UNL     1      27.021   4.470  49.083  1.00  0.00     0.001 C 
BRANCH  26  27
HETATM   27  C2  UNL     1      27.615   5.708  48.440  1.00  0.00    -0.005 C 
HETATM   28  C1  UNL     1      29.097   5.461  48.251  1.00  0.00     0.005 C 
ENDBRANCH  26  27
ENDBRANCH  25  26
ENDBRANCH  24  25
ENDBRANCH  22  24
ENDBRANCH  21  22
ENDBRANCH   1  21
TORSDOF 8
ENDMDL
MODEL 3
REMARK VINA RESULT:      -7.7      1.974      4.575
REMARK  8 active torsions:
REMARK  status: ('A' for Active; 'I' for Inactive)
REMARK    1  A    between atoms: C2_2  and  C3_3 
REMARK    2  A    between atoms: C3_3  and  C4_4 
REMARK    3  A    between atoms: C4_4  and  C5_5 
REMARK    4  A    between atoms: C5_5  and  N1_6 
REMARK    5  A    between atoms: N1_6  and  C6_7 
REMARK    6  A    between atoms: C6_7  and  C7_8 
REMARK    7  A    between atoms: C11_13  and  N3_14 
REMARK    8  A    between atoms: N3_14  and  C12_15 
ROOT
HETATM    1  C7  UNL     1      22.304   0.118  53.427  1.00  0.00     0.004 A 
HETATM    2  C8  UNL     1      21.782  -0.790  54.376  1.00  0.00     0.030 A 
HETATM    3  C9  UNL     1      22.847  -1.364  55.095  1.00  0.00     0.119 A 
HETATM    4  N2  UNL     1      24.016  -0.860  54.645  1.00  0.00    -0.247 N 
HETATM    5  C10 UNL     1      23.632  -0.008  53.680  1.00  0.00     0.111 A 
HETATM    6  C11 UNL     1      24.564   0.846  52.925  1.00  0.00     0.159 C 
HETATM    7  N4  UNL     1      25.775   1.207  53.227  1.00  0.00    -0.220 NA
HETATM    8  C19 UNL     1      26.498   0.832  54.417  1.00  0.00     0.259 C 
HETATM    9  N5  UNL     1      26.311  -0.158  55.222  1.00  0.00    -0.152 NA
HETATM   10  N6  UNL     1      25.300  -1.160  55.118  1.00  0.00    -0.212 N 
HETATM   11  H26 UNL     1      25.376  -2.200  55.381  1.00  0.00     0.211 HD
ENDROOT
BRANCH   6  12
HETATM   12  N3  UNL     1      24.136   1.372  51.696  1.00  0.00    -0.339 N 
HETATM   13  H17 UNL     1      23.455   0.759  51.210  1.00  0.00     0.167 HD
BRANCH  12  14
HETATM   14  C12 UNL     1      24.581   2.619  51.124  1.00  0.00     0.039 A 
HETATM   15  C13 UNL     1      25.613   2.504  50.234  1.00  0.00     0.030 A 
HETATM   16  C14 UNL     1      26.194   3.516  49.514  1.00  0.00     0.002 A 
HETATM   17  C15 UNL     1      25.653   4.793  49.730  1.00  0.00     0.001 A 
HETATM   18  C16 UNL     1      24.598   4.938  50.634  1.00  0.00     0.009 A 
HETATM   19  C17 UNL     1      24.058   3.871  51.331  1.00  0.00    -0.035 A 
HETATM   20  C18 UNL     1      22.950   3.999  52.313  1.00  0.00     0.050 C 
ENDBRANCH  12  14
ENDBRANCH   6  12
BRANCH   1  21
HETATM   21  C6  UNL     1      21.423   0.800  52.528  1.00  0.00     0.310 C 
BRANCH  21  22
HETATM   22  N1  UNL     1      21.140   0.301  51.222  1.00  0.00     0.087 NA
HETATM   23  H12 UNL     1      20.708  -0.632  51.130  1.00  0.00     0.316 HD
BRANCH  22  24
HETATM   24  C5  UNL     1      20.211   1.187  50.504  1.00  0.00     0.270 C 
BRANCH  24  25
HETATM   25  C4  UNL     1      20.969   2.184  49.665  1.00  0.00     0.030 C 
BRANCH  25  26
HETATM   26  C3  UNL     1      21.811   1.381  48.681  1.00  0.00     0.001 C 
BRANCH  26  27
HETATM   27  C2  UNL     1      22.679   2.298  47.841  1.00  0.00    -0.005 C 
HETATM   28  C1  UNL     1      22.220   3.719  48.090  1.00  0.00     0.005 C 
ENDBRANCH  26  27
ENDBRANCH  25  26
ENDBRANCH  24  25
ENDBRANCH  22  24
ENDBRANCH  21  22
ENDBRANCH   1  21
TORSDOF 8
ENDMDL
MODEL 4
REMARK VINA RESULT:      -7.7      2.005      5.128
REMARK  8 active torsions:
REMARK  status: ('A' for Active; 'I' for Inactive)
REMARK    1  A    between atoms: C2_2  and  C3_3 
REMARK    2  A    between atoms: C3_3  and  C4_4 
REMARK    3  A    between atoms: C4_4  and  C5_5 
REMARK    4  A    between atoms: C5_5  and  N1_6 
REMARK    5  A    between atoms: N1_6  and  C6_7 
REMARK    6  A    between atoms: C6_7  and  C7_8 
REMARK    7  A    between atoms: C11_13  and  N3_14 
REMARK    8  A    between atoms: N3_14  and  C12_15 
ROOT
HETATM    1  C7  UNL     1      27.222   1.849  52.894  1.00  0.00     0.004 A 
HETATM    2  C8  UNL     1      28.428   2.377  53.408  1.00  0.00     0.030 A 
HETATM    3  C9  UNL     1      29.199   1.326  53.938  1.00  0.00     0.119 A 
HETATM    4  N2  UNL     1      28.537   0.159  53.781  1.00  0.00    -0.247 N 
HETATM    5  C10 UNL     1      27.400   0.531  53.169  1.00  0.00     0.111 A 
HETATM    6  C11 UNL     1      26.363  -0.414  52.723  1.00  0.00     0.159 C 
HETATM    7  N4  UNL     1      26.457  -1.691  52.505  1.00  0.00    -0.220 NA
HETATM    8  C19 UNL     1      27.647  -2.492  52.661  1.00  0.00     0.259 C 
HETATM    9  N5  UNL     1      28.713  -2.265  53.349  1.00  0.00    -0.152 NA
HETATM   10  N6  UNL     1      28.977  -1.117  54.154  1.00  0.00    -0.212 N 
HETATM   11  H26 UNL     1      29.521  -1.076  55.081  1.00  0.00     0.211 HD
ENDROOT
BRANCH   6  12
HETATM   12  N3  UNL     1      25.071   0.079  52.485  1.00  0.00    -0.339 N 
HETATM   13  H17 UNL     1      25.036   0.753  51.698  1.00  0.00     0.167 HD
BRANCH  12  14
HETATM   14  C12 UNL     1      23.893  -0.273  53.239  1.00  0.00     0.039 A 
HETATM   15  C13 UNL     1      24.142  -0.850  54.454  1.00  0.00     0.030 A 
HETATM   16  C14 UNL     1      23.215  -1.236  55.385  1.00  0.00     0.002 A 
HETATM   17  C15 UNL     1      21.876  -1.003  55.032  1.00  0.00     0.001 A 
HETATM   18  C16 UNL     1      21.594  -0.415  53.797  1.00  0.00     0.009 A 
HETATM   19  C17 UNL     1      22.583  -0.050  52.899  1.00  0.00    -0.035 A 
HETATM   20  C18 UNL     1      22.311   0.558  51.571  1.00  0.00     0.050 C 
ENDBRANCH  12  14
ENDBRANCH   6  12
BRANCH   1  21
HETATM   21  C6  UNL     1      26.234   2.726  52.341  1.00  0.00     0.310 C 
BRANCH  21  22
HETATM   22  N1  UNL     1      26.426   3.389  51.093  1.00  0.00     0.087 NA
HETATM   23  H12 UNL     1      26.539   2.818  50.239  1.00  0.00     0.316 HD
BRANCH  22  24
HETATM   24  C5  UNL     1      25.288   4.267  50.776  1.00  0.00     0.270 C 
BRANCH  24  25
HETATM   25  C4  UNL     1      24.823   4.042  49.360  1.00  0.00     0.030 C 
BRANCH  25  26
HETATM   26  C3  UNL     1      23.717   2.996  49.421  1.00  0.00     0.001 C 
BRANCH  26  27
HETATM   27  C2  UNL     1      22.762   3.153  48.255  1.00  0.00    -0.005 C 
HETATM   28  C1  UNL     1      22.113   1.807  48.007  1.00  0.00     0.005 C 
ENDBRANCH  26  27
ENDBRANCH  25  26
ENDBRANCH  24  25
ENDBRANCH  22  24
ENDBRANCH  21  22
ENDBRANCH   1  21
TORSDOF 8
ENDMDL
MODEL 5
REMARK VINA RESULT:      -7.7      1.677      4.839
REMARK  8 active torsions:
REMARK  status: ('A' for Active; 'I' for Inactive)
REMARK    1  A    between atoms: C2_2  and  C3_3 
REMARK    2  A    between atoms: C3_3  and  C4_4 
REMARK    3  A    between atoms: C4_4  and  C5_5 
REMARK    4  A    between atoms: C5_5  and  N1_6 
REMARK    5  A    between atoms: N1_6  and  C6_7 
REMARK    6  A    between atoms: C6_7  and  C7_8 
REMARK    7  A    between atoms: C11_13  and  N3_14 
REMARK    8  A    between atoms: N3_14  and  C12_15 
ROOT
HETATM    1  C7  UNL     1      26.958   1.035  52.631  1.00  0.00     0.004 A 
HETATM    2  C8  UNL     1      28.170   0.938  53.353  1.00  0.00     0.030 A 
HETATM    3  C9  UNL     1      27.903   0.403  54.626  1.00  0.00     0.119 A 
HETATM    4  N2  UNL     1      26.581   0.156  54.743  1.00  0.00    -0.247 N 
HETATM    5  C10 UNL     1      26.090   0.543  53.553  1.00  0.00     0.111 A 
HETATM    6  C11 UNL     1      24.676   0.406  53.167  1.00  0.00     0.159 C 
HETATM    7  N4  UNL     1      23.759  -0.362  53.673  1.00  0.00    -0.220 NA
HETATM    8  C19 UNL     1      23.935  -1.285  54.767  1.00  0.00     0.259 C 
HETATM    9  N5  UNL     1      24.837  -1.314  55.688  1.00  0.00    -0.152 NA
HETATM   10  N6  UNL     1      25.921  -0.399  55.846  1.00  0.00    -0.212 N 
HETATM   11  H26 UNL     1      26.354  -0.047  56.766  1.00  0.00     0.211 HD
ENDROOT
BRANCH   6  12
HETATM   12  N3  UNL     1      24.196   1.194  52.110  1.00  0.00    -0.339 N 
HETATM   13  H17 UNL     1      24.531   0.872  51.183  1.00  0.00     0.167 HD
BRANCH  12  14
HETATM   14  C12 UNL     1      23.340   2.346  52.251  1.00  0.00     0.039 A 
HETATM   15  C13 UNL     1      23.974   3.482  52.672  1.00  0.00     0.030 A 
HETATM   16  C14 UNL     1      23.413   4.720  52.844  1.00  0.00     0.002 A 
HETATM   17  C15 UNL     1      22.043   4.806  52.548  1.00  0.00     0.001 A 
HETATM   18  C16 UNL     1      21.372   3.660  52.116  1.00  0.00     0.009 A 
HETATM   19  C17 UNL     1      22.001   2.436  51.965  1.00  0.00    -0.035 A 
HETATM   20  C18 UNL     1      21.307   1.197  51.527  1.00  0.00     0.050 C 
ENDBRANCH  12  14
ENDBRANCH   6  12
BRANCH   1  21
HETATM   21  C6  UNL     1      26.950   1.600  51.316  1.00  0.00     0.310 C 
BRANCH  21  22
HETATM   22  N1  UNL     1      26.970   3.010  51.100  1.00  0.00     0.087 NA
HETATM   23  H12 UNL     1      27.881   3.498  51.083  1.00  0.00     0.316 HD
BRANCH  22  24
HETATM   24  C5  UNL     1      26.366   3.358  49.804  1.00  0.00     0.270 C 
BRANCH  24  25
HETATM   25  C4  UNL     1      27.212   4.372  49.078  1.00  0.00     0.030 C 
BRANCH  25  26
HETATM   26  C3  UNL     1      26.341   5.605  48.871  1.00  0.00     0.001 C 
BRANCH  26  27
HETATM   27  C2  UNL     1      27.195   6.845  48.695  1.00  0.00    -0.005 C 
HETATM   28  C1  UNL     1      28.424   6.448  47.906  1.00  0.00     0.005 C 
ENDBRANCH  26  27
ENDBRANCH  25  26
ENDBRANCH  24  25
ENDBRANCH  22  24
ENDBRANCH  21  22
ENDBRANCH   1  21
TORSDOF 8
ENDMDL
MODEL 6
REMARK VINA RESULT:      -7.6      1.983      5.245
REMARK  8 active torsions:
REMARK  status: ('A' for Active; 'I' for Inactive)
REMARK    1  A    between atoms: C2_2  and  C3_3 
REMARK    2  A    between atoms: C3_3  and  C4_4 
REMARK    3  A    between atoms: C4_4  and  C5_5 
REMARK    4  A    between atoms: C5_5  and  N1_6 
REMARK    5  A    between atoms: N1_6  and  C6_7 
REMARK    6  A    between atoms: C6_7  and  C7_8 
REMARK    7  A    between atoms: C11_13  and  N3_14 
REMARK    8  A    between atoms: N3_14  and  C12_15 
ROOT
HETATM    1  C7  UNL     1      24.479   0.441  53.194  1.00  0.00     0.004 A 
HETATM    2  C8  UNL     1      24.312  -0.521  54.216  1.00  0.00     0.030 A 
HETATM    3  C9  UNL     1      25.561  -0.778  54.811  1.00  0.00     0.119 A 
HETATM    4  N2  UNL     1      26.508  -0.023  54.214  1.00  0.00    -0.247 N 
HETATM    5  C10 UNL     1      25.816   0.661  53.287  1.00  0.00     0.111 A 
HETATM    6  C11 UNL     1      26.412   1.681  52.409  1.00  0.00     0.159 C 
HETATM    7  N4  UNL     1      27.520   2.344  52.555  1.00  0.00    -0.220 NA
HETATM    8  C19 UNL     1      28.443   2.218  53.656  1.00  0.00     0.259 C 
HETATM    9  N5  UNL     1      28.603   1.253  54.495  1.00  0.00    -0.152 NA
HETATM   10  N6  UNL     1      27.871   0.028  54.534  1.00  0.00    -0.212 N 
HETATM   11  H26 UNL     1      28.235  -0.947  54.805  1.00  0.00     0.211 HD
ENDROOT
BRANCH   6  12
HETATM   12  N3  UNL     1      25.731   2.025  51.231  1.00  0.00    -0.339 N 
HETATM   13  H17 UNL     1      25.196   1.232  50.828  1.00  0.00     0.167 HD
BRANCH  12  14
HETATM   14  C12 UNL     1      25.755   3.322  50.603  1.00  0.00     0.039 A 
HETATM   15  C13 UNL     1      26.733   3.484  49.660  1.00  0.00     0.030 A 
HETATM   16  C14 UNL     1      26.951   4.592  48.884  1.00  0.00     0.002 A 
HETATM   17  C15 UNL     1      26.063   5.658  49.096  1.00  0.00     0.001 A 
HETATM   18  C16 UNL     1      25.055   5.519  50.053  1.00  0.00     0.009 A 
HETATM   19  C17 UNL     1      24.892   4.369  50.807  1.00  0.00    -0.035 A 
HETATM   20  C18 UNL     1      23.842   4.202  51.845  1.00  0.00     0.050 C 
ENDBRANCH  12  14
ENDBRANCH   6  12
BRANCH   1  21
HETATM   21  C6  UNL     1      23.360   0.840  52.396  1.00  0.00     0.310 C 
BRANCH  21  22
HETATM   22  N1  UNL     1      22.106   1.196  52.976  1.00  0.00     0.087 NA
HETATM   23  H12 UNL     1      22.020   2.110  53.450  1.00  0.00     0.316 HD
BRANCH  22  24
HETATM   24  C5  UNL     1      21.040   1.227  51.963  1.00  0.00     0.270 C 
BRANCH  24  25
HETATM   25  C4  UNL     1      21.535   0.663  50.655  1.00  0.00     0.030 C 
BRANCH  25  26
HETATM   26  C3  UNL     1      21.040   1.597  49.558  1.00  0.00     0.001 C 
BRANCH  26  27
HETATM   27  C2  UNL     1      21.903   1.476  48.318  1.00  0.00    -0.005 C 
HETATM   28  C1  UNL     1      22.826   2.676  48.281  1.00  0.00     0.005 C 
ENDBRANCH  26  27
ENDBRANCH  25  26
ENDBRANCH  24  25
ENDBRANCH  22  24
ENDBRANCH  21  22
ENDBRANCH   1  21
TORSDOF 8
ENDMDL
MODEL 7
REMARK VINA RESULT:      -7.5      1.705      3.035
REMARK  8 active torsions:
REMARK  status: ('A' for Active; 'I' for Inactive)
REMARK    1  A    between atoms: C2_2  and  C3_3 
REMARK    2  A    between atoms: C3_3  and  C4_4 
REMARK    3  A    between atoms: C4_4  and  C5_5 
REMARK    4  A    between atoms: C5_5  and  N1_6 
REMARK    5  A    between atoms: N1_6  and  C6_7 
REMARK    6  A    between atoms: C6_7  and  C7_8 
REMARK    7  A    between atoms: C11_13  and  N3_14 
REMARK    8  A    between atoms: N3_14  and  C12_15 
ROOT
HETATM    1  C7  UNL     1      22.979   1.902  52.539  1.00  0.00     0.004 A 
HETATM    2  C8  UNL     1      21.610   2.248  52.604  1.00  0.00     0.030 A 
HETATM    3  C9  UNL     1      20.920   1.252  53.319  1.00  0.00     0.119 A 
HETATM    4  N2  UNL     1      21.787   0.294  53.709  1.00  0.00    -0.247 N 
HETATM    5  C10 UNL     1      22.963   0.731  53.226  1.00  0.00     0.111 A 
HETATM    6  C11 UNL     1      24.246   0.045  53.454  1.00  0.00     0.159 C 
HETATM    7  N4  UNL     1      24.561  -0.823  54.367  1.00  0.00    -0.220 NA
HETATM    8  C19 UNL     1      23.685  -1.325  55.398  1.00  0.00     0.259 C 
HETATM    9  N5  UNL     1      22.398  -1.344  55.452  1.00  0.00    -0.152 NA
HETATM   10  N6  UNL     1      21.497  -0.851  54.460  1.00  0.00    -0.212 N 
HETATM   11  H26 UNL     1      20.539  -1.254  54.185  1.00  0.00     0.211 HD
ENDROOT
BRANCH   6  12
HETATM   12  N3  UNL     1      25.316   0.332  52.592  1.00  0.00    -0.339 N 
HETATM   13  H17 UNL     1      25.011   0.505  51.616  1.00  0.00     0.167 HD
BRANCH  12  14
HETATM   14  C12 UNL     1      26.705   0.375  52.974  1.00  0.00     0.039 A 
HETATM   15  C13 UNL     1      27.143   1.597  53.404  1.00  0.00     0.030 A 
HETATM   16  C14 UNL     1      28.396   1.906  53.866  1.00  0.00     0.002 A 
HETATM   17  C15 UNL     1      29.306   0.837  53.894  1.00  0.00     0.001 A 
HETATM   18  C16 UNL     1      28.884  -0.423  53.461  1.00  0.00     0.009 A 
HETATM   19  C17 UNL     1      27.600  -0.665  53.002  1.00  0.00    -0.035 A 
HETATM   20  C18 UNL     1      27.131  -1.989  52.516  1.00  0.00     0.050 C 
ENDBRANCH  12  14
ENDBRANCH   6  12
BRANCH   1  21
HETATM   21  C6  UNL     1      23.895   2.732  51.817  1.00  0.00     0.310 C 
BRANCH  21  22
HETATM   22  N1  UNL     1      24.133   2.559  50.421  1.00  0.00     0.087 NA
HETATM   23  H12 UNL     1      23.673   1.774  49.932  1.00  0.00     0.316 HD
BRANCH  22  24
HETATM   24  C5  UNL     1      23.707   3.742  49.658  1.00  0.00     0.270 C 
BRANCH  24  25
HETATM   25  C4  UNL     1      22.924   3.333  48.437  1.00  0.00     0.030 C 
BRANCH  25  26
HETATM   26  C3  UNL     1      22.341   1.956  48.728  1.00  0.00     0.001 C 
BRANCH  26  27
HETATM   27  C2  UNL     1      20.860   1.918  48.406  1.00  0.00    -0.005 C 
HETATM   28  C1  UNL     1      20.162   1.195  49.539  1.00  0.00     0.005 C 
ENDBRANCH  26  27
ENDBRANCH  25  26
ENDBRANCH  24  25
ENDBRANCH  22  24
ENDBRANCH  21  22
ENDBRANCH   1  21
TORSDOF 8
ENDMDL
MODEL 8
REMARK VINA RESULT:      -7.5      2.079      5.882
REMARK  8 active torsions:
REMARK  status: ('A' for Active; 'I' for Inactive)
REMARK    1  A    between atoms: C2_2  and  C3_3 
REMARK    2  A    between atoms: C3_3  and  C4_4 
REMARK    3  A    between atoms: C4_4  and  C5_5 
REMARK    4  A    between atoms: C5_5  and  N1_6 
REMARK    5  A    between atoms: N1_6  and  C6_7 
REMARK    6  A    between atoms: C6_7  and  C7_8 
REMARK    7  A    between atoms: C11_13  and  N3_14 
REMARK    8  A    between atoms: N3_14  and  C12_15 
ROOT
HETATM    1  C7  UNL     1      23.554   3.003  52.167  1.00  0.00     0.004 A 
HETATM    2  C8  UNL     1      22.714   4.135  52.273  1.00  0.00     0.030 A 
HETATM    3  C9  UNL     1      23.348   5.234  51.665  1.00  0.00     0.119 A 
HETATM    4  N2  UNL     1      24.548   4.850  51.180  1.00  0.00    -0.247 N 
HETATM    5  C10 UNL     1      24.606   3.547  51.502  1.00  0.00     0.111 A 
HETATM    6  C11 UNL     1      25.717   2.658  51.121  1.00  0.00     0.159 C 
HETATM    7  N4  UNL     1      26.606   2.811  50.186  1.00  0.00    -0.220 NA
HETATM    8  C19 UNL     1      26.701   3.931  49.283  1.00  0.00     0.259 C 
HETATM    9  N5  UNL     1      26.230   5.126  49.394  1.00  0.00    -0.152 NA
HETATM   10  N6  UNL     1      25.470   5.643  50.486  1.00  0.00    -0.212 N 
HETATM   11  H26 UNL     1      25.491   6.641  50.887  1.00  0.00     0.211 HD
ENDROOT
BRANCH   6  12
HETATM   12  N3  UNL     1      25.887   1.463  51.836  1.00  0.00    -0.339 N 
HETATM   13  H17 UNL     1      25.065   0.834  51.772  1.00  0.00     0.167 HD
BRANCH  12  14
HETATM   14  C12 UNL     1      27.056   1.111  52.604  1.00  0.00     0.039 A 
HETATM   15  C13 UNL     1      27.755   2.176  53.103  1.00  0.00     0.030 A 
HETATM   16  C14 UNL     1      28.869   2.126  53.900  1.00  0.00     0.002 A 
HETATM   17  C15 UNL     1      29.318   0.837  54.225  1.00  0.00     0.001 A 
HETATM   18  C16 UNL     1      28.623  -0.268  53.727  1.00  0.00     0.009 A 
HETATM   19  C17 UNL     1      27.502  -0.147  52.924  1.00  0.00    -0.035 A 
HETATM   20  C18 UNL     1      26.756  -1.304  52.365  1.00  0.00     0.050 C 
ENDBRANCH  12  14
ENDBRANCH   6  12
BRANCH   1  21
HETATM   21  C6  UNL     1      23.158   1.760  52.755  1.00  0.00     0.310 C 
BRANCH  21  22
HETATM   22  N1  UNL     1      22.635   0.686  51.975  1.00  0.00     0.087 NA
HETATM   23  H12 UNL     1      23.293   0.012  51.552  1.00  0.00     0.316 HD
BRANCH  22  24
HETATM   24  C5  UNL     1      21.733  -0.160  52.771  1.00  0.00     0.270 C 
BRANCH  24  25
HETATM   25  C4  UNL     1      20.606   0.659  53.346  1.00  0.00     0.030 C 
BRANCH  25  26
HETATM   26  C3  UNL     1      19.641   0.945  52.203  1.00  0.00     0.001 C 
BRANCH  26  27
HETATM   27  C2  UNL     1      18.648  -0.189  52.038  1.00  0.00    -0.005 C 
HETATM   28  C1  UNL     1      17.901   0.039  50.741  1.00  0.00     0.005 C 
ENDBRANCH  26  27
ENDBRANCH  25  26
ENDBRANCH  24  25
ENDBRANCH  22  24
ENDBRANCH  21  22
ENDBRANCH   1  21
TORSDOF 8
ENDMDL
MODEL 9
REMARK VINA RESULT:      -7.5      3.129      7.431
REMARK  8 active torsions:
REMARK  status: ('A' for Active; 'I' for Inactive)
REMARK    1  A    between atoms: C2_2  and  C3_3 
REMARK    2  A    between atoms: C3_3  and  C4_4 
REMARK    3  A    between atoms: C4_4  and  C5_5 
REMARK    4  A    between atoms: C5_5  and  N1_6 
REMARK    5  A    between atoms: N1_6  and  C6_7 
REMARK    6  A    between atoms: C6_7  and  C7_8 
REMARK    7  A    between atoms: C11_13  and  N3_14 
REMARK    8  A    between atoms: N3_14  and  C12_15 
ROOT
HETATM    1  C7  UNL     1      26.285   4.670  49.487  1.00  0.00     0.004 A 
HETATM    2  C8  UNL     1      27.094   5.450  48.630  1.00  0.00     0.030 A 
HETATM    3  C9  UNL     1      26.401   6.626  48.292  1.00  0.00     0.119 A 
HETATM    4  N2  UNL     1      25.193   6.627  48.895  1.00  0.00    -0.247 N 
HETATM    5  C10 UNL     1      25.188   5.467  49.573  1.00  0.00     0.111 A 
HETATM    6  C11 UNL     1      24.090   5.038  50.454  1.00  0.00     0.159 C 
HETATM    7  N4  UNL     1      23.156   5.752  51.008  1.00  0.00    -0.220 NA
HETATM    8  C19 UNL     1      22.988   7.178  50.872  1.00  0.00     0.259 C 
HETATM    9  N5  UNL     1      23.427   7.980  49.964  1.00  0.00    -0.152 NA
HETATM   10  N6  UNL     1      24.218   7.629  48.829  1.00  0.00    -0.212 N 
HETATM   11  H26 UNL     1      24.184   8.063  47.845  1.00  0.00     0.211 HD
ENDROOT
BRANCH   6  12
HETATM   12  N3  UNL     1      23.987   3.676  50.775  1.00  0.00    -0.339 N 
HETATM   13  H17 UNL     1      24.663   3.381  51.503  1.00  0.00     0.167 HD
BRANCH  12  14
HETATM   14  C12 UNL     1      23.066   2.745  50.171  1.00  0.00     0.039 A 
HETATM   15  C13 UNL     1      22.983   2.825  48.808  1.00  0.00     0.030 A 
HETATM   16  C14 UNL     1      22.227   2.034  47.983  1.00  0.00     0.002 A 
HETATM   17  C15 UNL     1      21.469   1.044  48.629  1.00  0.00     0.001 A 
HETATM   18  C16 UNL     1      21.536   0.941  50.020  1.00  0.00     0.009 A 
HETATM   19  C17 UNL     1      22.322   1.776  50.796  1.00  0.00    -0.035 A 
HETATM   20  C18 UNL     1      22.396   1.702  52.278  1.00  0.00     0.050 C 
ENDBRANCH  12  14
ENDBRANCH   6  12
BRANCH   1  21
HETATM   21  C6  UNL     1      26.743   3.391  49.938  1.00  0.00     0.310 C 
BRANCH  21  22
HETATM   22  N1  UNL     1      27.151   3.166  51.286  1.00  0.00     0.087 NA
HETATM   23  H12 UNL     1      26.763   3.768  52.030  1.00  0.00     0.316 HD
BRANCH  22  24
HETATM   24  C5  UNL     1      26.807   1.805  51.726  1.00  0.00     0.270 C 
BRANCH  24  25
HETATM   25  C4  UNL     1      27.046   1.649  53.206  1.00  0.00     0.030 C 
BRANCH  25  26
HETATM   26  C3  UNL     1      28.388   2.303  53.507  1.00  0.00     0.001 C 
BRANCH  26  27
HETATM   27  C2  UNL     1      29.222   1.426  54.420  1.00  0.00    -0.005 C 
HETATM   28  C1  UNL     1      29.531   0.146  53.673  1.00  0.00     0.005 C 
ENDBRANCH  26  27
ENDBRANCH  25  26
ENDBRANCH  24  25
ENDBRANCH  22  24
ENDBRANCH  21  22
ENDBRANCH   1  21
TORSDOF 8
ENDMDL
