MODEL 1
REMARK VINA RESULT:      -8.4      0.000      0.000
REMARK  8 active torsions:
REMARK  status: ('A' for Active; 'I' for Inactive)
REMARK    1  A    between atoms: C3_4  and  C4_5 
REMARK    2  A    between atoms: C5_6  and  N1_7 
REMARK    3  A    between atoms: N1_7  and  C6_8 
REMARK    4  A    between atoms: C10_15  and  N5_16 
REMARK       I    between atoms: N5_16  and  C11_17 
REMARK    5  A    between atoms: C11_17  and  C12_19 
REMARK    6  A    between atoms: C13_20  and  C14_21 
REMARK    7  A    between atoms: C14_21  and  C15_22 
REMARK    8  A    between atoms: C15_22  and  N6_23 
ROOT
HETATM    1  C6  UNL     1      24.259   2.364  52.628  1.00  0.00     0.141 A 
HETATM    2  N2  UNL     1      23.454   1.356  52.969  1.00  0.00    -0.224 NA
HETATM    3  C7  UNL     1      22.577   0.848  52.053  1.00  0.00     0.236 A 
HETATM    4  N3  UNL     1      22.524   1.360  50.812  1.00  0.00    -0.240 NA
HETATM    5  C8  UNL     1      23.312   2.369  50.425  1.00  0.00     0.089 A 
HETATM    6  C9  UNL     1      23.152   2.793  49.120  1.00  0.00     0.151 A 
HETATM    7  N4  UNL     1      23.972   3.826  48.744  1.00  0.00    -0.241 NA
HETATM    8  C10 UNL     1      24.850   4.347  49.631  1.00  0.00     0.131 A 
HETATM    9  C20 UNL     1      25.003   3.916  50.939  1.00  0.00     0.068 A 
HETATM   10  C21 UNL     1      24.192   2.877  51.350  1.00  0.00     0.044 A 
ENDROOT
BRANCH   8  11
HETATM   11  N5  UNL     1      25.672   5.409  49.086  1.00  0.00    -0.301 N 
HETATM   12  C11 UNL     1      26.918   4.761  48.967  1.00  0.00     0.302 C 
HETATM   13  O1  UNL     1      26.970   3.550  49.333  1.00  0.00    -0.258 OA
HETATM   14  H10 UNL     1      25.698   6.420  48.762  1.00  0.00     0.171 HD
BRANCH  12  15
HETATM   15  C12 UNL     1      28.183   5.292  48.473  1.00  0.00    -0.005 C 
HETATM   16  C13 UNL     1      29.215   5.712  48.054  1.00  0.00    -0.095 C 
BRANCH  16  17
HETATM   17  C14 UNL     1      30.496   6.222  47.561  1.00  0.00     0.114 C 
BRANCH  17  18
HETATM   18  C15 UNL     1      31.563   5.508  48.345  1.00  0.00     0.129 C 
BRANCH  18  19
HETATM   19  N6  UNL     1      32.650   5.015  47.588  1.00  0.00    -0.408 N 
HETATM   20  C16 UNL     1      32.858   3.597  47.677  1.00  0.00     0.143 C 
HETATM   21  C17 UNL     1      34.328   3.322  47.437  1.00  0.00     0.187 C 
HETATM   22  O2  UNL     1      35.031   3.972  48.436  1.00  0.00    -0.388 OA
HETATM   23  C18 UNL     1      35.030   5.331  48.165  1.00  0.00     0.187 C 
HETATM   24  C19 UNL     1      33.805   5.797  47.445  1.00  0.00     0.143 C 
ENDBRANCH  18  19
ENDBRANCH  17  18
ENDBRANCH  16  17
ENDBRANCH  12  15
ENDBRANCH   8  11
BRANCH   1  25
HETATM   25  N1  UNL     1      25.164   2.917  53.589  1.00  0.00    -0.350 N 
HETATM   26  H7  UNL     1      25.408   3.775  54.078  1.00  0.00     0.166 HD
BRANCH  25  27
HETATM   27  C5  UNL     1      26.057   1.861  54.011  1.00  0.00     0.090 C 
HETATM   28  C4  UNL     1      27.126   1.328  53.439  1.00  0.00     0.020 C 
BRANCH  28  29
HETATM   29  C3  UNL     1      28.229   0.397  53.420  1.00  0.00     0.038 C 
HETATM   30  C2  UNL     1      28.174  -0.886  53.108  1.00  0.00     0.090 C 
HETATM   31  C1  UNL     1      26.845  -1.438  52.735  1.00  0.00     0.082 C 
HETATM   32  F1  UNL     1      29.418  -1.404  53.211  1.00  0.00    -0.211 F 
ENDBRANCH  28  29
ENDBRANCH  25  27
ENDBRANCH   1  25
TORSDOF 8
ENDMDL
MODEL 2
REMARK VINA RESULT:      -8.3      0.935      1.364
REMARK  8 active torsions:
REMARK  status: ('A' for Active; 'I' for Inactive)
REMARK    1  A    between atoms: C3_4  and  C4_5 
REMARK    2  A    between atoms: C5_6  and  N1_7 
REMARK    3  A    between atoms: N1_7  and  C6_8 
REMARK    4  A    between atoms: C10_15  and  N5_16 
REMARK       I    between atoms: N5_16  and  C11_17 
REMARK    5  A    between atoms: C11_17  and  C12_19 
REMARK    6  A    between atoms: C13_20  and  C14_21 
REMARK    7  A    between atoms: C14_21  and  C15_22 
REMARK    8  A    between atoms: C15_22  and  N6_23 
ROOT
HETATM    1  C6  UNL     1      24.212   1.710  52.684  1.00  0.00     0.141 A 
HETATM    2  N2  UNL     1      23.372   0.704  52.934  1.00  0.00    -0.224 NA
HETATM    3  C7  UNL     1      22.389   0.400  52.036  1.00  0.00     0.236 A 
HETATM    4  N3  UNL     1      22.266   1.111  50.903  1.00  0.00    -0.240 NA
HETATM    5  C8  UNL     1      23.084   2.128  50.609  1.00  0.00     0.089 A 
HETATM    6  C9  UNL     1      22.844   2.769  49.409  1.00  0.00     0.151 A 
HETATM    7  N4  UNL     1      23.696   3.805  49.127  1.00  0.00    -0.241 NA
HETATM    8  C10 UNL     1      24.680   4.125  49.999  1.00  0.00     0.131 A 
HETATM    9  C20 UNL     1      24.913   3.477  51.201  1.00  0.00     0.068 A 
HETATM   10  C21 UNL     1      24.072   2.429  51.516  1.00  0.00     0.044 A 
ENDROOT
BRANCH   8  11
HETATM   11  N5  UNL     1      25.522   5.217  49.555  1.00  0.00    -0.301 N 
HETATM   12  C11 UNL     1      26.691   4.527  49.171  1.00  0.00     0.302 C 
HETATM   13  O1  UNL     1      26.682   3.269  49.307  1.00  0.00    -0.258 OA
HETATM   14  H10 UNL     1      25.597   6.267  49.414  1.00  0.00     0.171 HD
BRANCH  12  15
HETATM   15  C12 UNL     1      27.933   5.062  48.628  1.00  0.00    -0.005 C 
HETATM   16  C13 UNL     1      28.958   5.485  48.195  1.00  0.00    -0.095 C 
BRANCH  16  17
HETATM   17  C14 UNL     1      30.214   6.028  47.674  1.00  0.00     0.114 C 
BRANCH  17  18
HETATM   18  C15 UNL     1      31.239   5.834  48.759  1.00  0.00     0.129 C 
BRANCH  18  19
HETATM   19  N6  UNL     1      32.374   5.073  48.398  1.00  0.00    -0.408 N 
HETATM   20  C16 UNL     1      33.616   5.794  48.406  1.00  0.00     0.143 C 
HETATM   21  C17 UNL     1      34.546   5.140  47.406  1.00  0.00     0.187 C 
HETATM   22  O2  UNL     1      33.942   5.240  46.164  1.00  0.00    -0.388 OA
HETATM   23  C18 UNL     1      32.901   4.328  46.104  1.00  0.00     0.187 C 
HETATM   24  C19 UNL     1      32.254   4.070  47.427  1.00  0.00     0.143 C 
ENDBRANCH  18  19
ENDBRANCH  17  18
ENDBRANCH  16  17
ENDBRANCH  12  15
ENDBRANCH   8  11
BRANCH   1  25
HETATM   25  N1  UNL     1      25.230   2.049  53.631  1.00  0.00    -0.350 N 
HETATM   26  H7  UNL     1      25.627   2.823  54.158  1.00  0.00     0.166 HD
BRANCH  25  27
HETATM   27  C5  UNL     1      25.958   0.839  53.946  1.00  0.00     0.090 C 
HETATM   28  C4  UNL     1      26.737   0.062  53.210  1.00  0.00     0.020 C 
BRANCH  28  29
HETATM   29  C3  UNL     1      27.592  -1.089  53.040  1.00  0.00     0.038 C 
HETATM   30  C2  UNL     1      28.886  -1.157  53.296  1.00  0.00     0.090 C 
HETATM   31  C1  UNL     1      29.541   0.073  53.817  1.00  0.00     0.082 C 
HETATM   32  F1  UNL     1      29.314  -2.405  53.006  1.00  0.00    -0.211 F 
ENDBRANCH  28  29
ENDBRANCH  25  27
ENDBRANCH   1  25
TORSDOF 8
ENDMDL
MODEL 3
REMARK VINA RESULT:      -8.0      1.630      2.145
REMARK  8 active torsions:
REMARK  status: ('A' for Active; 'I' for Inactive)
REMARK    1  A    between atoms: C3_4  and  C4_5 
REMARK    2  A    between atoms: C5_6  and  N1_7 
REMARK    3  A    between atoms: N1_7  and  C6_8 
REMARK    4  A    between atoms: C10_15  and  N5_16 
REMARK       I    between atoms: N5_16  and  C11_17 
REMARK    5  A    between atoms: C11_17  and  C12_19 
REMARK    6  A    between atoms: C13_20  and  C14_21 
REMARK    7  A    between atoms: C14_21  and  C15_22 
REMARK    8  A    between atoms: C15_22  and  N6_23 
ROOT
HETATM    1  C6  UNL     1      23.364   1.096  52.416  1.00  0.00     0.141 A 
HETATM    2  N2  UNL     1      22.403   0.171  52.451  1.00  0.00    -0.224 NA
HETATM    3  C7  UNL     1      21.370   0.231  51.559  1.00  0.00     0.236 A 
HETATM    4  N3  UNL     1      21.320   1.217  50.648  1.00  0.00    -0.240 NA
HETATM    5  C8  UNL     1      22.261   2.165  50.575  1.00  0.00     0.089 A 
HETATM    6  C9  UNL     1      22.084   3.116  49.588  1.00  0.00     0.151 A 
HETATM    7  N4  UNL     1      23.062   4.076  49.530  1.00  0.00    -0.241 NA
HETATM    8  C10 UNL     1      24.096   4.038  50.400  1.00  0.00     0.131 A 
HETATM    9  C20 UNL     1      24.265   3.081  51.388  1.00  0.00     0.068 A 
HETATM   10  C21 UNL     1      23.298   2.101  51.475  1.00  0.00     0.044 A 
ENDROOT
BRANCH   8  11
HETATM   11  N5  UNL     1      25.068   5.094  50.200  1.00  0.00    -0.301 N 
HETATM   12  C11 UNL     1      26.041   4.431  49.424  1.00  0.00     0.302 C 
HETATM   13  O1  UNL     1      25.819   3.218  49.145  1.00  0.00    -0.258 OA
HETATM   14  H10 UNL     1      25.316   6.109  50.397  1.00  0.00     0.171 HD
BRANCH  12  15
HETATM   15  C12 UNL     1      27.291   4.952  48.884  1.00  0.00    -0.005 C 
HETATM   16  C13 UNL     1      28.311   5.363  48.429  1.00  0.00    -0.095 C 
BRANCH  16  17
HETATM   17  C14 UNL     1      29.578   5.862  47.890  1.00  0.00     0.114 C 
BRANCH  17  18
HETATM   18  C15 UNL     1      29.823   7.192  48.550  1.00  0.00     0.129 C 
BRANCH  18  19
HETATM   19  N6  UNL     1      31.145   7.419  48.994  1.00  0.00    -0.408 N 
HETATM   20  C16 UNL     1      31.927   8.283  48.156  1.00  0.00     0.143 C 
HETATM   21  C17 UNL     1      33.384   7.905  48.321  1.00  0.00     0.187 C 
HETATM   22  O2  UNL     1      33.513   6.590  47.906  1.00  0.00    -0.388 OA
HETATM   23  C18 UNL     1      32.974   5.765  48.881  1.00  0.00     0.187 C 
HETATM   24  C19 UNL     1      31.845   6.389  49.637  1.00  0.00     0.143 C 
ENDBRANCH  18  19
ENDBRANCH  17  18
ENDBRANCH  16  17
ENDBRANCH  12  15
ENDBRANCH   8  11
BRANCH   1  25
HETATM   25  N1  UNL     1      24.437   1.052  53.363  1.00  0.00    -0.350 N 
HETATM   26  H7  UNL     1      24.893   1.582  54.101  1.00  0.00     0.166 HD
BRANCH  25  27
HETATM   27  C5  UNL     1      25.118  -0.213  53.198  1.00  0.00     0.090 C 
HETATM   28  C4  UNL     1      26.400  -0.513  53.051  1.00  0.00     0.020 C 
BRANCH  28  29
HETATM   29  C3  UNL     1      27.474  -1.462  52.878  1.00  0.00     0.038 C 
HETATM   30  C2  UNL     1      28.717  -1.334  53.305  1.00  0.00     0.090 C 
HETATM   31  C1  UNL     1      29.057  -0.089  54.043  1.00  0.00     0.082 C 
HETATM   32  F1  UNL     1      29.409  -2.437  52.943  1.00  0.00    -0.211 F 
ENDBRANCH  28  29
ENDBRANCH  25  27
ENDBRANCH   1  25
TORSDOF 8
ENDMDL
MODEL 4
REMARK VINA RESULT:      -7.7      2.298      2.982
REMARK  8 active torsions:
REMARK  status: ('A' for Active; 'I' for Inactive)
REMARK    1  A    between atoms: C3_4  and  C4_5 
REMARK    2  A    between atoms: C5_6  and  N1_7 
REMARK    3  A    between atoms: N1_7  and  C6_8 
REMARK    4  A    between atoms: C10_15  and  N5_16 
REMARK       I    between atoms: N5_16  and  C11_17 
REMARK    5  A    between atoms: C11_17  and  C12_19 
REMARK    6  A    between atoms: C13_20  and  C14_21 
REMARK    7  A    between atoms: C14_21  and  C15_22 
REMARK    8  A    between atoms: C15_22  and  N6_23 
ROOT
HETATM    1  C6  UNL     1      24.160   2.403  52.551  1.00  0.00     0.141 A 
HETATM    2  N2  UNL     1      23.344   1.395  52.861  1.00  0.00    -0.224 NA
HETATM    3  C7  UNL     1      22.504   0.885  51.913  1.00  0.00     0.236 A 
HETATM    4  N3  UNL     1      22.499   1.394  50.670  1.00  0.00    -0.240 NA
HETATM    5  C8  UNL     1      23.300   2.404  50.313  1.00  0.00     0.089 A 
HETATM    6  C9  UNL     1      23.191   2.827  49.002  1.00  0.00     0.151 A 
HETATM    7  N4  UNL     1      24.024   3.860  48.657  1.00  0.00    -0.241 NA
HETATM    8  C10 UNL     1      24.866   4.383  49.577  1.00  0.00     0.131 A 
HETATM    9  C20 UNL     1      24.968   3.953  50.891  1.00  0.00     0.068 A 
HETATM   10  C21 UNL     1      24.143   2.915  51.271  1.00  0.00     0.044 A 
ENDROOT
BRANCH   8  11
HETATM   11  N5  UNL     1      25.707   5.444  49.063  1.00  0.00    -0.301 N 
HETATM   12  C11 UNL     1      26.946   4.781  48.940  1.00  0.00     0.302 C 
HETATM   13  O1  UNL     1      26.977   3.563  49.278  1.00  0.00    -0.258 OA
HETATM   14  H10 UNL     1      25.751   6.463  48.763  1.00  0.00     0.171 HD
BRANCH  12  15
HETATM   15  C12 UNL     1      28.221   5.305  48.468  1.00  0.00    -0.005 C 
HETATM   16  C13 UNL     1      29.267   5.740  48.100  1.00  0.00    -0.095 C 
BRANCH  16  17
HETATM   17  C14 UNL     1      30.541   6.291  47.633  1.00  0.00     0.114 C 
BRANCH  17  18
HETATM   18  C15 UNL     1      30.703   7.620  48.321  1.00  0.00     0.129 C 
BRANCH  18  19
HETATM   19  N6  UNL     1      31.011   8.710  47.477  1.00  0.00    -0.408 N 
HETATM   20  C16 UNL     1      32.331   9.251  47.641  1.00  0.00     0.143 C 
HETATM   21  C17 UNL     1      32.293  10.712  47.247  1.00  0.00     0.187 C 
HETATM   22  O2  UNL     1      31.409  11.341  48.107  1.00  0.00    -0.388 OA
HETATM   23  C18 UNL     1      30.117  10.996  47.742  1.00  0.00     0.187 C 
HETATM   24  C19 UNL     1      30.009   9.631  47.142  1.00  0.00     0.143 C 
ENDBRANCH  18  19
ENDBRANCH  17  18
ENDBRANCH  16  17
ENDBRANCH  12  15
ENDBRANCH   8  11
BRANCH   1  25
HETATM   25  N1  UNL     1      25.027   2.959  53.547  1.00  0.00    -0.350 N 
HETATM   26  H7  UNL     1      25.229   3.808  54.066  1.00  0.00     0.166 HD
BRANCH  25  27
HETATM   27  C5  UNL     1      25.951   1.923  53.952  1.00  0.00     0.090 C 
HETATM   28  C4  UNL     1      27.133   1.560  53.477  1.00  0.00     0.020 C 
BRANCH  28  29
HETATM   29  C3  UNL     1      28.313   0.728  53.496  1.00  0.00     0.038 C 
HETATM   30  C2  UNL     1      28.374  -0.562  53.216  1.00  0.00     0.090 C 
HETATM   31  C1  UNL     1      27.104  -1.235  52.837  1.00  0.00     0.082 C 
HETATM   32  F1  UNL     1      29.656  -0.968  53.350  1.00  0.00    -0.211 F 
ENDBRANCH  28  29
ENDBRANCH  25  27
ENDBRANCH   1  25
TORSDOF 8
ENDMDL
MODEL 5
REMARK VINA RESULT:      -7.7      2.921      3.683
REMARK  8 active torsions:
REMARK  status: ('A' for Active; 'I' for Inactive)
REMARK    1  A    between atoms: C3_4  and  C4_5 
REMARK    2  A    between atoms: C5_6  and  N1_7 
REMARK    3  A    between atoms: N1_7  and  C6_8 
REMARK    4  A    between atoms: C10_15  and  N5_16 
REMARK       I    between atoms: N5_16  and  C11_17 
REMARK    5  A    between atoms: C11_17  and  C12_19 
REMARK    6  A    between atoms: C13_20  and  C14_21 
REMARK    7  A    between atoms: C14_21  and  C15_22 
REMARK    8  A    between atoms: C15_22  and  N6_23 
ROOT
HETATM    1  C6  UNL     1      22.903   3.466  51.382  1.00  0.00     0.141 A 
HETATM    2  N2  UNL     1      21.617   3.142  51.526  1.00  0.00    -0.224 NA
HETATM    3  C7  UNL     1      20.655   4.103  51.392  1.00  0.00     0.236 A 
HETATM    4  N3  UNL     1      21.001   5.371  51.114  1.00  0.00    -0.240 NA
HETATM    5  C8  UNL     1      22.277   5.742  50.960  1.00  0.00     0.089 A 
HETATM    6  C9  UNL     1      22.487   7.077  50.674  1.00  0.00     0.151 A 
HETATM    7  N4  UNL     1      23.801   7.435  50.516  1.00  0.00    -0.241 NA
HETATM    8  C10 UNL     1      24.773   6.502  50.643  1.00  0.00     0.131 A 
HETATM    9  C20 UNL     1      24.553   5.165  50.930  1.00  0.00     0.068 A 
HETATM   10  C21 UNL     1      23.241   4.772  51.096  1.00  0.00     0.044 A 
ENDROOT
BRANCH   8  11
HETATM   11  N5  UNL     1      26.109   7.016  50.418  1.00  0.00    -0.301 N 
HETATM   12  C11 UNL     1      26.280   6.751  49.044  1.00  0.00     0.302 C 
HETATM   13  O1  UNL     1      25.315   6.193  48.445  1.00  0.00    -0.258 OA
HETATM   14  H10 UNL     1      26.955   7.484  50.858  1.00  0.00     0.171 HD
BRANCH  12  15
HETATM   15  C12 UNL     1      27.430   7.033  48.194  1.00  0.00    -0.005 C 
HETATM   16  C13 UNL     1      28.378   7.272  47.515  1.00  0.00    -0.095 C 
BRANCH  16  17
HETATM   17  C14 UNL     1      29.530   7.582  46.665  1.00  0.00     0.114 C 
BRANCH  17  18
HETATM   18  C15 UNL     1      30.539   8.257  47.553  1.00  0.00     0.129 C 
BRANCH  18  19
HETATM   19  N6  UNL     1      31.675   7.484  47.885  1.00  0.00    -0.408 N 
HETATM   20  C16 UNL     1      31.921   6.365  47.020  1.00  0.00     0.143 C 
HETATM   21  C17 UNL     1      32.654   5.307  47.818  1.00  0.00     0.187 C 
HETATM   22  O2  UNL     1      31.821   4.933  48.859  1.00  0.00    -0.388 OA
HETATM   23  C18 UNL     1      31.820   5.944  49.808  1.00  0.00     0.187 C 
HETATM   24  C19 UNL     1      32.023   7.307  49.231  1.00  0.00     0.143 C 
ENDBRANCH  18  19
ENDBRANCH  17  18
ENDBRANCH  16  17
ENDBRANCH  12  15
ENDBRANCH   8  11
BRANCH   1  25
HETATM   25  N1  UNL     1      23.918   2.469  51.544  1.00  0.00    -0.350 N 
HETATM   26  H7  UNL     1      24.923   2.319  51.515  1.00  0.00     0.166 HD
BRANCH  25  27
HETATM   27  C5  UNL     1      23.260   1.221  51.862  1.00  0.00     0.090 C 
HETATM   28  C4  UNL     1      23.367   0.407  52.902  1.00  0.00     0.020 C 
BRANCH  28  29
HETATM   29  C3  UNL     1      23.002  -0.787  53.627  1.00  0.00     0.038 C 
HETATM   30  C2  UNL     1      21.931  -0.957  54.380  1.00  0.00     0.090 C 
HETATM   31  C1  UNL     1      20.995   0.193  54.500  1.00  0.00     0.082 C 
HETATM   32  F1  UNL     1      21.956  -2.212  54.881  1.00  0.00    -0.211 F 
ENDBRANCH  28  29
ENDBRANCH  25  27
ENDBRANCH   1  25
TORSDOF 8
ENDMDL
MODEL 6
REMARK VINA RESULT:      -7.7      3.292      4.173
REMARK  8 active torsions:
REMARK  status: ('A' for Active; 'I' for Inactive)
REMARK    1  A    between atoms: C3_4  and  C4_5 
REMARK    2  A    between atoms: C5_6  and  N1_7 
REMARK    3  A    between atoms: N1_7  and  C6_8 
REMARK    4  A    between atoms: C10_15  and  N5_16 
REMARK       I    between atoms: N5_16  and  C11_17 
REMARK    5  A    between atoms: C11_17  and  C12_19 
REMARK    6  A    between atoms: C13_20  and  C14_21 
REMARK    7  A    between atoms: C14_21  and  C15_22 
REMARK    8  A    between atoms: C15_22  and  N6_23 
ROOT
HETATM    1  C6  UNL     1      23.619   1.405  52.797  1.00  0.00     0.141 A 
HETATM    2  N2  UNL     1      22.678   0.470  52.933  1.00  0.00    -0.224 NA
HETATM    3  C7  UNL     1      21.480   0.614  52.293  1.00  0.00     0.236 A 
HETATM    4  N3  UNL     1      21.248   1.692  51.526  1.00  0.00    -0.240 NA
HETATM    5  C8  UNL     1      22.162   2.655  51.360  1.00  0.00     0.089 A 
HETATM    6  C9  UNL     1      21.790   3.705  50.543  1.00  0.00     0.151 A 
HETATM    7  N4  UNL     1      22.743   4.678  50.383  1.00  0.00    -0.241 NA
HETATM    8  C10 UNL     1      23.939   4.559  51.005  1.00  0.00     0.131 A 
HETATM    9  C20 UNL     1      24.303   3.502  51.824  1.00  0.00     0.068 A 
HETATM   10  C21 UNL     1      23.365   2.506  52.007  1.00  0.00     0.044 A 
ENDROOT
BRANCH   8  11
HETATM   11  N5  UNL     1      24.856   5.643  50.720  1.00  0.00    -0.301 N 
HETATM   12  C11 UNL     1      25.629   5.085  49.680  1.00  0.00     0.302 C 
HETATM   13  O1  UNL     1      25.335   3.909  49.319  1.00  0.00    -0.258 OA
HETATM   14  H10 UNL     1      25.155   6.631  50.973  1.00  0.00     0.171 HD
BRANCH  12  15
HETATM   15  C12 UNL     1      26.738   5.679  48.943  1.00  0.00    -0.005 C 
HETATM   16  C13 UNL     1      27.649   6.174  48.358  1.00  0.00    -0.095 C 
BRANCH  16  17
HETATM   17  C14 UNL     1      28.753   6.795  47.624  1.00  0.00     0.114 C 
BRANCH  17  18
HETATM   18  C15 UNL     1      29.213   7.959  48.459  1.00  0.00     0.129 C 
BRANCH  18  19
HETATM   19  N6  UNL     1      28.870   9.238  47.965  1.00  0.00    -0.408 N 
HETATM   20  C16 UNL     1      29.681  10.316  48.456  1.00  0.00     0.143 C 
HETATM   21  C17 UNL     1      28.848  11.581  48.431  1.00  0.00     0.187 C 
HETATM   22  O2  UNL     1      27.768  11.372  49.274  1.00  0.00    -0.388 OA
HETATM   23  C18 UNL     1      26.873  10.523  48.642  1.00  0.00     0.187 C 
HETATM   24  C19 UNL     1      27.525   9.546  47.717  1.00  0.00     0.143 C 
ENDBRANCH  18  19
ENDBRANCH  17  18
ENDBRANCH  16  17
ENDBRANCH  12  15
ENDBRANCH   8  11
BRANCH   1  25
HETATM   25  N1  UNL     1      24.868   1.273  53.484  1.00  0.00    -0.350 N 
HETATM   26  H7  UNL     1      25.499   1.747  54.125  1.00  0.00     0.166 HD
BRANCH  25  27
HETATM   27  C5  UNL     1      25.435  -0.008  53.122  1.00  0.00     0.090 C 
HETATM   28  C4  UNL     1      26.667  -0.485  53.214  1.00  0.00     0.020 C 
BRANCH  28  29
HETATM   29  C3  UNL     1      27.642  -1.535  53.037  1.00  0.00     0.038 C 
HETATM   30  C2  UNL     1      28.938  -1.458  53.282  1.00  0.00     0.090 C 
HETATM   31  C1  UNL     1      29.457  -0.163  53.797  1.00  0.00     0.082 C 
HETATM   32  F1  UNL     1      29.500  -2.652  52.988  1.00  0.00    -0.211 F 
ENDBRANCH  28  29
ENDBRANCH  25  27
ENDBRANCH   1  25
TORSDOF 8
ENDMDL
MODEL 7
REMARK VINA RESULT:      -7.6      3.025      3.815
REMARK  8 active torsions:
REMARK  status: ('A' for Active; 'I' for Inactive)
REMARK    1  A    between atoms: C3_4  and  C4_5 
REMARK    2  A    between atoms: C5_6  and  N1_7 
REMARK    3  A    between atoms: N1_7  and  C6_8 
REMARK    4  A    between atoms: C10_15  and  N5_16 
REMARK       I    between atoms: N5_16  and  C11_17 
REMARK    5  A    between atoms: C11_17  and  C12_19 
REMARK    6  A    between atoms: C13_20  and  C14_21 
REMARK    7  A    between atoms: C14_21  and  C15_22 
REMARK    8  A    between atoms: C15_22  and  N6_23 
ROOT
HETATM    1  C6  UNL     1      24.087   1.693  51.903  1.00  0.00     0.141 A 
HETATM    2  N2  UNL     1      23.341   0.594  51.784  1.00  0.00    -0.224 NA
HETATM    3  C7  UNL     1      21.982   0.701  51.702  1.00  0.00     0.236 A 
HETATM    4  N3  UNL     1      21.396   1.910  51.740  1.00  0.00    -0.240 NA
HETATM    5  C8  UNL     1      22.103   3.039  51.858  1.00  0.00     0.089 A 
HETATM    6  C9  UNL     1      21.371   4.210  51.882  1.00  0.00     0.151 A 
HETATM    7  N4  UNL     1      22.116   5.355  51.999  1.00  0.00    -0.241 NA
HETATM    8  C10 UNL     1      23.464   5.276  52.081  1.00  0.00     0.131 A 
HETATM    9  C20 UNL     1      24.191   4.096  52.057  1.00  0.00     0.068 A 
HETATM   10  C21 UNL     1      23.470   2.925  51.941  1.00  0.00     0.044 A 
ENDROOT
BRANCH   8  11
HETATM   11  N5  UNL     1      24.121   6.565  52.169  1.00  0.00    -0.301 N 
HETATM   12  C11 UNL     1      24.519   6.764  50.831  1.00  0.00     0.302 C 
HETATM   13  O1  UNL     1      24.223   5.853  50.005  1.00  0.00    -0.258 OA
HETATM   14  H10 UNL     1      24.401   7.366  52.807  1.00  0.00     0.171 HD
BRANCH  12  15
HETATM   15  C12 UNL     1      25.237   7.891  50.247  1.00  0.00    -0.005 C 
HETATM   16  C13 UNL     1      25.806   8.817  49.762  1.00  0.00    -0.095 C 
BRANCH  16  17
HETATM   17  C14 UNL     1      26.522   9.939  49.152  1.00  0.00     0.114 C 
BRANCH  17  18
HETATM   18  C15 UNL     1      27.511   9.337  48.191  1.00  0.00     0.129 C 
BRANCH  18  19
HETATM   19  N6  UNL     1      28.574   8.616  48.781  1.00  0.00    -0.408 N 
HETATM   20  C16 UNL     1      29.642   9.423  49.298  1.00  0.00     0.143 C 
HETATM   21  C17 UNL     1      30.916   8.606  49.249  1.00  0.00     0.187 C 
HETATM   22  O2  UNL     1      31.150   8.298  47.920  1.00  0.00    -0.388 OA
HETATM   23  C18 UNL     1      30.257   7.312  47.531  1.00  0.00     0.187 C 
HETATM   24  C19 UNL     1      28.947   7.374  48.248  1.00  0.00     0.143 C 
ENDBRANCH  18  19
ENDBRANCH  17  18
ENDBRANCH  16  17
ENDBRANCH  12  15
ENDBRANCH   8  11
BRANCH   1  25
HETATM   25  N1  UNL     1      25.511   1.586  52.013  1.00  0.00    -0.350 N 
HETATM   26  H7  UNL     1      26.380   2.080  51.830  1.00  0.00     0.166 HD
BRANCH  25  27
HETATM   27  C5  UNL     1      25.811   0.297  52.596  1.00  0.00     0.090 C 
HETATM   28  C4  UNL     1      26.859  -0.503  52.475  1.00  0.00     0.020 C 
BRANCH  28  29
HETATM   29  C3  UNL     1      27.578  -1.716  52.786  1.00  0.00     0.038 C 
HETATM   30  C2  UNL     1      28.801  -1.806  53.275  1.00  0.00     0.090 C 
HETATM   31  C1  UNL     1      29.523  -0.533  53.540  1.00  0.00     0.082 C 
HETATM   32  F1  UNL     1      29.107  -3.114  53.425  1.00  0.00    -0.211 F 
ENDBRANCH  28  29
ENDBRANCH  25  27
ENDBRANCH   1  25
TORSDOF 8
ENDMDL
MODEL 8
REMARK VINA RESULT:      -7.5      5.765     11.205
REMARK  8 active torsions:
REMARK  status: ('A' for Active; 'I' for Inactive)
REMARK    1  A    between atoms: C3_4  and  C4_5 
REMARK    2  A    between atoms: C5_6  and  N1_7 
REMARK    3  A    between atoms: N1_7  and  C6_8 
REMARK    4  A    between atoms: C10_15  and  N5_16 
REMARK       I    between atoms: N5_16  and  C11_17 
REMARK    5  A    between atoms: C11_17  and  C12_19 
REMARK    6  A    between atoms: C13_20  and  C14_21 
REMARK    7  A    between atoms: C14_21  and  C15_22 
REMARK    8  A    between atoms: C15_22  and  N6_23 
ROOT
HETATM    1  C6  UNL     1      25.257   2.569  52.177  1.00  0.00     0.141 A 
HETATM    2  N2  UNL     1      26.572   2.416  52.009  1.00  0.00    -0.224 NA
HETATM    3  C7  UNL     1      27.177   1.258  52.408  1.00  0.00     0.236 A 
HETATM    4  N3  UNL     1      26.453   0.275  52.968  1.00  0.00    -0.240 NA
HETATM    5  C8  UNL     1      25.133   0.384  53.156  1.00  0.00     0.089 A 
HETATM    6  C9  UNL     1      24.515  -0.705  53.741  1.00  0.00     0.151 A 
HETATM    7  N4  UNL     1      23.162  -0.573  53.920  1.00  0.00    -0.241 NA
HETATM    8  C10 UNL     1      22.538   0.562  53.532  1.00  0.00     0.131 A 
HETATM    9  C20 UNL     1      23.166   1.650  52.947  1.00  0.00     0.068 A 
HETATM   10  C21 UNL     1      24.529   1.550  52.753  1.00  0.00     0.044 A 
ENDROOT
BRANCH   8  11
HETATM   11  N5  UNL     1      21.106   0.547  53.754  1.00  0.00    -0.301 N 
HETATM   12  C11 UNL     1      20.636   0.121  52.494  1.00  0.00     0.302 C 
HETATM   13  O1  UNL     1      21.508  -0.109  51.607  1.00  0.00    -0.258 OA
HETATM   14  H10 UNL     1      20.323   0.721  54.451  1.00  0.00     0.171 HD
BRANCH  12  15
HETATM   15  C12 UNL     1      19.263  -0.101  52.057  1.00  0.00    -0.005 C 
HETATM   16  C13 UNL     1      18.148  -0.290  51.684  1.00  0.00    -0.095 C 
BRANCH  16  17
HETATM   17  C14 UNL     1      16.774  -0.499  51.223  1.00  0.00     0.114 C 
BRANCH  17  18
HETATM   18  C15 UNL     1      16.285   0.839  50.738  1.00  0.00     0.129 C 
BRANCH  18  19
HETATM   19  N6  UNL     1      16.138   1.833  51.732  1.00  0.00    -0.408 N 
HETATM   20  C16 UNL     1      14.894   1.796  52.448  1.00  0.00     0.143 C 
HETATM   21  C17 UNL     1      14.585   3.200  52.926  1.00  0.00     0.187 C 
HETATM   22  O2  UNL     1      14.465   3.995  51.798  1.00  0.00    -0.388 OA
HETATM   23  C18 UNL     1      15.731   4.227  51.285  1.00  0.00     0.187 C 
HETATM   24  C19 UNL     1      16.690   3.105  51.526  1.00  0.00     0.143 C 
ENDBRANCH  18  19
ENDBRANCH  17  18
ENDBRANCH  16  17
ENDBRANCH  12  15
ENDBRANCH   8  11
BRANCH   1  25
HETATM   25  N1  UNL     1      24.620   3.789  51.782  1.00  0.00    -0.350 N 
HETATM   26  H7  UNL     1      24.184   4.634  52.144  1.00  0.00     0.166 HD
BRANCH  25  27
HETATM   27  C5  UNL     1      24.584   3.818  50.337  1.00  0.00     0.090 C 
HETATM   28  C4  UNL     1      23.599   3.621  49.474  1.00  0.00     0.020 C 
BRANCH  28  29
HETATM   29  C3  UNL     1      23.080   3.545  48.129  1.00  0.00     0.038 C 
HETATM   30  C2  UNL     1      22.261   2.626  47.649  1.00  0.00     0.090 C 
HETATM   31  C1  UNL     1      21.818   1.557  48.582  1.00  0.00     0.082 C 
HETATM   32  F1  UNL     1      22.014   2.910  46.351  1.00  0.00    -0.211 F 
ENDBRANCH  28  29
ENDBRANCH  25  27
ENDBRANCH   1  25
TORSDOF 8
ENDMDL
MODEL 9
REMARK VINA RESULT:      -7.4      5.551     11.750
REMARK  8 active torsions:
REMARK  status: ('A' for Active; 'I' for Inactive)
REMARK    1  A    between atoms: C3_4  and  C4_5 
REMARK    2  A    between atoms: C5_6  and  N1_7 
REMARK    3  A    between atoms: N1_7  and  C6_8 
REMARK    4  A    between atoms: C10_15  and  N5_16 
REMARK       I    between atoms: N5_16  and  C11_17 
REMARK    5  A    between atoms: C11_17  and  C12_19 
REMARK    6  A    between atoms: C13_20  and  C14_21 
REMARK    7  A    between atoms: C14_21  and  C15_22 
REMARK    8  A    between atoms: C15_22  and  N6_23 
ROOT
HETATM    1  C6  UNL     1      25.440   1.697  51.798  1.00  0.00     0.141 A 
HETATM    2  N2  UNL     1      26.690   1.254  51.947  1.00  0.00    -0.224 NA
HETATM    3  C7  UNL     1      26.942   0.200  52.779  1.00  0.00     0.236 A 
HETATM    4  N3  UNL     1      25.937  -0.391  53.445  1.00  0.00    -0.240 NA
HETATM    5  C8  UNL     1      24.669   0.018  53.326  1.00  0.00     0.089 A 
HETATM    6  C9  UNL     1      23.736  -0.683  54.067  1.00  0.00     0.151 A 
HETATM    7  N4  UNL     1      22.443  -0.250  53.927  1.00  0.00    -0.241 NA
HETATM    8  C10 UNL     1      22.166   0.791  53.108  1.00  0.00     0.131 A 
HETATM    9  C20 UNL     1      23.108   1.489  52.369  1.00  0.00     0.068 A 
HETATM   10  C21 UNL     1      24.420   1.078  52.488  1.00  0.00     0.044 A 
ENDROOT
BRANCH   8  11
HETATM   11  N5  UNL     1      20.756   1.117  53.034  1.00  0.00    -0.301 N 
HETATM   12  C11 UNL     1      20.365   0.393  51.889  1.00  0.00     0.302 C 
HETATM   13  O1  UNL     1      21.263  -0.275  51.300  1.00  0.00    -0.258 OA
HETATM   14  H10 UNL     1      19.954   1.654  53.478  1.00  0.00     0.171 HD
BRANCH  12  15
HETATM   15  C12 UNL     1      19.047   0.299  51.271  1.00  0.00    -0.005 C 
HETATM   16  C13 UNL     1      17.974   0.203  50.766  1.00  0.00    -0.095 C 
BRANCH  16  17
HETATM   17  C14 UNL     1      16.662   0.098  50.124  1.00  0.00     0.114 C 
BRANCH  17  18
HETATM   18  C15 UNL     1      15.694  -0.296  51.207  1.00  0.00     0.129 C 
BRANCH  18  19
HETATM   19  N6  UNL     1      15.166   0.769  51.971  1.00  0.00    -0.408 N 
HETATM   20  C16 UNL     1      14.410   0.372  53.126  1.00  0.00     0.143 C 
HETATM   21  C17 UNL     1      13.394   1.456  53.418  1.00  0.00     0.187 C 
HETATM   22  O2  UNL     1      12.566   1.546  52.312  1.00  0.00    -0.388 OA
HETATM   23  C18 UNL     1      13.258   2.181  51.293  1.00  0.00     0.187 C 
HETATM   24  C19 UNL     1      14.732   1.935  51.326  1.00  0.00     0.143 C 
ENDBRANCH  18  19
ENDBRANCH  17  18
ENDBRANCH  16  17
ENDBRANCH  12  15
ENDBRANCH   8  11
BRANCH   1  25
HETATM   25  N1  UNL     1      25.172   2.815  50.946  1.00  0.00    -0.350 N 
HETATM   26  H7  UNL     1      24.421   3.377  50.552  1.00  0.00     0.166 HD
BRANCH  25  27
HETATM   27  C5  UNL     1      26.441   3.323  50.473  1.00  0.00     0.090 C 
HETATM   28  C4  UNL     1      26.757   4.072  49.429  1.00  0.00     0.020 C 
BRANCH  28  29
HETATM   29  C3  UNL     1      27.717   4.773  48.608  1.00  0.00     0.038 C 
HETATM   30  C2  UNL     1      27.705   6.058  48.303  1.00  0.00     0.090 C 
HETATM   31  C1  UNL     1      26.596   6.878  48.857  1.00  0.00     0.082 C 
HETATM   32  F1  UNL     1      28.773   6.320  47.517  1.00  0.00    -0.211 F 
ENDBRANCH  28  29
ENDBRANCH  25  27
ENDBRANCH   1  25
TORSDOF 8
ENDMDL
