MODEL 1
REMARK VINA RESULT:      -8.6      0.000      0.000
REMARK  7 active torsions:
REMARK  status: ('A' for Active; 'I' for Inactive)
REMARK    1  A    between atoms: O1_1  and  C1_2 
REMARK    2  A    between atoms: C3_5  and  N1_6 
REMARK    3  A    between atoms: N1_6  and  C4_7 
REMARK    4  A    between atoms: C4_7  and  C5_8 
REMARK    5  A    between atoms: C4_7  and  C13_18 
REMARK    6  A    between atoms: C5_8  and  C6_9 
REMARK    7  A    between atoms: C8_12  and  C9_13 
ROOT
HETATM    1  C4  UNL     1      24.417   1.679  51.768  1.00  0.00     0.119 C 
ENDROOT
BRANCH   1   2
HETATM    2  N1  UNL     1      25.209   2.016  52.888  1.00  0.00    -0.360 N 
HETATM    3  H3  UNL     1      24.432   2.393  53.478  1.00  0.00     0.162 HD
BRANCH   2   4
HETATM    4  C3  UNL     1      26.546   1.883  53.312  1.00  0.00     0.169 A 
HETATM    5  S1  UNL     1      27.353   0.234  52.807  1.00  0.00    -0.060 SA
HETATM    6  C2  UNL     1      28.987   0.719  53.598  1.00  0.00     0.111 A 
HETATM    7  C1  UNL     1      28.655   2.001  54.088  1.00  0.00     0.171 A 
HETATM    8  N3  UNL     1      27.437   2.430  53.874  1.00  0.00    -0.200 NA
BRANCH   7   9
HETATM    9  O1  UNL     1      29.814   2.453  54.690  1.00  0.00    -0.344 OA
HETATM   10  H1  UNL     1      30.674   1.966  54.555  1.00  0.00     0.219 HD
ENDBRANCH   7   9
ENDBRANCH   2   4
ENDBRANCH   1   2
BRANCH   1  11
HETATM   11  C5  UNL     1      24.165   2.766  50.816  1.00  0.00     0.075 C 
BRANCH  11  12
HETATM   12  C6  UNL     1      25.503   3.187  50.147  1.00  0.00     0.207 A 
HETATM   13  N2  UNL     1      26.778   3.449  49.559  1.00  0.00    -0.006 N 
HETATM   14  C7  UNL     1      26.855   4.744  49.038  1.00  0.00     0.241 A 
HETATM   15  C8  UNL     1      26.803   3.508  49.528  1.00  0.00     0.287 A 
HETATM   16  C9  UNL     1      25.645   4.444  49.661  1.00  0.00     0.220 A 
HETATM   17  C12 UNL     1      26.799   6.037  48.572  1.00  0.00     0.053 A 
HETATM   18  C11 UNL     1      25.599   6.615  48.853  1.00  0.00     0.021 A 
HETATM   19 CL1  UNL     1      28.089   6.732  47.751  1.00  0.00    -0.086 Cl
HETATM   20  C10 UNL     1      24.930   5.623  49.510  1.00  0.00     0.019 A 
ENDBRANCH  11  12
ENDBRANCH   1  11
BRANCH   1  21
HETATM   21  C13 UNL     1      23.130   1.095  52.330  1.00  0.00    -0.035 C 
HETATM   22  C14 UNL     1      21.934   1.603  52.211  1.00  0.00     0.017 C 
HETATM   23  P1  UNL     1      20.359   0.935  52.857  1.00  0.00    -0.082 P 
HETATM   24  C15 UNL     1      20.679   0.210  54.508  1.00  0.00     0.008 C 
HETATM   25  H11 UNL     1      19.454   2.093  53.045  1.00  0.00     0.066 HD
HETATM   26  C16 UNL     1      21.788  -0.448  54.758  1.00  0.00     0.001 C 
HETATM   27  C17 UNL     1      22.969  -0.816  54.062  1.00  0.00     0.001 C 
HETATM   28  C18 UNL     1      23.506  -0.132  53.033  1.00  0.00     0.009 C 
ENDBRANCH   1  21
TORSDOF 7
ENDMDL
MODEL 2
REMARK VINA RESULT:      -8.5      3.651      5.361
REMARK  7 active torsions:
REMARK  status: ('A' for Active; 'I' for Inactive)
REMARK    1  A    between atoms: O1_1  and  C1_2 
REMARK    2  A    between atoms: C3_5  and  N1_6 
REMARK    3  A    between atoms: N1_6  and  C4_7 
REMARK    4  A    between atoms: C4_7  and  C5_8 
REMARK    5  A    between atoms: C4_7  and  C13_18 
REMARK    6  A    between atoms: C5_8  and  C6_9 
REMARK    7  A    between atoms: C8_12  and  C9_13 
ROOT
HETATM    1  C4  UNL     1      23.789   2.407  52.687  1.00  0.00     0.119 C 
ENDROOT
BRANCH   1   2
HETATM    2  N1  UNL     1      23.210   3.696  52.707  1.00  0.00    -0.360 N 
HETATM    3  H3  UNL     1      22.550   3.520  53.499  1.00  0.00     0.162 HD
BRANCH   2   4
HETATM    4  C3  UNL     1      23.383   4.938  52.067  1.00  0.00     0.169 A 
HETATM    5  S1  UNL     1      21.837   5.549  51.139  1.00  0.00    -0.060 SA
HETATM    6  C2  UNL     1      22.702   7.131  50.610  1.00  0.00     0.111 A 
HETATM    7  C1  UNL     1      23.966   6.934  51.207  1.00  0.00     0.171 A 
HETATM    8  N3  UNL     1      24.148   5.826  51.880  1.00  0.00    -0.200 NA
BRANCH   7   9
HETATM    9  O1  UNL     1      24.685   8.067  50.876  1.00  0.00    -0.344 OA
HETATM   10  H1  UNL     1      24.274   8.971  50.972  1.00  0.00     0.219 HD
ENDBRANCH   7   9
ENDBRANCH   2   4
ENDBRANCH   1   2
BRANCH   1  11
HETATM   11  C5  UNL     1      24.736   2.151  51.596  1.00  0.00     0.075 C 
BRANCH  11  12
HETATM   12  C6  UNL     1      26.175   2.051  52.175  1.00  0.00     0.207 A 
HETATM   13  N2  UNL     1      27.501   2.095  52.706  1.00  0.00    -0.006 N 
HETATM   14  C7  UNL     1      28.002   0.815  52.960  1.00  0.00     0.241 A 
HETATM   15  C8  UNL     1      27.544   2.042  52.725  1.00  0.00     0.287 A 
HETATM   16  C9  UNL     1      26.724   0.834  52.403  1.00  0.00     0.220 A 
HETATM   17  C12 UNL     1      28.374  -0.494  53.160  1.00  0.00     0.053 A 
HETATM   18  C11 UNL     1      27.396  -1.354  52.765  1.00  0.00     0.021 A 
HETATM   19 CL1  UNL     1      29.860  -0.892  53.834  1.00  0.00    -0.086 Cl
HETATM   20  C10 UNL     1      26.418  -0.516  52.314  1.00  0.00     0.019 A 
ENDBRANCH  11  12
ENDBRANCH   1  11
BRANCH   1  21
HETATM   21  C13 UNL     1      22.626   1.428  52.680  1.00  0.00    -0.035 C 
HETATM   22  C14 UNL     1      21.412   1.673  52.269  1.00  0.00     0.017 C 
HETATM   23  P1  UNL     1      19.984   0.530  52.231  1.00  0.00    -0.082 P 
HETATM   24  C15 UNL     1      20.044  -0.511  53.737  1.00  0.00     0.008 C 
HETATM   25  H11 UNL     1      18.767   1.370  52.317  1.00  0.00     0.066 HD
HETATM   26  C16 UNL     1      21.187  -0.950  54.215  1.00  0.00     0.001 C 
HETATM   27  C17 UNL     1      22.565  -0.855  53.890  1.00  0.00     0.001 C 
HETATM   28  C18 UNL     1      23.137   0.174  53.235  1.00  0.00     0.009 C 
ENDBRANCH   1  21
TORSDOF 7
ENDMDL
MODEL 3
REMARK VINA RESULT:      -8.3      3.963      6.661
REMARK  7 active torsions:
REMARK  status: ('A' for Active; 'I' for Inactive)
REMARK    1  A    between atoms: O1_1  and  C1_2 
REMARK    2  A    between atoms: C3_5  and  N1_6 
REMARK    3  A    between atoms: N1_6  and  C4_7 
REMARK    4  A    between atoms: C4_7  and  C5_8 
REMARK    5  A    between atoms: C4_7  and  C13_18 
REMARK    6  A    between atoms: C5_8  and  C6_9 
REMARK    7  A    between atoms: C8_12  and  C9_13 
ROOT
HETATM    1  C4  UNL     1      25.485   1.126  52.086  1.00  0.00     0.119 C 
ENDROOT
BRANCH   1   2
HETATM    2  N1  UNL     1      26.098   1.695  50.947  1.00  0.00    -0.360 N 
HETATM    3  H3  UNL     1      26.446   0.799  50.536  1.00  0.00     0.162 HD
BRANCH   2   4
HETATM    4  C3  UNL     1      26.220   2.959  50.337  1.00  0.00     0.169 A 
HETATM    5  S1  UNL     1      24.592   3.624  49.609  1.00  0.00    -0.060 SA
HETATM    6  C2  UNL     1      25.420   5.214  49.045  1.00  0.00     0.111 A 
HETATM    7  C1  UNL     1      26.739   4.979  49.492  1.00  0.00     0.171 A 
HETATM    8  N3  UNL     1      26.975   3.844  50.100  1.00  0.00    -0.200 NA
BRANCH   7   9
HETATM    9  O1  UNL     1      27.436   6.115  49.125  1.00  0.00    -0.344 OA
HETATM   10  H1  UNL     1      27.125   6.671  48.358  1.00  0.00     0.219 HD
ENDBRANCH   7   9
ENDBRANCH   2   4
ENDBRANCH   1   2
BRANCH   1  11
HETATM   11  C5  UNL     1      24.743   2.058  52.943  1.00  0.00     0.075 C 
BRANCH  11  12
HETATM   12  C6  UNL     1      23.218   1.881  52.699  1.00  0.00     0.207 A 
HETATM   13  N2  UNL     1      21.821   1.835  52.406  1.00  0.00    -0.006 N 
HETATM   14  C7  UNL     1      21.218   0.684  52.922  1.00  0.00     0.241 A 
HETATM   15  C8  UNL     1      21.772   1.786  52.423  1.00  0.00     0.287 A 
HETATM   16  C9  UNL     1      22.577   0.803  53.211  1.00  0.00     0.220 A 
HETATM   17  C12 UNL     1      20.752  -0.483  53.481  1.00  0.00     0.053 A 
HETATM   18  C11 UNL     1      21.743  -1.154  54.129  1.00  0.00     0.021 A 
HETATM   19 CL1  UNL     1      19.149  -0.955  53.318  1.00  0.00    -0.086 Cl
HETATM   20  C10 UNL     1      22.828  -0.347  53.944  1.00  0.00     0.019 A 
ENDBRANCH  11  12
ENDBRANCH   1  11
BRANCH   1  21
HETATM   21  C13 UNL     1      26.593   0.409  52.840  1.00  0.00    -0.035 C 
HETATM   22  C14 UNL     1      27.581   0.970  53.482  1.00  0.00     0.017 C 
HETATM   23  P1  UNL     1      28.928   0.153  54.411  1.00  0.00    -0.082 P 
HETATM   24  C15 UNL     1      29.422  -1.354  53.494  1.00  0.00     0.008 C 
HETATM   25  H11 UNL     1      30.080   1.085  54.392  1.00  0.00     0.066 HD
HETATM   26  C16 UNL     1      28.529  -2.107  52.893  1.00  0.00     0.001 C 
HETATM   27  C17 UNL     1      27.123  -2.117  52.703  1.00  0.00     0.001 C 
HETATM   28  C18 UNL     1      26.336  -1.024  52.688  1.00  0.00     0.009 C 
ENDBRANCH   1  21
TORSDOF 7
ENDMDL
MODEL 4
REMARK VINA RESULT:      -8.2      3.341      6.125
REMARK  7 active torsions:
REMARK  status: ('A' for Active; 'I' for Inactive)
REMARK    1  A    between atoms: O1_1  and  C1_2 
REMARK    2  A    between atoms: C3_5  and  N1_6 
REMARK    3  A    between atoms: N1_6  and  C4_7 
REMARK    4  A    between atoms: C4_7  and  C5_8 
REMARK    5  A    between atoms: C4_7  and  C13_18 
REMARK    6  A    between atoms: C5_8  and  C6_9 
REMARK    7  A    between atoms: C8_12  and  C9_13 
ROOT
HETATM    1  C4  UNL     1      24.586   2.397  52.692  1.00  0.00     0.119 C 
ENDROOT
BRANCH   1   2
HETATM    2  N1  UNL     1      25.920   2.636  53.093  1.00  0.00    -0.360 N 
HETATM    3  H3  UNL     1      25.822   3.668  53.232  1.00  0.00     0.162 HD
BRANCH   2   4
HETATM    4  C3  UNL     1      27.083   1.895  53.376  1.00  0.00     0.169 A 
HETATM    5  S1  UNL     1      26.824   0.512  54.658  1.00  0.00    -0.060 SA
HETATM    6  C2  UNL     1      28.617  -0.033  54.527  1.00  0.00     0.111 A 
HETATM    7  C1  UNL     1      29.088   0.890  53.567  1.00  0.00     0.171 A 
HETATM    8  N3  UNL     1      28.231   1.763  53.101  1.00  0.00    -0.200 NA
BRANCH   7   9
HETATM    9  O1  UNL     1      30.418   0.560  53.393  1.00  0.00    -0.344 OA
HETATM   10  H1  UNL     1      31.135   1.195  53.673  1.00  0.00     0.219 HD
ENDBRANCH   7   9
ENDBRANCH   2   4
ENDBRANCH   1   2
BRANCH   1  11
HETATM   11  C5  UNL     1      24.343   1.118  52.018  1.00  0.00     0.075 C 
BRANCH  11  12
HETATM   12  C6  UNL     1      22.817   0.944  51.774  1.00  0.00     0.207 A 
HETATM   13  N2  UNL     1      21.433   0.855  51.434  1.00  0.00    -0.006 N 
HETATM   14  C7  UNL     1      20.711   0.124  52.382  1.00  0.00     0.241 A 
HETATM   15  C8  UNL     1      21.379   0.822  51.469  1.00  0.00     0.287 A 
HETATM   16  C9  UNL     1      22.063   0.278  52.681  1.00  0.00     0.220 A 
HETATM   17  C12 UNL     1      20.121  -0.609  53.385  1.00  0.00     0.053 A 
HETATM   18  C11 UNL     1      21.023  -0.956  54.343  1.00  0.00     0.021 A 
HETATM   19 CL1  UNL     1      18.488  -1.000  53.345  1.00  0.00    -0.086 Cl
HETATM   20  C10 UNL     1      22.183  -0.404  53.883  1.00  0.00     0.019 A 
ENDBRANCH  11  12
ENDBRANCH   1  11
BRANCH   1  21
HETATM   21  C13 UNL     1      24.191   3.586  51.831  1.00  0.00    -0.035 C 
HETATM   22  C14 UNL     1      23.216   4.420  52.065  1.00  0.00     0.017 C 
HETATM   23  P1  UNL     1      22.710   5.868  51.068  1.00  0.00    -0.082 P 
HETATM   24  C15 UNL     1      22.883   5.432  49.297  1.00  0.00     0.008 C 
HETATM   25  H11 UNL     1      21.268   6.083  51.335  1.00  0.00     0.066 HD
HETATM   26  C16 UNL     1      23.888   4.699  48.873  1.00  0.00     0.001 C 
HETATM   27  C17 UNL     1      25.023   4.054  49.429  1.00  0.00     0.001 C 
HETATM   28  C18 UNL     1      25.111   3.595  50.693  1.00  0.00     0.009 C 
ENDBRANCH   1  21
TORSDOF 7
ENDMDL
MODEL 5
REMARK VINA RESULT:      -8.1      3.344      5.364
REMARK  7 active torsions:
REMARK  status: ('A' for Active; 'I' for Inactive)
REMARK    1  A    between atoms: O1_1  and  C1_2 
REMARK    2  A    between atoms: C3_5  and  N1_6 
REMARK    3  A    between atoms: N1_6  and  C4_7 
REMARK    4  A    between atoms: C4_7  and  C5_8 
REMARK    5  A    between atoms: C4_7  and  C13_18 
REMARK    6  A    between atoms: C5_8  and  C6_9 
REMARK    7  A    between atoms: C8_12  and  C9_13 
ROOT
HETATM    1  C4  UNL     1      24.190   3.214  51.889  1.00  0.00     0.119 C 
ENDROOT
BRANCH   1   2
HETATM    2  N1  UNL     1      25.068   3.023  50.799  1.00  0.00    -0.360 N 
HETATM    3  H3  UNL     1      24.810   2.027  50.608  1.00  0.00     0.162 HD
BRANCH   2   4
HETATM    4  C3  UNL     1      25.964   3.782  50.022  1.00  0.00     0.169 A 
HETATM    5  S1  UNL     1      25.310   5.509  49.558  1.00  0.00    -0.060 SA
HETATM    6  C2  UNL     1      26.894   5.933  48.642  1.00  0.00     0.111 A 
HETATM    7  C1  UNL     1      27.623   4.740  48.840  1.00  0.00     0.171 A 
HETATM    8  N3  UNL     1      27.043   3.788  49.527  1.00  0.00    -0.200 NA
BRANCH   7   9
HETATM    9  O1  UNL     1      28.827   4.959  48.200  1.00  0.00    -0.344 OA
HETATM   10  H1  UNL     1      29.474   4.211  48.072  1.00  0.00     0.219 HD
ENDBRANCH   7   9
ENDBRANCH   2   4
ENDBRANCH   1   2
BRANCH   1  11
HETATM   11  C5  UNL     1      24.419   2.349  53.051  1.00  0.00     0.075 C 
BRANCH  11  12
HETATM   12  C6  UNL     1      25.948   2.141  53.247  1.00  0.00     0.207 A 
HETATM   13  N2  UNL     1      27.360   2.084  53.451  1.00  0.00    -0.006 N 
HETATM   14  C7  UNL     1      27.851   0.781  53.330  1.00  0.00     0.241 A 
HETATM   15  C8  UNL     1      27.404   2.028  53.449  1.00  0.00     0.287 A 
HETATM   16  C9  UNL     1      26.481   0.905  53.102  1.00  0.00     0.220 A 
HETATM   17  C12 UNL     1      28.202  -0.541  53.182  1.00  0.00     0.053 A 
HETATM   18  C11 UNL     1      27.123  -1.309  52.868  1.00  0.00     0.021 A 
HETATM   19 CL1  UNL     1      29.784  -1.060  53.399  1.00  0.00    -0.086 Cl
HETATM   20  C10 UNL     1      26.104  -0.402  52.829  1.00  0.00     0.019 A 
ENDBRANCH  11  12
ENDBRANCH   1  11
BRANCH   1  21
HETATM   21  C13 UNL     1      22.787   3.060  51.325  1.00  0.00    -0.035 C 
HETATM   22  C14 UNL     1      21.825   3.939  51.395  1.00  0.00     0.017 C 
HETATM   23  P1  UNL     1      20.128   3.806  50.724  1.00  0.00    -0.082 P 
HETATM   24  C15 UNL     1      19.555   2.081  50.957  1.00  0.00     0.008 C 
HETATM   25  H11 UNL     1      19.272   4.677  51.563  1.00  0.00     0.066 HD
HETATM   26  C16 UNL     1      20.373   1.066  50.798  1.00  0.00     0.001 C 
HETATM   27  C17 UNL     1      21.737   0.861  50.465  1.00  0.00     0.001 C 
HETATM   28  C18 UNL     1      22.733   1.735  50.706  1.00  0.00     0.009 C 
ENDBRANCH   1  21
TORSDOF 7
ENDMDL
MODEL 6
REMARK VINA RESULT:      -8.0      4.130      6.942
REMARK  7 active torsions:
REMARK  status: ('A' for Active; 'I' for Inactive)
REMARK    1  A    between atoms: O1_1  and  C1_2 
REMARK    2  A    between atoms: C3_5  and  N1_6 
REMARK    3  A    between atoms: N1_6  and  C4_7 
REMARK    4  A    between atoms: C4_7  and  C5_8 
REMARK    5  A    between atoms: C4_7  and  C13_18 
REMARK    6  A    between atoms: C5_8  and  C6_9 
REMARK    7  A    between atoms: C8_12  and  C9_13 
ROOT
HETATM    1  C4  UNL     1      24.330   2.340  50.818  1.00  0.00     0.119 C 
ENDROOT
BRANCH   1   2
HETATM    2  N1  UNL     1      23.022   2.344  50.281  1.00  0.00    -0.360 N 
HETATM    3  H3  UNL     1      23.298   2.168  49.288  1.00  0.00     0.162 HD
BRANCH   2   4
HETATM    4  C3  UNL     1      21.695   2.425  50.743  1.00  0.00     0.169 A 
HETATM    5  S1  UNL     1      20.810   0.743  50.847  1.00  0.00    -0.060 SA
HETATM    6  C2  UNL     1      19.242   1.537  51.513  1.00  0.00     0.111 A 
HETATM    7  C1  UNL     1      19.644   2.891  51.545  1.00  0.00     0.171 A 
HETATM    8  N3  UNL     1      20.858   3.168  51.142  1.00  0.00    -0.200 NA
BRANCH   7   9
HETATM    9  O1  UNL     1      18.543   3.567  52.036  1.00  0.00    -0.344 OA
HETATM   10  H1  UNL     1      18.063   3.229  52.843  1.00  0.00     0.219 HD
ENDBRANCH   7   9
ENDBRANCH   2   4
ENDBRANCH   1   2
BRANCH   1  11
HETATM   11  C5  UNL     1      24.438   1.957  52.230  1.00  0.00     0.075 C 
BRANCH  11  12
HETATM   12  C6  UNL     1      25.479   0.812  52.376  1.00  0.00     0.207 A 
HETATM   13  N2  UNL     1      26.340  -0.324  52.463  1.00  0.00    -0.006 N 
HETATM   14  C7  UNL     1      27.611   0.020  52.933  1.00  0.00     0.241 A 
HETATM   15  C8  UNL     1      26.408  -0.329  52.485  1.00  0.00     0.287 A 
HETATM   16  C9  UNL     1      26.713   1.085  52.864  1.00  0.00     0.220 A 
HETATM   17  C12 UNL     1      28.814   0.492  53.404  1.00  0.00     0.053 A 
HETATM   18  C11 UNL     1      28.761   1.829  53.651  1.00  0.00     0.021 A 
HETATM   19 CL1  UNL     1      30.138  -0.522  53.602  1.00  0.00    -0.086 Cl
HETATM   20  C10 UNL     1      27.478   2.151  53.313  1.00  0.00     0.019 A 
ENDBRANCH  11  12
ENDBRANCH   1  11
BRANCH   1  21
HETATM   21  C13 UNL     1      24.893   3.726  50.552  1.00  0.00    -0.035 C 
HETATM   22  C14 UNL     1      24.278   4.861  50.743  1.00  0.00     0.017 C 
HETATM   23  P1  UNL     1      24.915   6.550  50.450  1.00  0.00    -0.082 P 
HETATM   24  C15 UNL     1      25.928   6.522  48.924  1.00  0.00     0.008 C 
HETATM   25  H11 UNL     1      23.736   7.407  50.187  1.00  0.00     0.066 HD
HETATM   26  C16 UNL     1      26.706   5.501  48.642  1.00  0.00     0.001 C 
HETATM   27  C17 UNL     1      27.047   4.252  49.223  1.00  0.00     0.001 C 
HETATM   28  C18 UNL     1      26.247   3.529  50.030  1.00  0.00     0.009 C 
ENDBRANCH   1  21
TORSDOF 7
ENDMDL
MODEL 7
REMARK VINA RESULT:      -8.0      3.944      6.387
REMARK  7 active torsions:
REMARK  status: ('A' for Active; 'I' for Inactive)
REMARK    1  A    between atoms: O1_1  and  C1_2 
REMARK    2  A    between atoms: C3_5  and  N1_6 
REMARK    3  A    between atoms: N1_6  and  C4_7 
REMARK    4  A    between atoms: C4_7  and  C5_8 
REMARK    5  A    between atoms: C4_7  and  C13_18 
REMARK    6  A    between atoms: C5_8  and  C6_9 
REMARK    7  A    between atoms: C8_12  and  C9_13 
ROOT
HETATM    1  C4  UNL     1      24.283   2.226  51.738  1.00  0.00     0.119 C 
ENDROOT
BRANCH   1   2
HETATM    2  N1  UNL     1      23.184   1.347  51.611  1.00  0.00    -0.360 N 
HETATM    3  H3  UNL     1      23.185   1.301  50.566  1.00  0.00     0.162 HD
BRANCH   2   4
HETATM    4  C3  UNL     1      22.330   0.601  52.447  1.00  0.00     0.169 A 
HETATM    5  S1  UNL     1      20.496   0.679  51.941  1.00  0.00    -0.060 SA
HETATM    6  C2  UNL     1      19.995  -0.468  53.343  1.00  0.00     0.111 A 
HETATM    7  C1  UNL     1      21.257  -0.707  53.930  1.00  0.00     0.171 A 
HETATM    8  N3  UNL     1      22.294  -0.122  53.388  1.00  0.00    -0.200 NA
BRANCH   7   9
HETATM    9  O1  UNL     1      20.991  -1.561  54.984  1.00  0.00    -0.344 OA
HETATM   10  H1  UNL     1      20.307  -2.281  54.889  1.00  0.00     0.219 HD
ENDBRANCH   7   9
ENDBRANCH   2   4
ENDBRANCH   1   2
BRANCH   1  11
HETATM   11  C5  UNL     1      24.709   2.519  53.110  1.00  0.00     0.075 C 
BRANCH  11  12
HETATM   12  C6  UNL     1      26.220   2.186  53.263  1.00  0.00     0.207 A 
HETATM   13  N2  UNL     1      27.629   2.013  53.425  1.00  0.00    -0.006 N 
HETATM   14  C7  UNL     1      28.004   0.671  53.317  1.00  0.00     0.241 A 
HETATM   15  C8  UNL     1      27.668   1.954  53.423  1.00  0.00     0.287 A 
HETATM   16  C9  UNL     1      26.643   0.907  53.128  1.00  0.00     0.220 A 
HETATM   17  C12 UNL     1      28.238  -0.678  53.187  1.00  0.00     0.053 A 
HETATM   18  C11 UNL     1      27.089  -1.358  52.923  1.00  0.00     0.021 A 
HETATM   19 CL1  UNL     1      29.777  -1.324  53.367  1.00  0.00    -0.086 Cl
HETATM   20  C10 UNL     1      26.149  -0.369  52.896  1.00  0.00     0.019 A 
ENDBRANCH  11  12
ENDBRANCH   1  11
BRANCH   1  21
HETATM   21  C13 UNL     1      23.900   3.483  50.973  1.00  0.00    -0.035 C 
HETATM   22  C14 UNL     1      23.700   4.667  51.483  1.00  0.00     0.017 C 
HETATM   23  P1  UNL     1      23.250   6.208  50.606  1.00  0.00    -0.082 P 
HETATM   24  C15 UNL     1      22.068   5.783  49.272  1.00  0.00     0.008 C 
HETATM   25  H11 UNL     1      22.531   7.057  51.585  1.00  0.00     0.066 HD
HETATM   26  C16 UNL     1      22.202   4.680  48.571  1.00  0.00     0.001 C 
HETATM   27  C17 UNL     1      23.086   3.571  48.522  1.00  0.00     0.001 C 
HETATM   28  C18 UNL     1      23.789   3.093  49.566  1.00  0.00     0.009 C 
ENDBRANCH   1  21
TORSDOF 7
ENDMDL
MODEL 8
REMARK VINA RESULT:      -7.8      4.234      7.202
REMARK  7 active torsions:
REMARK  status: ('A' for Active; 'I' for Inactive)
REMARK    1  A    between atoms: O1_1  and  C1_2 
REMARK    2  A    between atoms: C3_5  and  N1_6 
REMARK    3  A    between atoms: N1_6  and  C4_7 
REMARK    4  A    between atoms: C4_7  and  C5_8 
REMARK    5  A    between atoms: C4_7  and  C13_18 
REMARK    6  A    between atoms: C5_8  and  C6_9 
REMARK    7  A    between atoms: C8_12  and  C9_13 
ROOT
HETATM    1  C4  UNL     1      25.083   1.525  51.926  1.00  0.00     0.119 C 
ENDROOT
BRANCH   1   2
HETATM    2  N1  UNL     1      25.401   2.461  50.916  1.00  0.00    -0.360 N 
HETATM    3  H3  UNL     1      26.427   2.263  50.885  1.00  0.00     0.162 HD
BRANCH   2   4
HETATM    4  C3  UNL     1      24.729   3.352  50.057  1.00  0.00     0.169 A 
HETATM    5  S1  UNL     1      25.587   5.042  49.875  1.00  0.00    -0.060 SA
HETATM    6  C2  UNL     1      24.279   5.647  48.668  1.00  0.00     0.111 A 
HETATM    7  C1  UNL     1      23.449   4.506  48.609  1.00  0.00     0.171 A 
HETATM    8  N3  UNL     1      23.794   3.473  49.336  1.00  0.00    -0.200 NA
BRANCH   7   9
HETATM    9  O1  UNL     1      22.445   4.854  47.726  1.00  0.00    -0.344 OA
HETATM   10  H1  UNL     1      21.738   5.504  47.997  1.00  0.00     0.219 HD
ENDBRANCH   7   9
ENDBRANCH   2   4
ENDBRANCH   1   2
BRANCH   1  11
HETATM   11  C5  UNL     1      24.266   2.034  53.032  1.00  0.00     0.075 C 
BRANCH  11  12
HETATM   12  C6  UNL     1      22.764   1.774  52.726  1.00  0.00     0.207 A 
HETATM   13  N2  UNL     1      21.387   1.648  52.370  1.00  0.00    -0.006 N 
HETATM   14  C7  UNL     1      20.807   0.504  52.927  1.00  0.00     0.241 A 
HETATM   15  C8  UNL     1      21.339   1.598  52.388  1.00  0.00     0.287 A 
HETATM   16  C9  UNL     1      22.143   0.702  53.273  1.00  0.00     0.220 A 
HETATM   17  C12 UNL     1      20.362  -0.647  53.534  1.00  0.00     0.053 A 
HETATM   18  C11 UNL     1      21.346  -1.232  54.270  1.00  0.00     0.021 A 
HETATM   19 CL1  UNL     1      18.791  -1.200  53.324  1.00  0.00    -0.086 Cl
HETATM   20  C10 UNL     1      22.404  -0.390  54.088  1.00  0.00     0.019 A 
ENDBRANCH  11  12
ENDBRANCH   1  11
BRANCH   1  21
HETATM   21  C13 UNL     1      26.412   0.962  52.403  1.00  0.00    -0.035 C 
HETATM   22  C14 UNL     1      26.680  -0.294  52.637  1.00  0.00     0.017 C 
HETATM   23  P1  UNL     1      28.262  -1.020  53.200  1.00  0.00    -0.082 P 
HETATM   24  C15 UNL     1      29.014   0.122  54.419  1.00  0.00     0.008 C 
HETATM   25  H11 UNL     1      27.921  -2.273  53.914  1.00  0.00     0.066 HD
HETATM   26  C16 UNL     1      28.944   1.425  54.263  1.00  0.00     0.001 C 
HETATM   27  C17 UNL     1      28.392   2.341  53.330  1.00  0.00     0.001 C 
HETATM   28  C18 UNL     1      27.314   2.104  52.558  1.00  0.00     0.009 C 
ENDBRANCH   1  21
TORSDOF 7
ENDMDL
MODEL 9
REMARK VINA RESULT:      -7.8      3.847      6.016
REMARK  7 active torsions:
REMARK  status: ('A' for Active; 'I' for Inactive)
REMARK    1  A    between atoms: O1_1  and  C1_2 
REMARK    2  A    between atoms: C3_5  and  N1_6 
REMARK    3  A    between atoms: N1_6  and  C4_7 
REMARK    4  A    between atoms: C4_7  and  C5_8 
REMARK    5  A    between atoms: C4_7  and  C13_18 
REMARK    6  A    between atoms: C5_8  and  C6_9 
REMARK    7  A    between atoms: C8_12  and  C9_13 
ROOT
HETATM    1  C4  UNL     1      24.921   4.386  50.141  1.00  0.00     0.119 C 
ENDROOT
BRANCH   1   2
HETATM    2  N1  UNL     1      25.115   5.600  49.445  1.00  0.00    -0.360 N 
HETATM    3  H3  UNL     1      24.467   5.391  48.652  1.00  0.00     0.162 HD
BRANCH   2   4
HETATM    4  C3  UNL     1      25.795   6.820  49.626  1.00  0.00     0.169 A 
HETATM    5  S1  UNL     1      26.480   7.568  48.015  1.00  0.00    -0.060 SA
HETATM    6  C2  UNL     1      27.164   9.063  48.925  1.00  0.00     0.111 A 
HETATM    7  C1  UNL     1      26.768   8.753  50.245  1.00  0.00     0.171 A 
HETATM    8  N3  UNL     1      26.114   7.635  50.430  1.00  0.00    -0.200 NA
BRANCH   7   9
HETATM    9  O1  UNL     1      27.226   9.815  51.001  1.00  0.00    -0.344 OA
HETATM   10  H1  UNL     1      27.160   9.790  51.997  1.00  0.00     0.219 HD
ENDBRANCH   7   9
ENDBRANCH   2   4
ENDBRANCH   1   2
BRANCH   1  11
HETATM   11  C5  UNL     1      25.811   3.284  49.759  1.00  0.00     0.075 C 
BRANCH  11  12
HETATM   12  C6  UNL     1      26.478   2.693  51.033  1.00  0.00     0.207 A 
HETATM   13  N2  UNL     1      27.201   2.222  52.171  1.00  0.00    -0.006 N 
HETATM   14  C7  UNL     1      26.428   1.367  52.962  1.00  0.00     0.241 A 
HETATM   15  C8  UNL     1      27.180   2.178  52.224  1.00  0.00     0.287 A 
HETATM   16  C9  UNL     1      25.786   1.828  51.813  1.00  0.00     0.220 A 
HETATM   17  C12 UNL     1      25.564   0.543  53.645  1.00  0.00     0.053 A 
HETATM   18  C11 UNL     1      24.368   0.436  53.004  1.00  0.00     0.021 A 
HETATM   19 CL1  UNL     1      26.004  -0.184  55.093  1.00  0.00    -0.086 Cl
HETATM   20  C10 UNL     1      24.541   1.225  51.904  1.00  0.00     0.019 A 
ENDBRANCH  11  12
ENDBRANCH   1  11
BRANCH   1  21
HETATM   21  C13 UNL     1      23.454   4.031  49.957  1.00  0.00    -0.035 C 
HETATM   22  C14 UNL     1      22.463   4.427  50.707  1.00  0.00     0.017 C 
HETATM   23  P1  UNL     1      20.685   4.039  50.521  1.00  0.00    -0.082 P 
HETATM   24  C15 UNL     1      20.535   2.294  49.982  1.00  0.00     0.008 C 
HETATM   25  H11 UNL     1      20.086   4.141  51.873  1.00  0.00     0.066 HD
HETATM   26  C16 UNL     1      21.384   1.772  49.125  1.00  0.00     0.001 C 
HETATM   27  C17 UNL     1      22.529   2.188  48.399  1.00  0.00     0.001 C 
HETATM   28  C18 UNL     1      23.385   3.153  48.788  1.00  0.00     0.009 C 
ENDBRANCH   1  21
TORSDOF 7
ENDMDL
