MODEL 1
REMARK VINA RESULT:      -7.7      0.000      0.000
REMARK  5 active torsions:
REMARK  status: ('A' for Active; 'I' for Inactive)
REMARK    1  A    between atoms: C2_2  and  S1_3 
REMARK    2  A    between atoms: S1_3  and  C3_6 
REMARK    3  A    between atoms: C9_15  and  N4_16 
REMARK    4  A    between atoms: N4_16  and  C10_17 
REMARK    5  A    between atoms: C11_18  and  C12_19 
ROOT
HETATM    1  C3  UNL     1      25.662  -0.055  54.289  1.00  0.00     0.178 A 
HETATM    2  N1  UNL     1      25.529  -0.877  55.387  1.00  0.00    -0.245 NA
HETATM    3  C4  UNL     1      24.329  -1.395  55.695  1.00  0.00     0.150 A 
HETATM    4  C5  UNL     1      23.145  -1.211  55.020  1.00  0.00     0.083 A 
HETATM    5  N2  UNL     1      21.899  -1.656  55.197  1.00  0.00    -0.246 NA
HETATM    6  C6  UNL     1      21.111  -1.146  54.204  1.00  0.00     0.227 A 
HETATM    7  N3  UNL     1      20.637  -0.491  53.110  1.00  0.00    -0.265 NA
HETATM    8  C7  UNL     1      22.033  -0.323  53.382  1.00  0.00     0.170 A 
HETATM    9  C8  UNL     1      23.281  -0.387  53.917  1.00  0.00     0.039 A 
HETATM   10  C9  UNL     1      24.489   0.164  53.574  1.00  0.00     0.084 A 
ENDROOT
BRANCH  10  11
HETATM   11  N4  UNL     1      24.455   0.978  52.454  1.00  0.00    -0.363 N 
HETATM   12  H5  UNL     1      25.495   0.849  52.258  1.00  0.00     0.165 HD
BRANCH  11  13
HETATM   13  C10 UNL     1      24.400   1.791  51.341  1.00  0.00     0.088 C 
HETATM   14  C11 UNL     1      23.281   2.134  50.684  1.00  0.00     0.017 C 
BRANCH  14  15
HETATM   15  C12 UNL     1      23.386   2.995  49.523  1.00  0.00    -0.003 C 
HETATM   16  C13 UNL     1      22.714   2.681  48.455  1.00  0.00    -0.031 C 
HETATM   17  C14 UNL     1      21.843   1.472  48.383  1.00  0.00     0.036 C 
ENDBRANCH  14  15
ENDBRANCH  11  13
ENDBRANCH  10  11
BRANCH   1  18
HETATM   18  S1  UNL     1      27.146   0.664  53.764  1.00  0.00     0.200 S 
HETATM   19  O1  UNL     1      27.018   2.175  54.016  1.00  0.00    -0.221 OA
HETATM   20  O2  UNL     1      27.422   0.516  52.305  1.00  0.00    -0.221 OA
BRANCH  18  21
HETATM   21  C2  UNL     1      28.521   0.143  54.741  1.00  0.00     0.134 C 
HETATM   22  C1  UNL     1      29.378  -0.538  53.976  1.00  0.00     0.023 C 
ENDBRANCH  18  21
ENDBRANCH   1  18
TORSDOF 5
ENDMDL
MODEL 2
REMARK VINA RESULT:      -7.5      1.111      1.230
REMARK  5 active torsions:
REMARK  status: ('A' for Active; 'I' for Inactive)
REMARK    1  A    between atoms: C2_2  and  S1_3 
REMARK    2  A    between atoms: S1_3  and  C3_6 
REMARK    3  A    between atoms: C9_15  and  N4_16 
REMARK    4  A    between atoms: N4_16  and  C10_17 
REMARK    5  A    between atoms: C11_18  and  C12_19 
ROOT
HETATM    1  C3  UNL     1      25.196  -0.355  54.458  1.00  0.00     0.178 A 
HETATM    2  N1  UNL     1      24.886  -1.198  55.503  1.00  0.00    -0.245 NA
HETATM    3  C4  UNL     1      23.620  -1.610  55.680  1.00  0.00     0.150 A 
HETATM    4  C5  UNL     1      22.526  -1.289  54.911  1.00  0.00     0.083 A 
HETATM    5  N2  UNL     1      21.233  -1.618  54.956  1.00  0.00    -0.246 NA
HETATM    6  C6  UNL     1      20.592  -1.000  53.921  1.00  0.00     0.227 A 
HETATM    7  N3  UNL     1      20.283  -0.264  52.819  1.00  0.00    -0.265 NA
HETATM    8  C7  UNL     1      21.657  -0.241  53.221  1.00  0.00     0.170 A 
HETATM    9  C8  UNL     1      22.839  -0.443  53.862  1.00  0.00     0.039 A 
HETATM   10  C9  UNL     1      24.120   0.001  53.651  1.00  0.00     0.084 A 
ENDROOT
BRANCH  10  11
HETATM   11  N4  UNL     1      24.265   0.854  52.570  1.00  0.00    -0.363 N 
HETATM   12  H5  UNL     1      24.681   1.632  53.167  1.00  0.00     0.165 HD
BRANCH  11  13
HETATM   13  C10 UNL     1      24.402   1.688  51.480  1.00  0.00     0.088 C 
HETATM   14  C11 UNL     1      23.391   2.204  50.765  1.00  0.00     0.017 C 
BRANCH  14  15
HETATM   15  C12 UNL     1      23.696   3.064  49.640  1.00  0.00    -0.003 C 
HETATM   16  C13 UNL     1      23.080   2.855  48.514  1.00  0.00    -0.031 C 
HETATM   17  C14 UNL     1      22.074   1.766  48.341  1.00  0.00     0.036 C 
ENDBRANCH  14  15
ENDBRANCH  11  13
ENDBRANCH  10  11
BRANCH   1  18
HETATM   18  S1  UNL     1      26.782   0.236  54.099  1.00  0.00     0.200 S 
HETATM   19  O1  UNL     1      27.697  -0.232  55.242  1.00  0.00    -0.221 OA
HETATM   20  O2  UNL     1      26.895   1.725  54.072  1.00  0.00    -0.221 OA
BRANCH  18  21
HETATM   21  C2  UNL     1      27.450  -0.492  52.636  1.00  0.00     0.134 C 
HETATM   22  C1  UNL     1      27.097  -1.779  52.579  1.00  0.00     0.023 C 
ENDBRANCH  18  21
ENDBRANCH   1  18
TORSDOF 5
ENDMDL
MODEL 3
REMARK VINA RESULT:      -6.9      3.185      5.327
REMARK  5 active torsions:
REMARK  status: ('A' for Active; 'I' for Inactive)
REMARK    1  A    between atoms: C2_2  and  S1_3 
REMARK    2  A    between atoms: S1_3  and  C3_6 
REMARK    3  A    between atoms: C9_15  and  N4_16 
REMARK    4  A    between atoms: N4_16  and  C10_17 
REMARK    5  A    between atoms: C11_18  and  C12_19 
ROOT
HETATM    1  C3  UNL     1      23.831   0.843  52.804  1.00  0.00     0.178 A 
HETATM    2  N1  UNL     1      24.044  -0.212  53.663  1.00  0.00    -0.245 NA
HETATM    3  C4  UNL     1      25.264  -0.414  54.188  1.00  0.00     0.150 A 
HETATM    4  C5  UNL     1      26.396   0.337  53.975  1.00  0.00     0.083 A 
HETATM    5  N2  UNL     1      27.653   0.267  54.420  1.00  0.00    -0.246 NA
HETATM    6  C6  UNL     1      28.365   1.294  53.871  1.00  0.00     0.227 A 
HETATM    7  N3  UNL     1      28.759   2.395  53.175  1.00  0.00    -0.265 NA
HETATM    8  C7  UNL     1      27.386   2.017  53.023  1.00  0.00     0.170 A 
HETATM    9  C8  UNL     1      26.179   1.397  53.112  1.00  0.00     0.039 A 
HETATM   10  C9  UNL     1      24.949   1.633  52.554  1.00  0.00     0.084 A 
ENDROOT
BRANCH  10  11
HETATM   11  N4  UNL     1      24.901   2.722  51.700  1.00  0.00    -0.363 N 
HETATM   12  H5  UNL     1      23.901   2.512  51.397  1.00  0.00     0.165 HD
BRANCH  11  13
HETATM   13  C10 UNL     1      24.872   3.812  50.856  1.00  0.00     0.088 C 
HETATM   14  C11 UNL     1      25.915   4.274  50.148  1.00  0.00     0.017 C 
BRANCH  14  15
HETATM   15  C12 UNL     1      25.729   5.438  49.306  1.00  0.00    -0.003 C 
HETATM   16  C13 UNL     1      26.717   5.821  48.550  1.00  0.00    -0.031 C 
HETATM   17  C14 UNL     1      28.026   5.107  48.521  1.00  0.00     0.036 C 
ENDBRANCH  14  15
ENDBRANCH  11  13
ENDBRANCH  10  11
BRANCH   1  18
HETATM   18  S1  UNL     1      22.312   1.234  52.072  1.00  0.00     0.200 S 
HETATM   19  O1  UNL     1      22.509   1.114  50.553  1.00  0.00    -0.221 OA
HETATM   20  O2  UNL     1      21.852   2.633  52.315  1.00  0.00    -0.221 OA
BRANCH  18  21
HETATM   21  C2  UNL     1      21.057   0.059  52.475  1.00  0.00     0.134 C 
HETATM   22  C1  UNL     1      20.481   0.401  53.630  1.00  0.00     0.023 C 
ENDBRANCH  18  21
ENDBRANCH   1  18
TORSDOF 5
ENDMDL
MODEL 4
REMARK VINA RESULT:      -6.7      2.663      5.927
REMARK  5 active torsions:
REMARK  status: ('A' for Active; 'I' for Inactive)
REMARK    1  A    between atoms: C2_2  and  S1_3 
REMARK    2  A    between atoms: S1_3  and  C3_6 
REMARK    3  A    between atoms: C9_15  and  N4_16 
REMARK    4  A    between atoms: N4_16  and  C10_17 
REMARK    5  A    between atoms: C11_18  and  C12_19 
ROOT
HETATM    1  C3  UNL     1      24.537   2.147  51.411  1.00  0.00     0.178 A 
HETATM    2  N1  UNL     1      25.585   2.837  50.842  1.00  0.00    -0.245 NA
HETATM    3  C4  UNL     1      26.829   2.686  51.325  1.00  0.00     0.150 A 
HETATM    4  C5  UNL     1      27.223   1.886  52.371  1.00  0.00     0.083 A 
HETATM    5  N2  UNL     1      28.398   1.631  52.952  1.00  0.00    -0.246 NA
HETATM    6  C6  UNL     1      28.197   0.736  53.964  1.00  0.00     0.227 A 
HETATM    7  N3  UNL     1      27.657  -0.135  54.858  1.00  0.00    -0.265 NA
HETATM    8  C7  UNL     1      26.739   0.464  53.938  1.00  0.00     0.170 A 
HETATM    9  C8  UNL     1      26.170   1.193  52.941  1.00  0.00     0.039 A 
HETATM   10  C9  UNL     1      24.886   1.324  52.476  1.00  0.00     0.084 A 
ENDROOT
BRANCH  10  11
HETATM   11  N4  UNL     1      23.944   0.576  53.164  1.00  0.00    -0.363 N 
HETATM   12  H5  UNL     1      23.343   0.429  52.295  1.00  0.00     0.165 HD
BRANCH  11  13
HETATM   13  C10 UNL     1      23.018  -0.167  53.865  1.00  0.00     0.088 C 
HETATM   14  C11 UNL     1      22.077  -0.953  53.318  1.00  0.00     0.017 C 
BRANCH  14  15
HETATM   15  C12 UNL     1      21.170  -1.670  54.189  1.00  0.00    -0.003 C 
HETATM   16  C13 UNL     1      19.891  -1.469  54.055  1.00  0.00    -0.031 C 
HETATM   17  C14 UNL     1      19.331  -0.531  53.040  1.00  0.00     0.036 C 
ENDBRANCH  14  15
ENDBRANCH  11  13
ENDBRANCH  10  11
BRANCH   1  18
HETATM   18  S1  UNL     1      22.892   2.229  50.879  1.00  0.00     0.200 S 
HETATM   19  O1  UNL     1      22.070   2.756  52.066  1.00  0.00    -0.221 OA
HETATM   20  O2  UNL     1      22.293   0.909  50.522  1.00  0.00    -0.221 OA
BRANCH  18  21
HETATM   21  C2  UNL     1      22.667   3.415  49.591  1.00  0.00     0.134 C 
HETATM   22  C1  UNL     1      22.837   2.823  48.406  1.00  0.00     0.023 C 
ENDBRANCH  18  21
ENDBRANCH   1  18
TORSDOF 5
ENDMDL
MODEL 5
REMARK VINA RESULT:      -6.5      2.840      4.977
REMARK  5 active torsions:
REMARK  status: ('A' for Active; 'I' for Inactive)
REMARK    1  A    between atoms: C2_2  and  S1_3 
REMARK    2  A    between atoms: S1_3  and  C3_6 
REMARK    3  A    between atoms: C9_15  and  N4_16 
REMARK    4  A    between atoms: N4_16  and  C10_17 
REMARK    5  A    between atoms: C11_18  and  C12_19 
ROOT
HETATM    1  C3  UNL     1      23.908   1.472  51.701  1.00  0.00     0.178 A 
HETATM    2  N1  UNL     1      25.257   1.353  51.959  1.00  0.00    -0.245 NA
HETATM    3  C4  UNL     1      25.680   0.575  52.968  1.00  0.00     0.150 A 
HETATM    4  C5  UNL     1      24.906  -0.167  53.828  1.00  0.00     0.083 A 
HETATM    5  N2  UNL     1      25.176  -0.977  54.855  1.00  0.00    -0.246 NA
HETATM    6  C6  UNL     1      23.998  -1.456  55.352  1.00  0.00     0.227 A 
HETATM    7  N3  UNL     1      22.686  -1.736  55.581  1.00  0.00    -0.265 NA
HETATM    8  C7  UNL     1      22.953  -0.838  54.498  1.00  0.00     0.170 A 
HETATM    9  C8  UNL     1      23.552  -0.047  53.567  1.00  0.00     0.039 A 
HETATM   10  C9  UNL     1      23.082   0.740  52.548  1.00  0.00     0.084 A 
ENDROOT
BRANCH  10  11
HETATM   11  N4  UNL     1      21.702   0.766  52.428  1.00  0.00    -0.363 N 
HETATM   12  H5  UNL     1      21.564   1.095  53.433  1.00  0.00     0.165 HD
BRANCH  11  13
HETATM   13  C10 UNL     1      20.330   0.786  52.290  1.00  0.00     0.088 C 
HETATM   14  C11 UNL     1      19.534  -0.294  52.277  1.00  0.00     0.017 C 
BRANCH  14  15
HETATM   15  C12 UNL     1      18.106  -0.111  52.117  1.00  0.00    -0.003 C 
HETATM   16  C13 UNL     1      17.304  -0.955  52.697  1.00  0.00    -0.031 C 
HETATM   17  C14 UNL     1      17.800  -2.098  53.516  1.00  0.00     0.036 C 
ENDBRANCH  14  15
ENDBRANCH  11  13
ENDBRANCH  10  11
BRANCH   1  18
HETATM   18  S1  UNL     1      23.223   2.419  50.425  1.00  0.00     0.200 S 
HETATM   19  O1  UNL     1      22.319   3.469  51.090  1.00  0.00    -0.221 OA
HETATM   20  O2  UNL     1      22.342   1.654  49.493  1.00  0.00    -0.221 OA
BRANCH  18  21
HETATM   21  C2  UNL     1      24.447   3.343  49.550  1.00  0.00     0.134 C 
HETATM   22  C1  UNL     1      24.115   4.636  49.553  1.00  0.00     0.023 C 
ENDBRANCH  18  21
ENDBRANCH   1  18
TORSDOF 5
ENDMDL
MODEL 6
REMARK VINA RESULT:      -6.3      3.243      5.280
REMARK  5 active torsions:
REMARK  status: ('A' for Active; 'I' for Inactive)
REMARK    1  A    between atoms: C2_2  and  S1_3 
REMARK    2  A    between atoms: S1_3  and  C3_6 
REMARK    3  A    between atoms: C9_15  and  N4_16 
REMARK    4  A    between atoms: N4_16  and  C10_17 
REMARK    5  A    between atoms: C11_18  and  C12_19 
ROOT
HETATM    1  C3  UNL     1      23.042   1.984  51.672  1.00  0.00     0.178 A 
HETATM    2  N1  UNL     1      22.155   1.226  52.405  1.00  0.00    -0.245 NA
HETATM    3  C4  UNL     1      22.613   0.322  53.285  1.00  0.00     0.150 A 
HETATM    4  C5  UNL     1      23.926   0.035  53.576  1.00  0.00     0.083 A 
HETATM    5  N2  UNL     1      24.526  -0.814  54.414  1.00  0.00    -0.246 NA
HETATM    6  C6  UNL     1      25.878  -0.668  54.285  1.00  0.00     0.227 A 
HETATM    7  N3  UNL     1      27.127  -0.272  53.920  1.00  0.00    -0.265 NA
HETATM    8  C7  UNL     1      26.044   0.387  53.255  1.00  0.00     0.170 A 
HETATM    9  C8  UNL     1      24.815   0.798  52.840  1.00  0.00     0.039 A 
HETATM   10  C9  UNL     1      24.385   1.729  51.929  1.00  0.00     0.084 A 
ENDROOT
BRANCH  10  11
HETATM   11  N4  UNL     1      25.399   2.396  51.263  1.00  0.00    -0.363 N 
HETATM   12  H5  UNL     1      25.373   1.727  50.434  1.00  0.00     0.165 HD
BRANCH  11  13
HETATM   13  C10 UNL     1      26.409   3.075  50.614  1.00  0.00     0.088 C 
HETATM   14  C11 UNL     1      26.272   3.765  49.471  1.00  0.00     0.017 C 
BRANCH  14  15
HETATM   15  C12 UNL     1      27.432   4.424  48.907  1.00  0.00    -0.003 C 
HETATM   16  C13 UNL     1      27.325   5.669  48.547  1.00  0.00    -0.031 C 
HETATM   17  C14 UNL     1      26.055   6.439  48.695  1.00  0.00     0.036 C 
ENDBRANCH  14  15
ENDBRANCH  11  13
ENDBRANCH  10  11
BRANCH   1  18
HETATM   18  S1  UNL     1      22.594   3.196  50.521  1.00  0.00     0.200 S 
HETATM   19  O1  UNL     1      23.113   2.721  49.154  1.00  0.00    -0.221 OA
HETATM   20  O2  UNL     1      23.221   4.530  50.753  1.00  0.00    -0.221 OA
BRANCH  18  21
HETATM   21  C2  UNL     1      20.843   3.325  50.337  1.00  0.00     0.134 C 
HETATM   22  C1  UNL     1      20.342   4.047  51.342  1.00  0.00     0.023 C 
ENDBRANCH  18  21
ENDBRANCH   1  18
TORSDOF 5
ENDMDL
MODEL 7
REMARK VINA RESULT:      -6.0      3.374      5.309
REMARK  5 active torsions:
REMARK  status: ('A' for Active; 'I' for Inactive)
REMARK    1  A    between atoms: C2_2  and  S1_3 
REMARK    2  A    between atoms: S1_3  and  C3_6 
REMARK    3  A    between atoms: C9_15  and  N4_16 
REMARK    4  A    between atoms: N4_16  and  C10_17 
REMARK    5  A    between atoms: C11_18  and  C12_19 
ROOT
HETATM    1  C3  UNL     1      22.670   0.786  52.539  1.00  0.00     0.178 A 
HETATM    2  N1  UNL     1      22.652  -0.446  53.157  1.00  0.00    -0.245 NA
HETATM    3  C4  UNL     1      23.724  -0.865  53.849  1.00  0.00     0.150 A 
HETATM    4  C5  UNL     1      24.907  -0.191  54.039  1.00  0.00     0.083 A 
HETATM    5  N2  UNL     1      26.038  -0.468  54.692  1.00  0.00    -0.246 NA
HETATM    6  C6  UNL     1      26.894   0.586  54.545  1.00  0.00     0.227 A 
HETATM    7  N3  UNL     1      27.473   1.771  54.211  1.00  0.00    -0.265 NA
HETATM    8  C7  UNL     1      26.148   1.560  53.711  1.00  0.00     0.170 A 
HETATM    9  C8  UNL     1      24.923   1.046  53.418  1.00  0.00     0.039 A 
HETATM   10  C9  UNL     1      23.849   1.507  52.700  1.00  0.00     0.084 A 
ENDROOT
BRANCH  10  11
HETATM   11  N4  UNL     1      24.030   2.755  52.128  1.00  0.00    -0.363 N 
HETATM   12  H5  UNL     1      24.224   2.346  51.162  1.00  0.00     0.165 HD
BRANCH  11  13
HETATM   13  C10 UNL     1      24.205   4.006  51.575  1.00  0.00     0.088 C 
HETATM   14  C11 UNL     1      23.589   5.127  51.980  1.00  0.00     0.017 C 
BRANCH  14  15
HETATM   15  C12 UNL     1      23.873   6.370  51.293  1.00  0.00    -0.003 C 
HETATM   16  C13 UNL     1      22.891   7.003  50.722  1.00  0.00    -0.031 C 
HETATM   17  C14 UNL     1      21.488   6.496  50.751  1.00  0.00     0.036 C 
ENDBRANCH  14  15
ENDBRANCH  11  13
ENDBRANCH  10  11
BRANCH   1  18
HETATM   18  S1  UNL     1      21.357   1.460  51.635  1.00  0.00     0.200 S 
HETATM   19  O1  UNL     1      21.877   1.692  50.207  1.00  0.00    -0.221 OA
HETATM   20  O2  UNL     1      20.894   2.793  52.122  1.00  0.00    -0.221 OA
BRANCH  18  21
HETATM   21  C2  UNL     1      20.014   0.327  51.466  1.00  0.00     0.134 C 
HETATM   22  C1  UNL     1      18.893   1.002  51.201  1.00  0.00     0.023 C 
ENDBRANCH  18  21
ENDBRANCH   1  18
TORSDOF 5
ENDMDL
MODEL 8
REMARK VINA RESULT:      -5.9      7.683     10.446
REMARK  5 active torsions:
REMARK  status: ('A' for Active; 'I' for Inactive)
REMARK    1  A    between atoms: C2_2  and  S1_3 
REMARK    2  A    between atoms: S1_3  and  C3_6 
REMARK    3  A    between atoms: C9_15  and  N4_16 
REMARK    4  A    between atoms: N4_16  and  C10_17 
REMARK    5  A    between atoms: C11_18  and  C12_19 
ROOT
HETATM    1  C3  UNL     1      28.919   8.337  48.923  1.00  0.00     0.178 A 
HETATM    2  N1  UNL     1      29.932   9.270  48.967  1.00  0.00    -0.245 NA
HETATM    3  C4  UNL     1      31.210   8.878  48.840  1.00  0.00     0.150 A 
HETATM    4  C5  UNL     1      31.673   7.597  48.657  1.00  0.00     0.083 A 
HETATM    5  N2  UNL     1      32.888   7.061  48.511  1.00  0.00    -0.246 NA
HETATM    6  C6  UNL     1      32.752   5.711  48.357  1.00  0.00     0.227 A 
HETATM    7  N3  UNL     1      32.268   4.446  48.231  1.00  0.00    -0.265 NA
HETATM    8  C7  UNL     1      31.289   5.473  48.426  1.00  0.00     0.170 A 
HETATM    9  C8  UNL     1      30.654   6.661  48.612  1.00  0.00     0.039 A 
HETATM   10  C9  UNL     1      29.338   7.023  48.741  1.00  0.00     0.084 A 
ENDROOT
BRANCH  10  11
HETATM   11  N4  UNL     1      28.442   5.968  48.691  1.00  0.00    -0.363 N 
HETATM   12  H5  UNL     1      28.875   5.485  49.537  1.00  0.00     0.165 HD
BRANCH  11  13
HETATM   13  C10 UNL     1      27.540   4.926  48.625  1.00  0.00     0.088 C 
HETATM   14  C11 UNL     1      26.643   4.615  49.574  1.00  0.00     0.017 C 
BRANCH  14  15
HETATM   15  C12 UNL     1      25.763   3.484  49.362  1.00  0.00    -0.003 C 
HETATM   16  C13 UNL     1      24.478   3.676  49.429  1.00  0.00    -0.031 C 
HETATM   17  C14 UNL     1      23.883   5.014  49.714  1.00  0.00     0.036 C 
ENDBRANCH  14  15
ENDBRANCH  11  13
ENDBRANCH  10  11
BRANCH   1  18
HETATM   18  S1  UNL     1      27.231   8.700  49.051  1.00  0.00     0.200 S 
HETATM   19  O1  UNL     1      27.128  10.175  49.469  1.00  0.00    -0.221 OA
HETATM   20  O2  UNL     1      26.512   7.926  50.105  1.00  0.00    -0.221 OA
BRANCH  18  21
HETATM   21  C2  UNL     1      26.407   8.596  47.493  1.00  0.00     0.134 C 
HETATM   22  C1  UNL     1      25.388   7.738  47.585  1.00  0.00     0.023 C 
ENDBRANCH  18  21
ENDBRANCH   1  18
TORSDOF 5
ENDMDL
MODEL 9
REMARK VINA RESULT:      -5.8      3.794      5.687
REMARK  5 active torsions:
REMARK  status: ('A' for Active; 'I' for Inactive)
REMARK    1  A    between atoms: C2_2  and  S1_3 
REMARK    2  A    between atoms: S1_3  and  C3_6 
REMARK    3  A    between atoms: C9_15  and  N4_16 
REMARK    4  A    between atoms: N4_16  and  C10_17 
REMARK    5  A    between atoms: C11_18  and  C12_19 
ROOT
HETATM    1  C3  UNL     1      20.143   0.249  52.306  1.00  0.00     0.178 A 
HETATM    2  N1  UNL     1      19.504  -0.542  53.236  1.00  0.00    -0.245 NA
HETATM    3  C4  UNL     1      20.217  -1.165  54.189  1.00  0.00     0.150 A 
HETATM    4  C5  UNL     1      21.578  -1.114  54.377  1.00  0.00     0.083 A 
HETATM    5  N2  UNL     1      22.413  -1.662  55.263  1.00  0.00    -0.246 NA
HETATM    6  C6  UNL     1      23.684  -1.258  54.969  1.00  0.00     0.227 A 
HETATM    7  N3  UNL     1      24.782  -0.676  54.416  1.00  0.00    -0.265 NA
HETATM    8  C7  UNL     1      23.533  -0.384  53.780  1.00  0.00     0.170 A 
HETATM    9  C8  UNL     1      22.217  -0.319  53.442  1.00  0.00     0.039 A 
HETATM   10  C9  UNL     1      21.523   0.330  52.453  1.00  0.00     0.084 A 
ENDROOT
BRANCH  10  11
HETATM   11  N4  UNL     1      22.310   1.073  51.588  1.00  0.00    -0.363 N 
HETATM   12  H5  UNL     1      22.970   1.385  52.366  1.00  0.00     0.165 HD
BRANCH  11  13
HETATM   13  C10 UNL     1      23.083   1.806  50.712  1.00  0.00     0.088 C 
HETATM   14  C11 UNL     1      23.931   2.787  51.058  1.00  0.00     0.017 C 
BRANCH  14  15
HETATM   15  C12 UNL     1      24.673   3.471  50.018  1.00  0.00    -0.003 C 
HETATM   16  C13 UNL     1      25.971   3.385  50.022  1.00  0.00    -0.031 C 
HETATM   17  C14 UNL     1      26.718   2.610  51.055  1.00  0.00     0.036 C 
ENDBRANCH  14  15
ENDBRANCH  11  13
ENDBRANCH  10  11
BRANCH   1  18
HETATM   18  S1  UNL     1      19.351   1.124  51.040  1.00  0.00     0.200 S 
HETATM   19  O1  UNL     1      17.930   0.549  50.927  1.00  0.00    -0.221 OA
HETATM   20  O2  UNL     1      19.969   0.952  49.692  1.00  0.00    -0.221 OA
BRANCH  18  21
HETATM   21  C2  UNL     1      19.135   2.829  51.443  1.00  0.00     0.134 C 
HETATM   22  C1  UNL     1      17.832   3.118  51.470  1.00  0.00     0.023 C 
ENDBRANCH  18  21
ENDBRANCH   1  18
TORSDOF 5
ENDMDL
