MODEL 1
REMARK VINA RESULT:      -9.4      0.000      0.000
REMARK  5 active torsions:
REMARK  status: ('A' for Active; 'I' for Inactive)
REMARK    1  A    between atoms: O1_2  and  C2_3 
REMARK    2  A    between atoms: C10_12  and  C11_13 
REMARK    3  A    between atoms: C11_13  and  C12_14 
REMARK    4  A    between atoms: C14_17  and  N2_18 
REMARK    5  A    between atoms: C15_20  and  N4_21 
ROOT
HETATM    1  C2  UNL     1      18.863  -0.172  52.329  1.00  0.00     0.067 C 
HETATM    2  C3  UNL     1      19.684   0.510  51.445  1.00  0.00     0.134 C 
HETATM    3  C4  UNL     1      19.270   0.970  50.064  1.00  0.00    -0.020 C 
HETATM    4  C5  UNL     1      20.255   1.621  49.403  1.00  0.00    -0.004 C 
HETATM    5  C6  UNL     1      21.552   2.252  49.048  1.00  0.00     0.203 C 
HETATM    6  O2  UNL     1      22.539   2.235  49.917  1.00  0.00    -0.345 OA
HETATM    7  C7  UNL     1      23.485   2.136  50.749  1.00  0.00     0.102 A 
HETATM    8  C8  UNL     1      24.704   2.706  50.358  1.00  0.00     0.040 A 
HETATM    9  C9  UNL     1      25.860   2.701  51.135  1.00  0.00     0.010 A 
HETATM   10  C10 UNL     1      25.703   2.071  52.356  1.00  0.00    -0.051 A 
HETATM   11  C16 UNL     1      24.528   1.484  52.814  1.00  0.00     0.047 A 
HETATM   12  C17 UNL     1      23.416   1.541  51.956  1.00  0.00     0.102 A 
HETATM   13  O3  UNL     1      22.249   0.946  52.435  1.00  0.00    -0.345 OA
HETATM   14  C18 UNL     1      22.191   0.362  53.721  1.00  0.00     0.203 C 
HETATM   15  C19 UNL     1      20.927  -0.242  54.102  1.00  0.00    -0.002 C 
HETATM   16  C20 UNL     1      19.709  -0.411  53.537  1.00  0.00     0.004 C 
ENDROOT
BRANCH  10  17
HETATM   17  C11 UNL     1      26.846   1.987  53.293  1.00  0.00     0.082 C 
BRANCH  17  18
HETATM   18  C12 UNL     1      27.502   0.657  53.317  1.00  0.00     0.010 A 
HETATM   19  C13 UNL     1      26.719  -0.442  52.973  1.00  0.00     0.147 A 
HETATM   20  N1  UNL     1      27.221  -1.686  52.965  1.00  0.00    -0.075 NA
HETATM   21  C14 UNL     1      28.517  -1.935  53.292  1.00  0.00     0.721 A 
HETATM   22  N3  UNL     1      29.286  -0.883  53.627  1.00  0.00    -0.045 NA
HETATM   23  C15 UNL     1      28.809   0.382  53.644  1.00  0.00     0.148 A 
BRANCH  21  24
HETATM   24  N2  UNL     1      29.003  -3.272  53.268  1.00  0.00    -0.231 N 
HETATM   25  H14 UNL     1      28.346  -3.933  53.771  1.00  0.00     0.174 HD
HETATM   26  H15 UNL     1      29.903  -3.182  52.733  1.00  0.00     0.174 HD
ENDBRANCH  21  24
BRANCH  23  27
HETATM   27  N4  UNL     1      29.625   1.473  53.995  1.00  0.00    -0.383 N 
HETATM   28  H16 UNL     1      30.290   1.304  54.801  1.00  0.00     0.157 HD
HETATM   29  H17 UNL     1      29.759   2.469  53.648  1.00  0.00     0.157 HD
ENDBRANCH  23  27
ENDBRANCH  17  18
ENDBRANCH  10  17
BRANCH   1  30
HETATM   30  O1  UNL     1      17.615  -0.791  52.728  1.00  0.00    -0.386 OA
HETATM   31  C1  UNL     1      17.675  -2.061  53.370  1.00  0.00     0.202 C 
ENDBRANCH   1  30
TORSDOF 5
ENDMDL
MODEL 2
REMARK VINA RESULT:      -9.0      3.717      6.989
REMARK  5 active torsions:
REMARK  status: ('A' for Active; 'I' for Inactive)
REMARK    1  A    between atoms: O1_2  and  C2_3 
REMARK    2  A    between atoms: C10_12  and  C11_13 
REMARK    3  A    between atoms: C11_13  and  C12_14 
REMARK    4  A    between atoms: C14_17  and  N2_18 
REMARK    5  A    between atoms: C15_20  and  N4_21 
ROOT
HETATM    1  C2  UNL     1      26.278   6.479  49.045  1.00  0.00     0.067 C 
HETATM    2  C3  UNL     1      25.044   6.483  49.679  1.00  0.00     0.134 C 
HETATM    3  C4  UNL     1      24.230   7.725  49.972  1.00  0.00    -0.020 C 
HETATM    4  C5  UNL     1      23.059   7.457  50.594  1.00  0.00    -0.004 C 
HETATM    5  C6  UNL     1      21.920   6.753  51.238  1.00  0.00     0.203 C 
HETATM    6  O2  UNL     1      21.944   5.443  51.344  1.00  0.00    -0.345 OA
HETATM    7  C7  UNL     1      22.038   4.191  51.490  1.00  0.00     0.102 A 
HETATM    8  C8  UNL     1      20.963   3.572  52.142  1.00  0.00     0.040 A 
HETATM    9  C9  UNL     1      20.879   2.205  52.396  1.00  0.00     0.010 A 
HETATM   10  C10 UNL     1      21.972   1.490  51.942  1.00  0.00    -0.051 A 
HETATM   11  C16 UNL     1      23.074   2.032  51.288  1.00  0.00     0.047 A 
HETATM   12  C17 UNL     1      23.065   3.422  51.079  1.00  0.00     0.102 A 
HETATM   13  O3  UNL     1      24.178   3.944  50.423  1.00  0.00    -0.345 OA
HETATM   14  C18 UNL     1      25.225   3.110  49.965  1.00  0.00     0.203 C 
HETATM   15  C19 UNL     1      26.340   3.771  49.311  1.00  0.00    -0.002 C 
HETATM   16  C20 UNL     1      26.681   5.042  48.993  1.00  0.00     0.004 C 
ENDROOT
BRANCH  10  17
HETATM   17  C11 UNL     1      22.026   0.024  52.140  1.00  0.00     0.082 C 
BRANCH  17  18
HETATM   18  C12 UNL     1      22.767  -0.388  53.357  1.00  0.00     0.010 A 
HETATM   19  C13 UNL     1      24.154  -0.269  53.324  1.00  0.00     0.147 A 
HETATM   20  N1  UNL     1      24.913  -0.616  54.375  1.00  0.00    -0.075 NA
HETATM   21  C14 UNL     1      24.366  -1.099  55.522  1.00  0.00     0.721 A 
HETATM   22  N3  UNL     1      23.027  -1.220  55.568  1.00  0.00    -0.045 NA
HETATM   23  C15 UNL     1      22.236  -0.878  54.527  1.00  0.00     0.148 A 
BRANCH  21  24
HETATM   24  N2  UNL     1      25.213  -1.453  56.610  1.00  0.00    -0.231 N 
HETATM   25  H14 UNL     1      25.635  -2.414  56.475  1.00  0.00     0.174 HD
HETATM   26  H15 UNL     1      25.152  -0.609  57.234  1.00  0.00     0.174 HD
ENDBRANCH  21  24
BRANCH  23  27
HETATM   27  N4  UNL     1      20.836  -1.008  54.589  1.00  0.00    -0.383 N 
HETATM   28  H16 UNL     1      20.320  -0.186  55.010  1.00  0.00     0.157 HD
HETATM   29  H17 UNL     1      20.125  -1.748  54.310  1.00  0.00     0.157 HD
ENDBRANCH  23  27
ENDBRANCH  17  18
ENDBRANCH  10  17
BRANCH   1  30
HETATM   30  O1  UNL     1      27.407   7.115  48.399  1.00  0.00    -0.386 OA
HETATM   31  C1  UNL     1      27.969   8.268  49.020  1.00  0.00     0.202 C 
ENDBRANCH   1  30
TORSDOF 5
ENDMDL
MODEL 3
REMARK VINA RESULT:      -8.9      4.431      6.481
REMARK  5 active torsions:
REMARK  status: ('A' for Active; 'I' for Inactive)
REMARK    1  A    between atoms: O1_2  and  C2_3 
REMARK    2  A    between atoms: C10_12  and  C11_13 
REMARK    3  A    between atoms: C11_13  and  C12_14 
REMARK    4  A    between atoms: C14_17  and  N2_18 
REMARK    5  A    between atoms: C15_20  and  N4_21 
ROOT
HETATM    1  C2  UNL     1      21.304   0.604  53.461  1.00  0.00     0.067 C 
HETATM    2  C3  UNL     1      22.640   0.596  53.088  1.00  0.00     0.134 C 
HETATM    3  C4  UNL     1      23.654  -0.434  53.540  1.00  0.00    -0.020 C 
HETATM    4  C5  UNL     1      24.889  -0.223  53.029  1.00  0.00    -0.004 C 
HETATM    5  C6  UNL     1      26.038   0.346  52.279  1.00  0.00     0.203 C 
HETATM    6  O2  UNL     1      25.863   1.420  51.541  1.00  0.00    -0.345 OA
HETATM    7  C7  UNL     1      25.671   2.493  50.901  1.00  0.00     0.102 A 
HETATM    8  C8  UNL     1      26.791   3.020  50.245  1.00  0.00     0.040 A 
HETATM    9  C9  UNL     1      26.782   4.190  49.489  1.00  0.00     0.010 A 
HETATM   10  C10 UNL     1      25.545   4.806  49.438  1.00  0.00    -0.051 A 
HETATM   11  C16 UNL     1      24.389   4.345  50.061  1.00  0.00     0.047 A 
HETATM   12  C17 UNL     1      24.501   3.155  50.801  1.00  0.00     0.102 A 
HETATM   13  O3  UNL     1      23.332   2.711  51.418  1.00  0.00    -0.345 OA
HETATM   14  C18 UNL     1      22.108   3.403  51.265  1.00  0.00     0.203 C 
HETATM   15  C19 UNL     1      20.963   2.854  51.969  1.00  0.00    -0.002 C 
HETATM   16  C20 UNL     1      20.720   1.798  52.780  1.00  0.00     0.004 C 
ENDROOT
BRANCH  10  17
HETATM   17  C11 UNL     1      25.379   6.060  48.671  1.00  0.00     0.082 C 
BRANCH  17  18
HETATM   18  C12 UNL     1      26.323   7.133  49.067  1.00  0.00     0.010 A 
HETATM   19  C13 UNL     1      27.488   7.261  48.314  1.00  0.00     0.147 A 
HETATM   20  N1  UNL     1      28.404   8.202  48.593  1.00  0.00    -0.075 NA
HETATM   21  C14 UNL     1      28.240   9.074  49.623  1.00  0.00     0.721 A 
HETATM   22  N3  UNL     1      27.119   8.962  50.359  1.00  0.00    -0.045 NA
HETATM   23  C15 UNL     1      26.178   8.026  50.102  1.00  0.00     0.148 A 
BRANCH  21  24
HETATM   24  N2  UNL     1      29.239  10.054  49.879  1.00  0.00    -0.231 N 
HETATM   25  H14 UNL     1      30.023   9.662  50.473  1.00  0.00     0.174 HD
HETATM   26  H15 UNL     1      28.871  10.898  49.373  1.00  0.00     0.174 HD
ENDBRANCH  21  24
BRANCH  23  27
HETATM   27  N4  UNL     1      25.011   7.921  50.880  1.00  0.00    -0.383 N 
HETATM   28  H16 UNL     1      24.287   7.235  50.526  1.00  0.00     0.157 HD
HETATM   29  H17 UNL     1      24.646   8.368  51.773  1.00  0.00     0.157 HD
ENDBRANCH  23  27
ENDBRANCH  17  18
ENDBRANCH  10  17
BRANCH   1  30
HETATM   30  O1  UNL     1      20.149   0.083  54.163  1.00  0.00    -0.386 OA
HETATM   31  C1  UNL     1      19.250  -0.753  53.440  1.00  0.00     0.202 C 
ENDBRANCH   1  30
TORSDOF 5
ENDMDL
MODEL 4
REMARK VINA RESULT:      -8.9      1.859      3.790
REMARK  5 active torsions:
REMARK  status: ('A' for Active; 'I' for Inactive)
REMARK    1  A    between atoms: O1_2  and  C2_3 
REMARK    2  A    between atoms: C10_12  and  C11_13 
REMARK    3  A    between atoms: C11_13  and  C12_14 
REMARK    4  A    between atoms: C14_17  and  N2_18 
REMARK    5  A    between atoms: C15_20  and  N4_21 
ROOT
HETATM    1  C2  UNL     1      17.192   0.979  50.025  1.00  0.00     0.067 C 
HETATM    2  C3  UNL     1      17.679   0.240  51.091  1.00  0.00     0.134 C 
HETATM    3  C4  UNL     1      16.846  -0.691  51.947  1.00  0.00    -0.020 C 
HETATM    4  C5  UNL     1      17.561  -1.301  52.920  1.00  0.00    -0.004 C 
HETATM    5  C6  UNL     1      18.670  -1.737  53.807  1.00  0.00     0.203 C 
HETATM    6  O2  UNL     1      19.881  -1.261  53.614  1.00  0.00    -0.345 OA
HETATM    7  C7  UNL     1      21.013  -0.727  53.442  1.00  0.00     0.102 A 
HETATM    8  C8  UNL     1      22.019  -1.132  54.328  1.00  0.00     0.040 A 
HETATM    9  C9  UNL     1      23.330  -0.661  54.299  1.00  0.00     0.010 A 
HETATM   10  C10 UNL     1      23.563   0.265  53.300  1.00  0.00    -0.051 A 
HETATM   11  C16 UNL     1      22.617   0.717  52.384  1.00  0.00     0.047 A 
HETATM   12  C17 UNL     1      21.322   0.181  52.495  1.00  0.00     0.102 A 
HETATM   13  O3  UNL     1      20.391   0.647  51.568  1.00  0.00    -0.345 OA
HETATM   14  C18 UNL     1      20.751   1.570  50.559  1.00  0.00     0.203 C 
HETATM   15  C19 UNL     1      19.691   1.995  49.663  1.00  0.00    -0.002 C 
HETATM   16  C20 UNL     1      18.371   1.739  49.510  1.00  0.00     0.004 C 
ENDROOT
BRANCH  10  17
HETATM   17  C11 UNL     1      24.911   0.857  53.144  1.00  0.00     0.082 C 
BRANCH  17  18
HETATM   18  C12 UNL     1      26.012  -0.133  53.233  1.00  0.00     0.010 A 
HETATM   19  C13 UNL     1      25.959  -1.220  52.364  1.00  0.00     0.147 A 
HETATM   20  N1  UNL     1      26.908  -2.168  52.369  1.00  0.00    -0.075 NA
HETATM   21  C14 UNL     1      27.967  -2.114  53.220  1.00  0.00     0.721 A 
HETATM   22  N3  UNL     1      28.032  -1.069  54.065  1.00  0.00    -0.045 NA
HETATM   23  C15 UNL     1      27.091  -0.098  54.084  1.00  0.00     0.148 A 
BRANCH  21  24
HETATM   24  N2  UNL     1      28.948  -3.144  53.186  1.00  0.00    -0.231 N 
HETATM   25  H14 UNL     1      29.683  -2.955  52.447  1.00  0.00     0.174 HD
HETATM   26  H15 UNL     1      28.623  -3.799  53.941  1.00  0.00     0.174 HD
ENDBRANCH  21  24
BRANCH  23  27
HETATM   27  N4  UNL     1      27.172   0.989  54.973  1.00  0.00    -0.383 N 
HETATM   28  H16 UNL     1      26.369   1.677  54.927  1.00  0.00     0.157 HD
HETATM   29  H17 UNL     1      27.857   1.318  55.717  1.00  0.00     0.157 HD
ENDBRANCH  23  27
ENDBRANCH  17  18
ENDBRANCH  10  17
BRANCH   1  30
HETATM   30  O1  UNL     1      16.149   1.428  49.125  1.00  0.00    -0.386 OA
HETATM   31  C1  UNL     1      15.011   2.073  49.689  1.00  0.00     0.202 C 
ENDBRANCH   1  30
TORSDOF 5
ENDMDL
MODEL 5
REMARK VINA RESULT:      -8.8      3.999      5.754
REMARK  5 active torsions:
REMARK  status: ('A' for Active; 'I' for Inactive)
REMARK    1  A    between atoms: O1_2  and  C2_3 
REMARK    2  A    between atoms: C10_12  and  C11_13 
REMARK    3  A    between atoms: C11_13  and  C12_14 
REMARK    4  A    between atoms: C14_17  and  N2_18 
REMARK    5  A    between atoms: C15_20  and  N4_21 
ROOT
HETATM    1  C2  UNL     1      18.986  -1.101  53.395  1.00  0.00     0.067 C 
HETATM    2  C3  UNL     1      20.351  -0.919  53.563  1.00  0.00     0.134 C 
HETATM    3  C4  UNL     1      21.187  -1.600  54.625  1.00  0.00    -0.020 C 
HETATM    4  C5  UNL     1      22.494  -1.258  54.572  1.00  0.00    -0.004 C 
HETATM    5  C6  UNL     1      23.787  -0.642  54.177  1.00  0.00     0.203 C 
HETATM    6  O2  UNL     1      23.824   0.191  53.161  1.00  0.00    -0.345 OA
HETATM    7  C7  UNL     1      23.806   1.040  52.225  1.00  0.00     0.102 A 
HETATM    8  C8  UNL     1      25.038   1.631  51.913  1.00  0.00     0.040 A 
HETATM    9  C9  UNL     1      25.224   2.585  50.916  1.00  0.00     0.010 A 
HETATM   10  C10 UNL     1      24.063   2.912  50.241  1.00  0.00    -0.051 A 
HETATM   11  C16 UNL     1      22.805   2.371  50.491  1.00  0.00     0.047 A 
HETATM   12  C17 UNL     1      22.721   1.415  51.518  1.00  0.00     0.102 A 
HETATM   13  O3  UNL     1      21.453   0.886  51.753  1.00  0.00    -0.345 OA
HETATM   14  C18 UNL     1      20.337   1.266  50.972  1.00  0.00     0.203 C 
HETATM   15  C19 UNL     1      19.065   0.660  51.322  1.00  0.00    -0.002 C 
HETATM   16  C20 UNL     1      18.618  -0.224  52.243  1.00  0.00     0.004 C 
ENDROOT
BRANCH  10  17
HETATM   17  C11 UNL     1      24.102   3.913  49.151  1.00  0.00     0.082 C 
BRANCH  17  18
HETATM   18  C12 UNL     1      24.731   5.198  49.542  1.00  0.00     0.010 A 
HETATM   19  C13 UNL     1      25.998   5.464  49.029  1.00  0.00     0.147 A 
HETATM   20  N1  UNL     1      26.650   6.600  49.325  1.00  0.00    -0.075 NA
HETATM   21  C14 UNL     1      26.106   7.544  50.137  1.00  0.00     0.721 A 
HETATM   22  N3  UNL     1      24.882   7.301  50.639  1.00  0.00    -0.045 NA
HETATM   23  C15 UNL     1      24.201   6.167  50.360  1.00  0.00     0.148 A 
BRANCH  21  24
HETATM   24  N2  UNL     1      26.837   8.732  50.420  1.00  0.00    -0.231 N 
HETATM   25  H14 UNL     1      26.224   9.464  50.877  1.00  0.00     0.174 HD
HETATM   26  H15 UNL     1      27.801   8.499  50.071  1.00  0.00     0.174 HD
ENDBRANCH  21  24
BRANCH  23  27
HETATM   27  N4  UNL     1      22.921   5.926  50.892  1.00  0.00    -0.383 N 
HETATM   28  H16 UNL     1      22.887   5.739  51.933  1.00  0.00     0.157 HD
HETATM   29  H17 UNL     1      21.930   5.884  50.508  1.00  0.00     0.157 HD
ENDBRANCH  23  27
ENDBRANCH  17  18
ENDBRANCH  10  17
BRANCH   1  30
HETATM   30  O1  UNL     1      17.703  -1.683  53.732  1.00  0.00    -0.386 OA
HETATM   31  C1  UNL     1      17.521  -3.077  53.501  1.00  0.00     0.202 C 
ENDBRANCH   1  30
TORSDOF 5
ENDMDL
MODEL 6
REMARK VINA RESULT:      -8.7      2.821      6.000
REMARK  5 active torsions:
REMARK  status: ('A' for Active; 'I' for Inactive)
REMARK    1  A    between atoms: O1_2  and  C2_3 
REMARK    2  A    between atoms: C10_12  and  C11_13 
REMARK    3  A    between atoms: C11_13  and  C12_14 
REMARK    4  A    between atoms: C14_17  and  N2_18 
REMARK    5  A    between atoms: C15_20  and  N4_21 
ROOT
HETATM    1  C2  UNL     1      25.599   6.315  48.558  1.00  0.00     0.067 C 
HETATM    2  C3  UNL     1      24.469   5.901  49.247  1.00  0.00     0.134 C 
HETATM    3  C4  UNL     1      23.162   6.664  49.296  1.00  0.00    -0.020 C 
HETATM    4  C5  UNL     1      22.212   6.042  50.031  1.00  0.00    -0.004 C 
HETATM    5  C6  UNL     1      21.490   5.065  50.887  1.00  0.00     0.203 C 
HETATM    6  O2  UNL     1      22.106   3.975  51.288  1.00  0.00    -0.345 OA
HETATM    7  C7  UNL     1      22.754   2.977  51.712  1.00  0.00     0.102 A 
HETATM    8  C8  UNL     1      22.049   2.104  52.551  1.00  0.00     0.040 A 
HETATM    9  C9  UNL     1      22.587   0.950  53.117  1.00  0.00     0.010 A 
HETATM   10  C10 UNL     1      23.908   0.731  52.775  1.00  0.00    -0.051 A 
HETATM   11  C16 UNL     1      24.673   1.549  51.949  1.00  0.00     0.047 A 
HETATM   12  C17 UNL     1      24.040   2.690  51.427  1.00  0.00     0.102 A 
HETATM   13  O3  UNL     1      24.824   3.496  50.603  1.00  0.00    -0.345 OA
HETATM   14  C18 UNL     1      26.159   3.153  50.287  1.00  0.00     0.203 C 
HETATM   15  C19 UNL     1      26.880   4.079  49.433  1.00  0.00    -0.002 C 
HETATM   16  C20 UNL     1      26.618   5.252  48.812  1.00  0.00     0.004 C 
ENDROOT
BRANCH  10  17
HETATM   17  C11 UNL     1      24.617  -0.458  53.300  1.00  0.00     0.082 C 
BRANCH  17  18
HETATM   18  C12 UNL     1      26.082  -0.270  53.433  1.00  0.00     0.010 A 
HETATM   19  C13 UNL     1      26.515   0.828  54.173  1.00  0.00     0.147 A 
HETATM   20  N1  UNL     1      27.820   1.083  54.351  1.00  0.00    -0.075 NA
HETATM   21  C14 UNL     1      28.783   0.283  53.820  1.00  0.00     0.721 A 
HETATM   22  N3  UNL     1      28.380  -0.781  53.103  1.00  0.00    -0.045 NA
HETATM   23  C15 UNL     1      27.073  -1.065  52.906  1.00  0.00     0.148 A 
BRANCH  21  24
HETATM   24  N2  UNL     1      30.154   0.596  54.037  1.00  0.00    -0.231 N 
HETATM   25  H14 UNL     1      30.524   1.255  53.296  1.00  0.00     0.174 HD
HETATM   26  H15 UNL     1      30.381   0.051  54.907  1.00  0.00     0.174 HD
ENDBRANCH  21  24
BRANCH  23  27
HETATM   27  N4  UNL     1      26.665  -2.182  52.155  1.00  0.00    -0.383 N 
HETATM   28  H16 UNL     1      26.859  -2.130  51.116  1.00  0.00     0.157 HD
HETATM   29  H17 UNL     1      26.194  -3.113  52.365  1.00  0.00     0.157 HD
ENDBRANCH  23  27
ENDBRANCH  17  18
ENDBRANCH  10  17
BRANCH   1  30
HETATM   30  O1  UNL     1      26.344   7.229  47.716  1.00  0.00    -0.386 OA
HETATM   31  C1  UNL     1      25.615   8.039  46.800  1.00  0.00     0.202 C 
ENDBRANCH   1  30
TORSDOF 5
ENDMDL
MODEL 7
REMARK VINA RESULT:      -8.6      4.379      7.399
REMARK  5 active torsions:
REMARK  status: ('A' for Active; 'I' for Inactive)
REMARK    1  A    between atoms: O1_2  and  C2_3 
REMARK    2  A    between atoms: C10_12  and  C11_13 
REMARK    3  A    between atoms: C11_13  and  C12_14 
REMARK    4  A    between atoms: C14_17  and  N2_18 
REMARK    5  A    between atoms: C15_20  and  N4_21 
ROOT
HETATM    1  C2  UNL     1      26.294  -0.014  53.512  1.00  0.00     0.067 C 
HETATM    2  C3  UNL     1      25.020   0.239  53.029  1.00  0.00     0.134 C 
HETATM    3  C4  UNL     1      23.789  -0.569  53.381  1.00  0.00    -0.020 C 
HETATM    4  C5  UNL     1      22.664  -0.112  52.783  1.00  0.00    -0.004 C 
HETATM    5  C6  UNL     1      21.713   0.683  51.965  1.00  0.00     0.203 C 
HETATM    6  O2  UNL     1      22.152   1.715  51.278  1.00  0.00    -0.345 OA
HETATM    7  C7  UNL     1      22.626   2.653  50.577  1.00  0.00     0.102 A 
HETATM    8  C8  UNL     1      21.701   3.349  49.787  1.00  0.00     0.040 A 
HETATM    9  C9  UNL     1      22.026   4.414  48.949  1.00  0.00     0.010 A 
HETATM   10  C10 UNL     1      23.371   4.735  48.959  1.00  0.00    -0.051 A 
HETATM   11  C16 UNL     1      24.347   4.092  49.715  1.00  0.00     0.047 A 
HETATM   12  C17 UNL     1      23.919   3.030  50.530  1.00  0.00     0.102 A 
HETATM   13  O3  UNL     1      24.912   2.400  51.277  1.00  0.00    -0.345 OA
HETATM   14  C18 UNL     1      26.256   2.839  51.241  1.00  0.00     0.203 C 
HETATM   15  C19 UNL     1      27.203   2.094  52.049  1.00  0.00    -0.002 C 
HETATM   16  C20 UNL     1      27.160   1.029  52.884  1.00  0.00     0.004 C 
ENDROOT
BRANCH  10  17
HETATM   17  C11 UNL     1      23.869   5.847  48.118  1.00  0.00     0.082 C 
BRANCH  17  18
HETATM   18  C12 UNL     1      24.755   6.792  48.839  1.00  0.00     0.010 A 
HETATM   19  C13 UNL     1      26.125   6.660  48.630  1.00  0.00     0.147 A 
HETATM   20  N1  UNL     1      27.008   7.468  49.237  1.00  0.00    -0.075 NA
HETATM   21  C14 UNL     1      26.609   8.454  50.084  1.00  0.00     0.721 A 
HETATM   22  N3  UNL     1      25.288   8.593  50.296  1.00  0.00    -0.045 NA
HETATM   23  C15 UNL     1      24.374   7.795  49.699  1.00  0.00     0.148 A 
BRANCH  21  24
HETATM   24  N2  UNL     1      27.584   9.285  50.703  1.00  0.00    -0.231 N 
HETATM   25  H14 UNL     1      27.361   9.450  51.725  1.00  0.00     0.174 HD
HETATM   26  H15 UNL     1      28.253   9.483  49.917  1.00  0.00     0.174 HD
ENDBRANCH  21  24
BRANCH  23  27
HETATM   27  N4  UNL     1      22.995   7.953  49.928  1.00  0.00    -0.383 N 
HETATM   28  H16 UNL     1      22.482   8.555  49.225  1.00  0.00     0.157 HD
HETATM   29  H17 UNL     1      22.298   7.609  50.654  1.00  0.00     0.157 HD
ENDBRANCH  23  27
ENDBRANCH  17  18
ENDBRANCH  10  17
BRANCH   1  30
HETATM   30  O1  UNL     1      27.261  -0.749  54.301  1.00  0.00    -0.386 OA
HETATM   31  C1  UNL     1      28.465  -0.083  54.672  1.00  0.00     0.202 C 
ENDBRANCH   1  30
TORSDOF 5
ENDMDL
MODEL 8
REMARK VINA RESULT:      -8.6      4.116      7.493
REMARK  5 active torsions:
REMARK  status: ('A' for Active; 'I' for Inactive)
REMARK    1  A    between atoms: O1_2  and  C2_3 
REMARK    2  A    between atoms: C10_12  and  C11_13 
REMARK    3  A    between atoms: C11_13  and  C12_14 
REMARK    4  A    between atoms: C14_17  and  N2_18 
REMARK    5  A    between atoms: C15_20  and  N4_21 
ROOT
HETATM    1  C2  UNL     1      27.708   7.620  48.313  1.00  0.00     0.067 C 
HETATM    2  C3  UNL     1      26.551   7.578  49.076  1.00  0.00     0.134 C 
HETATM    3  C4  UNL     1      25.733   8.791  49.467  1.00  0.00    -0.020 C 
HETATM    4  C5  UNL     1      24.645   8.480  50.209  1.00  0.00    -0.004 C 
HETATM    5  C6  UNL     1      23.607   7.735  50.965  1.00  0.00     0.203 C 
HETATM    6  O2  UNL     1      23.685   6.425  51.055  1.00  0.00    -0.345 OA
HETATM    7  C7  UNL     1      23.835   5.177  51.180  1.00  0.00     0.102 A 
HETATM    8  C8  UNL     1      22.857   4.518  51.937  1.00  0.00     0.040 A 
HETATM    9  C9  UNL     1      22.846   3.147  52.187  1.00  0.00     0.010 A 
HETATM   10  C10 UNL     1      23.907   2.472  51.611  1.00  0.00    -0.051 A 
HETATM   11  C16 UNL     1      24.914   3.055  50.847  1.00  0.00     0.047 A 
HETATM   12  C17 UNL     1      24.836   4.445  50.653  1.00  0.00     0.102 A 
HETATM   13  O3  UNL     1      25.854   5.008  49.885  1.00  0.00    -0.345 OA
HETATM   14  C18 UNL     1      26.873   4.212  49.310  1.00  0.00     0.203 C 
HETATM   15  C19 UNL     1      27.888   4.914  48.546  1.00  0.00    -0.002 C 
HETATM   16  C20 UNL     1      28.151   6.197  48.204  1.00  0.00     0.004 C 
ENDROOT
BRANCH  10  17
HETATM   17  C11 UNL     1      24.030   1.008  51.789  1.00  0.00     0.082 C 
BRANCH  17  18
HETATM   18  C12 UNL     1      25.141   0.606  52.684  1.00  0.00     0.010 A 
HETATM   19  C13 UNL     1      26.421   1.030  52.336  1.00  0.00     0.147 A 
HETATM   20  N1  UNL     1      27.492   0.717  53.082  1.00  0.00    -0.075 NA
HETATM   21  C14 UNL     1      27.380  -0.027  54.214  1.00  0.00     0.721 A 
HETATM   22  N3  UNL     1      26.149  -0.445  54.563  1.00  0.00    -0.045 NA
HETATM   23  C15 UNL     1      25.052  -0.146  53.832  1.00  0.00     0.148 A 
BRANCH  21  24
HETATM   24  N2  UNL     1      28.545  -0.332  54.972  1.00  0.00    -0.231 N 
HETATM   25  H14 UNL     1      29.178  -1.004  54.455  1.00  0.00     0.174 HD
HETATM   26  H15 UNL     1      28.406   0.234  55.847  1.00  0.00     0.174 HD
ENDBRANCH  21  24
BRANCH  23  27
HETATM   27  N4  UNL     1      23.771  -0.588  54.210  1.00  0.00    -0.383 N 
HETATM   28  H16 UNL     1      22.961  -0.090  53.746  1.00  0.00     0.157 HD
HETATM   29  H17 UNL     1      23.382  -1.328  54.868  1.00  0.00     0.157 HD
ENDBRANCH  23  27
ENDBRANCH  17  18
ENDBRANCH  10  17
BRANCH   1  30
HETATM   30  O1  UNL     1      28.740   8.297  47.555  1.00  0.00    -0.386 OA
HETATM   31  C1  UNL     1      29.330   9.463  48.123  1.00  0.00     0.202 C 
ENDBRANCH   1  30
TORSDOF 5
ENDMDL
MODEL 9
REMARK VINA RESULT:      -8.6      2.541      5.246
REMARK  5 active torsions:
REMARK  status: ('A' for Active; 'I' for Inactive)
REMARK    1  A    between atoms: O1_2  and  C2_3 
REMARK    2  A    between atoms: C10_12  and  C11_13 
REMARK    3  A    between atoms: C11_13  and  C12_14 
REMARK    4  A    between atoms: C14_17  and  N2_18 
REMARK    5  A    between atoms: C15_20  and  N4_21 
ROOT
HETATM    1  C2  UNL     1      22.558   6.017  48.988  1.00  0.00     0.067 C 
HETATM    2  C3  UNL     1      21.905   5.174  49.874  1.00  0.00     0.134 C 
HETATM    3  C4  UNL     1      20.474   5.352  50.336  1.00  0.00    -0.020 C 
HETATM    4  C5  UNL     1      20.071   4.389  51.198  1.00  0.00    -0.004 C 
HETATM    5  C6  UNL     1      20.037   3.191  52.074  1.00  0.00     0.203 C 
HETATM    6  O2  UNL     1      21.104   2.429  52.174  1.00  0.00    -0.345 OA
HETATM    7  C7  UNL     1      22.172   1.764  52.298  1.00  0.00     0.102 A 
HETATM    8  C8  UNL     1      22.109   0.668  53.168  1.00  0.00     0.040 A 
HETATM    9  C9  UNL     1      23.177  -0.186  53.436  1.00  0.00     0.010 A 
HETATM   10  C10 UNL     1      24.334   0.146  52.757  1.00  0.00    -0.051 A 
HETATM   11  C16 UNL     1      24.474   1.216  51.878  1.00  0.00     0.047 A 
HETATM   12  C17 UNL     1      23.339   2.019  51.674  1.00  0.00     0.102 A 
HETATM   13  O3  UNL     1      23.501   3.086  50.791  1.00  0.00    -0.345 OA
HETATM   14  C18 UNL     1      24.724   3.309  50.118  1.00  0.00     0.203 C 
HETATM   15  C19 UNL     1      24.778   4.461  49.237  1.00  0.00    -0.002 C 
HETATM   16  C20 UNL     1      23.931   5.444  48.850  1.00  0.00     0.004 C 
ENDROOT
BRANCH  10  17
HETATM   17  C11 UNL     1      25.555  -0.671  52.940  1.00  0.00     0.082 C 
BRANCH  17  18
HETATM   18  C12 UNL     1      26.703   0.086  53.496  1.00  0.00     0.010 A 
HETATM   19  C13 UNL     1      27.497   0.787  52.593  1.00  0.00     0.147 A 
HETATM   20  N1  UNL     1      28.558   1.501  52.998  1.00  0.00    -0.075 NA
HETATM   21  C14 UNL     1      28.909   1.576  54.310  1.00  0.00     0.721 A 
HETATM   22  N3  UNL     1      28.150   0.904  55.194  1.00  0.00    -0.045 NA
HETATM   23  C15 UNL     1      27.076   0.176  54.817  1.00  0.00     0.148 A 
BRANCH  21  24
HETATM   24  N2  UNL     1      30.042   2.347  54.690  1.00  0.00    -0.231 N 
HETATM   25  H14 UNL     1      30.734   2.439  53.894  1.00  0.00     0.174 HD
HETATM   26  H15 UNL     1      29.827   2.597  55.689  1.00  0.00     0.174 HD
ENDBRANCH  21  24
BRANCH  23  27
HETATM   27  N4  UNL     1      26.291  -0.521  55.753  1.00  0.00    -0.383 N 
HETATM   28  H16 UNL     1      25.932  -1.465  55.435  1.00  0.00     0.157 HD
HETATM   29  H17 UNL     1      25.948  -0.345  56.744  1.00  0.00     0.157 HD
ENDBRANCH  23  27
ENDBRANCH  17  18
ENDBRANCH  10  17
BRANCH   1  30
HETATM   30  O1  UNL     1      22.640   7.167  48.111  1.00  0.00    -0.386 OA
HETATM   31  C1  UNL     1      23.898   7.823  47.986  1.00  0.00     0.202 C 
ENDBRANCH   1  30
TORSDOF 5
ENDMDL
