MODEL 1
REMARK VINA RESULT:      -7.9      0.000      0.000
REMARK  5 active torsions:
REMARK  status: ('A' for Active; 'I' for Inactive)
REMARK    1  A    between atoms: N1_1  and  C1_2 
REMARK    2  A    between atoms: C1_2  and  C3_5 
REMARK    3  A    between atoms: C6_8  and  O1_9 
REMARK    4  A    between atoms: O1_9  and  C7_10 
REMARK    5  A    between atoms: C7_10  and  C8_11 
ROOT
HETATM    1  C3  UNL     1      20.741  -0.429  53.183  1.00  0.00    -0.007 A 
HETATM    2  C4  UNL     1      21.376   0.345  52.239  1.00  0.00     0.016 A 
HETATM    3  C5  UNL     1      22.735   0.555  52.403  1.00  0.00     0.039 A 
HETATM    4  C6  UNL     1      23.448   0.016  53.467  1.00  0.00     0.090 A 
HETATM    5  C14 UNL     1      22.735  -0.756  54.380  1.00  0.00     0.068 A 
HETATM    6 CL2  UNL     1      23.577  -1.465  55.747  1.00  0.00    -0.081 Cl
HETATM    7  C15 UNL     1      21.374  -0.995  54.262  1.00  0.00     0.040 A 
ENDROOT
BRANCH   4   8
HETATM    8  O1  UNL     1      24.811   0.215  53.645  1.00  0.00    -0.345 OA
BRANCH   8   9
HETATM    9  C7  UNL     1      25.678  -0.697  53.018  1.00  0.00     0.214 C 
BRANCH   9  10
HETATM   10  C8  UNL     1      27.105  -0.365  53.235  1.00  0.00    -0.031 A 
HETATM   11  C9  UNL     1      28.131  -1.279  53.193  1.00  0.00     0.009 A 
HETATM   12  C10 UNL     1      29.441  -0.864  53.411  1.00  0.00     0.004 A 
HETATM   13  C11 UNL     1      29.696   0.472  53.669  1.00  0.00     0.042 A 
HETATM   14  C12 UNL     1      28.707   1.431  53.723  1.00  0.00     0.117 A 
HETATM   15  F1  UNL     1      28.963   2.731  53.974  1.00  0.00    -0.206 F 
HETATM   16  C13 UNL     1      27.429   0.960  53.498  1.00  0.00     0.051 A 
ENDBRANCH   9  10
ENDBRANCH   8   9
ENDBRANCH   4   8
BRANCH   1  17
HETATM   17  C1  UNL     1      19.317  -0.628  52.982  1.00  0.00     0.047 C 
HETATM   18  C2  UNL     1      18.712  -0.177  51.895  1.00  0.00     0.114 C 
HETATM   19 CL1  UNL     1      16.990  -0.445  51.698  1.00  0.00    -0.095 Cl
BRANCH  17  20
HETATM   20  N1  UNL     1      18.426  -1.294  53.869  1.00  0.00    -0.398 N 
HETATM   21  H1  UNL     1      18.668  -1.813  54.754  1.00  0.00     0.156 HD
HETATM   22  H2  UNL     1      17.380  -1.335  53.719  1.00  0.00     0.156 HD
ENDBRANCH  17  20
ENDBRANCH   1  17
TORSDOF 5
ENDMDL
MODEL 2
REMARK VINA RESULT:      -7.9      1.143      1.558
REMARK  5 active torsions:
REMARK  status: ('A' for Active; 'I' for Inactive)
REMARK    1  A    between atoms: N1_1  and  C1_2 
REMARK    2  A    between atoms: C1_2  and  C3_5 
REMARK    3  A    between atoms: C6_8  and  O1_9 
REMARK    4  A    between atoms: O1_9  and  C7_10 
REMARK    5  A    between atoms: C7_10  and  C8_11 
ROOT
HETATM    1  C3  UNL     1      20.829  -0.436  53.293  1.00  0.00    -0.007 A 
HETATM    2  C4  UNL     1      21.373  -1.256  54.255  1.00  0.00     0.016 A 
HETATM    3  C5  UNL     1      22.732  -1.135  54.494  1.00  0.00     0.039 A 
HETATM    4  C6  UNL     1      23.530  -0.231  53.805  1.00  0.00     0.090 A 
HETATM    5  C14 UNL     1      22.906   0.563  52.848  1.00  0.00     0.068 A 
HETATM    6 CL2  UNL     1      23.860   1.726  51.943  1.00  0.00    -0.081 Cl
HETATM    7  C15 UNL     1      21.550   0.481  52.570  1.00  0.00     0.040 A 
ENDROOT
BRANCH   4   8
HETATM    8  O1  UNL     1      24.894  -0.096  54.034  1.00  0.00    -0.345 OA
BRANCH   8   9
HETATM    9  C7  UNL     1      25.757  -0.848  53.217  1.00  0.00     0.214 C 
BRANCH   9  10
HETATM   10  C8  UNL     1      27.170  -0.426  53.344  1.00  0.00    -0.031 A 
HETATM   11  C9  UNL     1      28.243  -1.285  53.326  1.00  0.00     0.009 A 
HETATM   12  C10 UNL     1      29.536  -0.786  53.452  1.00  0.00     0.004 A 
HETATM   13  C11 UNL     1      29.726   0.578  53.595  1.00  0.00     0.042 A 
HETATM   14  C12 UNL     1      28.688   1.485  53.620  1.00  0.00     0.117 A 
HETATM   15  F1  UNL     1      28.881   2.812  53.758  1.00  0.00    -0.206 F 
HETATM   16  C13 UNL     1      27.430   0.931  53.490  1.00  0.00     0.051 A 
ENDBRANCH   9  10
ENDBRANCH   8   9
ENDBRANCH   4   8
BRANCH   1  17
HETATM   17  C1  UNL     1      19.403  -0.589  53.066  1.00  0.00     0.047 C 
HETATM   18  C2  UNL     1      18.829  -0.105  51.976  1.00  0.00     0.114 C 
HETATM   19 CL1  UNL     1      17.103  -0.318  51.748  1.00  0.00    -0.095 Cl
BRANCH  17  20
HETATM   20  N1  UNL     1      18.478  -1.241  53.929  1.00  0.00    -0.398 N 
HETATM   21  H1  UNL     1      18.666  -1.652  54.880  1.00  0.00     0.156 HD
HETATM   22  H2  UNL     1      17.459  -1.382  53.686  1.00  0.00     0.156 HD
ENDBRANCH  17  20
ENDBRANCH   1  17
TORSDOF 5
ENDMDL
MODEL 3
REMARK VINA RESULT:      -7.6      2.143      2.672
REMARK  5 active torsions:
REMARK  status: ('A' for Active; 'I' for Inactive)
REMARK    1  A    between atoms: N1_1  and  C1_2 
REMARK    2  A    between atoms: C1_2  and  C3_5 
REMARK    3  A    between atoms: C6_8  and  O1_9 
REMARK    4  A    between atoms: O1_9  and  C7_10 
REMARK    5  A    between atoms: C7_10  and  C8_11 
ROOT
HETATM    1  C3  UNL     1      21.315   0.049  52.798  1.00  0.00    -0.007 A 
HETATM    2  C4  UNL     1      22.233  -0.464  53.685  1.00  0.00     0.016 A 
HETATM    3  C5  UNL     1      23.555  -0.087  53.516  1.00  0.00     0.039 A 
HETATM    4  C6  UNL     1      23.959   0.773  52.502  1.00  0.00     0.090 A 
HETATM    5  C14 UNL     1      22.970   1.250  51.646  1.00  0.00     0.068 A 
HETATM    6 CL2  UNL     1      23.416   2.340  50.344  1.00  0.00    -0.081 Cl
HETATM    7  C15 UNL     1      21.634   0.902  51.772  1.00  0.00     0.040 A 
ENDROOT
BRANCH   4   8
HETATM    8  O1  UNL     1      25.279   1.163  52.319  1.00  0.00    -0.345 OA
BRANCH   8   9
HETATM    9  C7  UNL     1      26.059   1.343  53.475  1.00  0.00     0.214 C 
BRANCH   9  10
HETATM   10  C8  UNL     1      27.299   0.532  53.456  1.00  0.00    -0.031 A 
HETATM   11  C9  UNL     1      28.550   1.019  53.752  1.00  0.00     0.009 A 
HETATM   12  C10 UNL     1      29.653   0.173  53.705  1.00  0.00     0.004 A 
HETATM   13  C11 UNL     1      29.476  -1.157  53.360  1.00  0.00     0.042 A 
HETATM   14  C12 UNL     1      28.245  -1.698  53.055  1.00  0.00     0.117 A 
HETATM   15  F1  UNL     1      28.079  -2.993  52.720  1.00  0.00    -0.206 F 
HETATM   16  C13 UNL     1      27.189  -0.811  53.118  1.00  0.00     0.051 A 
ENDBRANCH   9  10
ENDBRANCH   8   9
ENDBRANCH   4   8
BRANCH   1  17
HETATM   17  C1  UNL     1      19.939  -0.367  53.003  1.00  0.00     0.047 C 
HETATM   18  C2  UNL     1      18.977   0.028  52.185  1.00  0.00     0.114 C 
HETATM   19 CL1  UNL     1      17.331  -0.504  52.475  1.00  0.00    -0.095 Cl
BRANCH  17  20
HETATM   20  N1  UNL     1      19.460  -1.208  54.046  1.00  0.00    -0.398 N 
HETATM   21  H1  UNL     1      18.496  -1.222  54.470  1.00  0.00     0.156 HD
HETATM   22  H2  UNL     1      20.058  -1.939  54.523  1.00  0.00     0.156 HD
ENDBRANCH  17  20
ENDBRANCH   1  17
TORSDOF 5
ENDMDL
MODEL 4
REMARK VINA RESULT:      -7.5      4.068      8.007
REMARK  5 active torsions:
REMARK  status: ('A' for Active; 'I' for Inactive)
REMARK    1  A    between atoms: N1_1  and  C1_2 
REMARK    2  A    between atoms: C1_2  and  C3_5 
REMARK    3  A    between atoms: C6_8  and  O1_9 
REMARK    4  A    between atoms: O1_9  and  C7_10 
REMARK    5  A    between atoms: C7_10  and  C8_11 
ROOT
HETATM    1  C3  UNL     1      26.136  -0.421  53.276  1.00  0.00    -0.007 A 
HETATM    2  C4  UNL     1      25.827   0.541  52.341  1.00  0.00     0.016 A 
HETATM    3  C5  UNL     1      24.516   0.988  52.302  1.00  0.00     0.039 A 
HETATM    4  C6  UNL     1      23.539   0.500  53.161  1.00  0.00     0.090 A 
HETATM    5  C14 UNL     1      23.930  -0.471  54.078  1.00  0.00     0.068 A 
HETATM    6 CL2  UNL     1      22.742  -1.128  55.191  1.00  0.00    -0.081 Cl
HETATM    7  C15 UNL     1      25.228  -0.952  54.157  1.00  0.00     0.040 A 
ENDROOT
BRANCH   4   8
HETATM    8  O1  UNL     1      22.221   0.937  53.137  1.00  0.00    -0.345 OA
BRANCH   8   9
HETATM    9  C7  UNL     1      21.520   0.788  51.927  1.00  0.00     0.214 C 
BRANCH   9  10
HETATM   10  C8  UNL     1      20.182   0.181  52.116  1.00  0.00    -0.031 A 
HETATM   11  C9  UNL     1      19.808  -0.544  53.223  1.00  0.00     0.009 A 
HETATM   12  C10 UNL     1      18.524  -1.074  53.305  1.00  0.00     0.004 A 
HETATM   13  C11 UNL     1      17.635  -0.863  52.264  1.00  0.00     0.042 A 
HETATM   14  C12 UNL     1      17.956  -0.144  51.132  1.00  0.00     0.117 A 
HETATM   15  F1  UNL     1      17.085   0.058  50.124  1.00  0.00    -0.206 F 
HETATM   16  C13 UNL     1      19.243   0.356  51.109  1.00  0.00     0.051 A 
ENDBRANCH   9  10
ENDBRANCH   8   9
ENDBRANCH   4   8
BRANCH   1  17
HETATM   17  C1  UNL     1      27.517  -0.867  53.288  1.00  0.00     0.047 C 
HETATM   18  C2  UNL     1      28.509  -0.013  53.486  1.00  0.00     0.114 C 
HETATM   19 CL1  UNL     1      30.161  -0.602  53.494  1.00  0.00    -0.095 Cl
BRANCH  17  20
HETATM   20  N1  UNL     1      27.973  -2.202  53.103  1.00  0.00    -0.398 N 
HETATM   21  H1  UNL     1      28.634  -2.747  53.715  1.00  0.00     0.156 HD
HETATM   22  H2  UNL     1      27.675  -2.809  52.289  1.00  0.00     0.156 HD
ENDBRANCH  17  20
ENDBRANCH   1  17
TORSDOF 5
ENDMDL
MODEL 5
REMARK VINA RESULT:      -7.4      3.870      7.897
REMARK  5 active torsions:
REMARK  status: ('A' for Active; 'I' for Inactive)
REMARK    1  A    between atoms: N1_1  and  C1_2 
REMARK    2  A    between atoms: C1_2  and  C3_5 
REMARK    3  A    between atoms: C6_8  and  O1_9 
REMARK    4  A    between atoms: O1_9  and  C7_10 
REMARK    5  A    between atoms: C7_10  and  C8_11 
ROOT
HETATM    1  C3  UNL     1      25.931  -0.400  53.189  1.00  0.00    -0.007 A 
HETATM    2  C4  UNL     1      25.731   0.606  52.272  1.00  0.00     0.016 A 
HETATM    3  C5  UNL     1      24.452   1.130  52.177  1.00  0.00     0.039 A 
HETATM    4  C6  UNL     1      23.402   0.675  52.964  1.00  0.00     0.090 A 
HETATM    5  C14 UNL     1      23.684  -0.345  53.868  1.00  0.00     0.068 A 
HETATM    6 CL2  UNL     1      22.400  -0.964  54.892  1.00  0.00    -0.081 Cl
HETATM    7  C15 UNL     1      24.947  -0.904  54.001  1.00  0.00     0.040 A 
ENDROOT
BRANCH   4   8
HETATM    8  O1  UNL     1      22.114   1.190  52.883  1.00  0.00    -0.345 OA
BRANCH   8   9
HETATM    9  C7  UNL     1      21.548   1.297  51.600  1.00  0.00     0.214 C 
BRANCH   9  10
HETATM   10  C8  UNL     1      20.193   0.703  51.526  1.00  0.00    -0.031 A 
HETATM   11  C9  UNL     1      19.340   0.845  50.457  1.00  0.00     0.009 A 
HETATM   12  C10 UNL     1      18.085   0.246  50.486  1.00  0.00     0.004 A 
HETATM   13  C11 UNL     1      17.709  -0.489  51.597  1.00  0.00     0.042 A 
HETATM   14  C12 UNL     1      18.523  -0.664  52.696  1.00  0.00     0.117 A 
HETATM   15  F1  UNL     1      18.150  -1.382  53.774  1.00  0.00    -0.206 F 
HETATM   16  C13 UNL     1      19.755  -0.047  52.609  1.00  0.00     0.051 A 
ENDBRANCH   9  10
ENDBRANCH   8   9
ENDBRANCH   4   8
BRANCH   1  17
HETATM   17  C1  UNL     1      27.282  -0.927  53.262  1.00  0.00     0.047 C 
HETATM   18  C2  UNL     1      28.312  -0.134  53.515  1.00  0.00     0.114 C 
HETATM   19 CL1  UNL     1      29.924  -0.820  53.594  1.00  0.00    -0.095 Cl
BRANCH  17  20
HETATM   20  N1  UNL     1      27.667  -2.285  53.085  1.00  0.00    -0.398 N 
HETATM   21  H1  UNL     1      27.046  -3.105  52.859  1.00  0.00     0.156 HD
HETATM   22  H2  UNL     1      28.667  -2.620  53.166  1.00  0.00     0.156 HD
ENDBRANCH  17  20
ENDBRANCH   1  17
TORSDOF 5
ENDMDL
MODEL 6
REMARK VINA RESULT:      -7.3      3.520      4.367
REMARK  5 active torsions:
REMARK  status: ('A' for Active; 'I' for Inactive)
REMARK    1  A    between atoms: N1_1  and  C1_2 
REMARK    2  A    between atoms: C1_2  and  C3_5 
REMARK    3  A    between atoms: C6_8  and  O1_9 
REMARK    4  A    between atoms: O1_9  and  C7_10 
REMARK    5  A    between atoms: C7_10  and  C8_11 
ROOT
HETATM    1  C3  UNL     1      23.326   2.878  51.698  1.00  0.00    -0.007 A 
HETATM    2  C4  UNL     1      23.800   2.497  52.933  1.00  0.00     0.016 A 
HETATM    3  C5  UNL     1      25.167   2.317  53.057  1.00  0.00     0.039 A 
HETATM    4  C6  UNL     1      26.042   2.507  51.995  1.00  0.00     0.090 A 
HETATM    5  C14 UNL     1      25.485   2.892  50.778  1.00  0.00     0.068 A 
HETATM    6 CL2  UNL     1      26.537   3.148  49.397  1.00  0.00    -0.081 Cl
HETATM    7  C15 UNL     1      24.123   3.084  50.601  1.00  0.00     0.040 A 
ENDROOT
BRANCH   4   8
HETATM    8  O1  UNL     1      27.415   2.332  52.103  1.00  0.00    -0.345 OA
BRANCH   8   9
HETATM    9  C7  UNL     1      27.912   1.924  53.353  1.00  0.00     0.214 C 
BRANCH   9  10
HETATM   10  C8  UNL     1      28.415   0.531  53.338  1.00  0.00    -0.031 A 
HETATM   11  C9  UNL     1      29.672   0.154  53.750  1.00  0.00     0.009 A 
HETATM   12  C10 UNL     1      30.049  -1.184  53.695  1.00  0.00     0.004 A 
HETATM   13  C11 UNL     1      29.148  -2.124  53.224  1.00  0.00     0.042 A 
HETATM   14  C12 UNL     1      27.877  -1.803  52.799  1.00  0.00     0.117 A 
HETATM   15  F1  UNL     1      27.005  -2.724  52.342  1.00  0.00    -0.206 F 
HETATM   16  C13 UNL     1      27.560  -0.461  52.876  1.00  0.00     0.051 A 
ENDBRANCH   9  10
ENDBRANCH   8   9
ENDBRANCH   4   8
BRANCH   1  17
HETATM   17  C1  UNL     1      21.888   3.056  51.602  1.00  0.00     0.047 C 
HETATM   18  C2  UNL     1      21.054   2.188  52.153  1.00  0.00     0.114 C 
HETATM   19 CL1  UNL     1      19.325   2.450  52.010  1.00  0.00    -0.095 Cl
BRANCH  17  20
HETATM   20  N1  UNL     1      21.214   4.123  50.946  1.00  0.00    -0.398 N 
HETATM   21  H1  UNL     1      20.181   4.328  50.945  1.00  0.00     0.156 HD
HETATM   22  H2  UNL     1      21.712   4.853  50.364  1.00  0.00     0.156 HD
ENDBRANCH  17  20
ENDBRANCH   1  17
TORSDOF 5
ENDMDL
MODEL 7
REMARK VINA RESULT:      -7.3      4.455      8.103
REMARK  5 active torsions:
REMARK  status: ('A' for Active; 'I' for Inactive)
REMARK    1  A    between atoms: N1_1  and  C1_2 
REMARK    2  A    between atoms: C1_2  and  C3_5 
REMARK    3  A    between atoms: C6_8  and  O1_9 
REMARK    4  A    between atoms: O1_9  and  C7_10 
REMARK    5  A    between atoms: C7_10  and  C8_11 
ROOT
HETATM    1  C3  UNL     1      26.302  -0.262  52.861  1.00  0.00    -0.007 A 
HETATM    2  C4  UNL     1      25.212  -0.780  53.522  1.00  0.00     0.016 A 
HETATM    3  C5  UNL     1      23.988  -0.172  53.298  1.00  0.00     0.039 A 
HETATM    4  C6  UNL     1      23.844   0.916  52.445  1.00  0.00     0.090 A 
HETATM    5  C14 UNL     1      24.993   1.381  51.813  1.00  0.00     0.068 A 
HETATM    6 CL2  UNL     1      24.877   2.752  50.723  1.00  0.00    -0.081 Cl
HETATM    7  C15 UNL     1      26.241   0.808  52.004  1.00  0.00     0.040 A 
ENDROOT
BRANCH   4   8
HETATM    8  O1  UNL     1      22.624   1.536  52.208  1.00  0.00    -0.345 OA
BRANCH   8   9
HETATM    9  C7  UNL     1      21.835   1.019  51.166  1.00  0.00     0.214 C 
BRANCH   9  10
HETATM   10  C8  UNL     1      20.565   0.431  51.653  1.00  0.00    -0.031 A 
HETATM   11  C9  UNL     1      20.398  -0.138  52.893  1.00  0.00     0.009 A 
HETATM   12  C10 UNL     1      19.161  -0.663  53.255  1.00  0.00     0.004 A 
HETATM   13  C11 UNL     1      18.109  -0.604  52.356  1.00  0.00     0.042 A 
HETATM   14  C12 UNL     1      18.220  -0.045  51.101  1.00  0.00     0.117 A 
HETATM   15  F1  UNL     1      17.192   0.009  50.232  1.00  0.00    -0.206 F 
HETATM   16  C13 UNL     1      19.470   0.459  50.799  1.00  0.00     0.051 A 
ENDBRANCH   9  10
ENDBRANCH   8   9
ENDBRANCH   4   8
BRANCH   1  17
HETATM   17  C1  UNL     1      27.569  -0.922  53.119  1.00  0.00     0.047 C 
HETATM   18  C2  UNL     1      28.646  -0.227  53.451  1.00  0.00     0.114 C 
HETATM   19 CL1  UNL     1      30.153  -1.072  53.755  1.00  0.00    -0.095 Cl
BRANCH  17  20
HETATM   20  N1  UNL     1      27.818  -2.321  53.056  1.00  0.00    -0.398 N 
HETATM   21  H1  UNL     1      27.371  -3.026  52.413  1.00  0.00     0.156 HD
HETATM   22  H2  UNL     1      28.513  -2.816  53.682  1.00  0.00     0.156 HD
ENDBRANCH  17  20
ENDBRANCH   1  17
TORSDOF 5
ENDMDL
MODEL 8
REMARK VINA RESULT:      -7.2      6.019      7.090
REMARK  5 active torsions:
REMARK  status: ('A' for Active; 'I' for Inactive)
REMARK    1  A    between atoms: N1_1  and  C1_2 
REMARK    2  A    between atoms: C1_2  and  C3_5 
REMARK    3  A    between atoms: C6_8  and  O1_9 
REMARK    4  A    between atoms: O1_9  and  C7_10 
REMARK    5  A    between atoms: C7_10  and  C8_11 
ROOT
HETATM    1  C3  UNL     1      26.065   5.186  49.537  1.00  0.00    -0.007 A 
HETATM    2  C4  UNL     1      26.821   4.044  49.405  1.00  0.00     0.016 A 
HETATM    3  C5  UNL     1      26.375   2.910  50.065  1.00  0.00     0.039 A 
HETATM    4  C6  UNL     1      25.216   2.904  50.831  1.00  0.00     0.090 A 
HETATM    5  C14 UNL     1      24.506   4.098  50.915  1.00  0.00     0.068 A 
HETATM    6 CL2  UNL     1      23.034   4.155  51.869  1.00  0.00    -0.081 Cl
HETATM    7  C15 UNL     1      24.910   5.260  50.275  1.00  0.00     0.040 A 
ENDROOT
BRANCH   4   8
HETATM    8  O1  UNL     1      24.754   1.776  51.497  1.00  0.00    -0.345 OA
BRANCH   8   9
HETATM    9  C7  UNL     1      25.136   1.627  52.842  1.00  0.00     0.214 C 
BRANCH   9  10
HETATM   10  C8  UNL     1      26.334   0.770  53.001  1.00  0.00    -0.031 A 
HETATM   11  C9  UNL     1      27.539   1.205  53.500  1.00  0.00     0.009 A 
HETATM   12  C10 UNL     1      28.606   0.318  53.610  1.00  0.00     0.004 A 
HETATM   13  C11 UNL     1      28.439  -0.998  53.213  1.00  0.00     0.042 A 
HETATM   14  C12 UNL     1      27.254  -1.487  52.706  1.00  0.00     0.117 A 
HETATM   15  F1  UNL     1      27.098  -2.770  52.322  1.00  0.00    -0.206 F 
HETATM   16  C13 UNL     1      26.233  -0.562  52.621  1.00  0.00     0.051 A 
ENDBRANCH   9  10
ENDBRANCH   8   9
ENDBRANCH   4   8
BRANCH   1  17
HETATM   17  C1  UNL     1      26.561   6.356  48.834  1.00  0.00     0.047 C 
HETATM   18  C2  UNL     1      25.803   6.999  47.960  1.00  0.00     0.114 C 
HETATM   19 CL1  UNL     1      26.449   8.408  47.138  1.00  0.00    -0.095 Cl
BRANCH  17  20
HETATM   20  N1  UNL     1      27.850   6.940  48.977  1.00  0.00    -0.398 N 
HETATM   21  H1  UNL     1      28.525   7.204  48.213  1.00  0.00     0.156 HD
HETATM   22  H2  UNL     1      28.278   7.179  49.915  1.00  0.00     0.156 HD
ENDBRANCH  17  20
ENDBRANCH   1  17
TORSDOF 5
ENDMDL
MODEL 9
REMARK VINA RESULT:      -7.1      1.718      2.142
REMARK  5 active torsions:
REMARK  status: ('A' for Active; 'I' for Inactive)
REMARK    1  A    between atoms: N1_1  and  C1_2 
REMARK    2  A    between atoms: C1_2  and  C3_5 
REMARK    3  A    between atoms: C6_8  and  O1_9 
REMARK    4  A    between atoms: O1_9  and  C7_10 
REMARK    5  A    between atoms: C7_10  and  C8_11 
ROOT
HETATM    1  C3  UNL     1      20.526   0.318  51.672  1.00  0.00    -0.007 A 
HETATM    2  C4  UNL     1      21.415   1.035  50.904  1.00  0.00     0.016 A 
HETATM    3  C5  UNL     1      22.714   1.142  51.374  1.00  0.00     0.039 A 
HETATM    4  C6  UNL     1      23.124   0.556  52.565  1.00  0.00     0.090 A 
HETATM    5  C14 UNL     1      22.166  -0.153  53.284  1.00  0.00     0.068 A 
HETATM    6 CL2  UNL     1      22.621  -0.916  54.798  1.00  0.00    -0.081 Cl
HETATM    7  C15 UNL     1      20.853  -0.289  52.858  1.00  0.00     0.040 A 
ENDROOT
BRANCH   4   8
HETATM    8  O1  UNL     1      24.422   0.652  53.050  1.00  0.00    -0.345 OA
BRANCH   8   9
HETATM    9  C7  UNL     1      25.421   1.028  52.134  1.00  0.00     0.214 C 
BRANCH   9  10
HETATM   10  C8  UNL     1      26.777   0.996  52.728  1.00  0.00    -0.031 A 
HETATM   11  C9  UNL     1      27.477   2.110  53.127  1.00  0.00     0.009 A 
HETATM   12  C10 UNL     1      28.748   1.972  53.675  1.00  0.00     0.004 A 
HETATM   13  C11 UNL     1      29.296   0.708  53.812  1.00  0.00     0.042 A 
HETATM   14  C12 UNL     1      28.640  -0.443  53.428  1.00  0.00     0.117 A 
HETATM   15  F1  UNL     1      29.179  -1.670  53.564  1.00  0.00    -0.206 F 
HETATM   16  C13 UNL     1      27.383  -0.243  52.892  1.00  0.00     0.051 A 
ENDBRANCH   9  10
ENDBRANCH   8   9
ENDBRANCH   4   8
BRANCH   1  17
HETATM   17  C1  UNL     1      19.174   0.227  51.151  1.00  0.00     0.047 C 
HETATM   18  C2  UNL     1      18.217  -0.376  51.839  1.00  0.00     0.114 C 
HETATM   19 CL1  UNL     1      16.599  -0.458  51.167  1.00  0.00    -0.095 Cl
BRANCH  17  20
HETATM   20  N1  UNL     1      18.714   0.742  49.907  1.00  0.00    -0.398 N 
HETATM   21  H1  UNL     1      19.291   0.999  49.065  1.00  0.00     0.156 HD
HETATM   22  H2  UNL     1      17.694   0.924  49.697  1.00  0.00     0.156 HD
ENDBRANCH  17  20
ENDBRANCH   1  17
TORSDOF 5
ENDMDL
