MODEL 1
REMARK VINA RESULT:      -8.0      0.000      0.000
REMARK  0 active torsions:
REMARK  status: ('A' for Active; 'I' for Inactive)
ROOT
HETATM    1 BR1  UNL     1      21.508   1.301  48.924  1.00  0.00    -0.051 Br
HETATM    2  C1  UNL     1      22.625   1.791  50.385  1.00  0.00     0.012 A 
HETATM    3  C2  UNL     1      23.489   2.917  50.375  1.00  0.00     0.033 A 
HETATM    4  C3  UNL     1      24.332   3.338  51.412  1.00  0.00     0.000 A 
HETATM    5  C4  UNL     1      24.310   2.578  52.565  1.00  0.00     0.091 A 
HETATM    6  C5  UNL     1      23.429   1.476  52.480  1.00  0.00    -0.005 A 
HETATM    7  C6  UNL     1      22.576   0.991  51.517  1.00  0.00     0.030 A 
HETATM    8  C7  UNL     1      23.506   0.370  53.516  1.00  0.00     0.161 C 
HETATM    9  N1  UNL     1      24.886  -0.211  53.243  1.00  0.00    -0.384 N 
HETATM   10  C8  UNL     1      25.940   0.634  53.450  1.00  0.00     0.102 A 
HETATM   11  C9  UNL     1      27.223   0.542  53.541  1.00  0.00     0.226 A 
HETATM   12  N2  UNL     1      28.513   0.805  53.730  1.00  0.00    -0.239 NA
HETATM   13  C10 UNL     1      28.618   2.184  54.106  1.00  0.00     0.228 A 
HETATM   14  N3  UNL     1      27.357   2.665  54.103  1.00  0.00    -0.234 NA
HETATM   15  C11 UNL     1      26.266   1.966  53.814  1.00  0.00     0.257 A 
HETATM   16  O1  UNL     1      25.039   2.743  53.827  1.00  0.00    -0.306 OA
HETATM   17  N4  UNL     1      27.052  -0.100  52.178  1.00  0.00    -0.379 N 
HETATM   18  C12 UNL     1      26.478   0.648  50.984  1.00  0.00     0.137 C 
HETATM   19  C13 UNL     1      26.726   2.013  50.918  1.00  0.00     0.022 C 
HETATM   20  C14 UNL     1      26.258   2.900  49.844  1.00  0.00    -0.012 C 
HETATM   21  C15 UNL     1      25.885   4.120  49.840  1.00  0.00    -0.029 C 
HETATM   22  C16 UNL     1      25.072   4.473  50.843  1.00  0.00     0.026 C 
HETATM   23  H5  UNL     1      25.377  -1.103  52.931  1.00  0.00     0.159 HD
HETATM   24  H7  UNL     1      27.371  -1.065  52.098  1.00  0.00     0.156 HD
ENDROOT
TORSDOF 0
ENDMDL
MODEL 2
REMARK VINA RESULT:      -7.6      3.182      4.719
REMARK  0 active torsions:
REMARK  status: ('A' for Active; 'I' for Inactive)
ROOT
HETATM    1 BR1  UNL     1      21.816  -0.922  54.817  1.00  0.00    -0.051 Br
HETATM    2  C1  UNL     1      22.432   0.129  53.355  1.00  0.00     0.012 A 
HETATM    3  C2  UNL     1      23.796   0.229  52.974  1.00  0.00     0.033 A 
HETATM    4  C3  UNL     1      24.318   0.977  51.911  1.00  0.00     0.000 A 
HETATM    5  C4  UNL     1      23.405   1.683  51.153  1.00  0.00     0.091 A 
HETATM    6  C5  UNL     1      22.076   1.530  51.610  1.00  0.00    -0.005 A 
HETATM    7  C6  UNL     1      21.478   0.829  52.630  1.00  0.00     0.030 A 
HETATM    8  C7  UNL     1      20.994   2.464  51.102  1.00  0.00     0.161 C 
HETATM    9  N1  UNL     1      21.451   3.800  51.669  1.00  0.00    -0.384 N 
HETATM   10  C8  UNL     1      22.654   4.262  51.212  1.00  0.00     0.102 A 
HETATM   11  C9  UNL     1      23.319   5.366  51.246  1.00  0.00     0.226 A 
HETATM   12  N2  UNL     1      24.227   6.317  51.050  1.00  0.00    -0.239 NA
HETATM   13  C10 UNL     1      25.222   5.783  50.168  1.00  0.00     0.228 A 
HETATM   14  N3  UNL     1      24.839   4.517  49.901  1.00  0.00    -0.234 NA
HETATM   15  C11 UNL     1      23.748   3.927  50.373  1.00  0.00     0.257 A 
HETATM   16  O1  UNL     1      23.603   2.537  49.977  1.00  0.00    -0.306 OA
HETATM   17  N4  UNL     1      23.121   5.182  52.738  1.00  0.00    -0.379 N 
HETATM   18  C12 UNL     1      23.684   3.992  53.501  1.00  0.00     0.137 C 
HETATM   19  C13 UNL     1      24.879   3.456  53.038  1.00  0.00     0.022 C 
HETATM   20  C14 UNL     1      25.575   2.311  53.642  1.00  0.00    -0.012 C 
HETATM   21  C15 UNL     1      26.274   1.370  53.140  1.00  0.00    -0.029 C 
HETATM   22  C16 UNL     1      25.773   0.814  52.030  1.00  0.00     0.026 C 
HETATM   23  H5  UNL     1      21.159   4.576  52.339  1.00  0.00     0.159 HD
HETATM   24  H7  UNL     1      22.605   5.923  53.213  1.00  0.00     0.156 HD
ENDROOT
TORSDOF 0
ENDMDL
MODEL 3
REMARK VINA RESULT:      -7.5      7.491      9.723
REMARK  0 active torsions:
REMARK  status: ('A' for Active; 'I' for Inactive)
ROOT
HETATM    1 BR1  UNL     1      32.450   4.494  47.993  1.00  0.00    -0.051 Br
HETATM    2  C1  UNL     1      31.093   5.743  47.522  1.00  0.00     0.012 A 
HETATM    3  C2  UNL     1      31.313   6.870  46.688  1.00  0.00     0.033 A 
HETATM    4  C3  UNL     1      30.364   7.824  46.298  1.00  0.00     0.000 A 
HETATM    5  C4  UNL     1      29.079   7.638  46.770  1.00  0.00     0.091 A 
HETATM    6  C5  UNL     1      28.958   6.497  47.597  1.00  0.00    -0.005 A 
HETATM    7  C6  UNL     1      29.821   5.520  48.030  1.00  0.00     0.030 A 
HETATM    8  C7  UNL     1      27.713   6.313  48.445  1.00  0.00     0.161 C 
HETATM    9  N1  UNL     1      27.824   7.484  49.410  1.00  0.00    -0.384 N 
HETATM   10  C8  UNL     1      27.769   8.729  48.846  1.00  0.00     0.102 A 
HETATM   11  C9  UNL     1      27.627   9.945  49.250  1.00  0.00     0.226 A 
HETATM   12  N2  UNL     1      27.462  11.264  49.301  1.00  0.00    -0.239 NA
HETATM   13  C10 UNL     1      27.377  11.736  47.951  1.00  0.00     0.228 A 
HETATM   14  N3  UNL     1      27.513  10.646  47.168  1.00  0.00    -0.234 NA
HETATM   15  C11 UNL     1      27.680   9.402  47.601  1.00  0.00     0.257 A 
HETATM   16  O1  UNL     1      27.860   8.422  46.545  1.00  0.00    -0.306 OA
HETATM   17  N4  UNL     1      28.832   9.573  50.092  1.00  0.00    -0.379 N 
HETATM   18  C12 UNL     1      30.169   9.179  49.483  1.00  0.00     0.137 C 
HETATM   19  C13 UNL     1      30.510   9.773  48.275  1.00  0.00     0.022 C 
HETATM   20  C14 UNL     1      31.756   9.522  47.538  1.00  0.00    -0.012 C 
HETATM   21  C15 UNL     1      32.022   9.480  46.291  1.00  0.00    -0.029 C 
HETATM   22  C16 UNL     1      31.135   8.817  45.538  1.00  0.00     0.026 C 
HETATM   23  H5  UNL     1      27.932   7.717  50.444  1.00  0.00     0.159 HD
HETATM   24  H7  UNL     1      28.702   9.626  51.102  1.00  0.00     0.156 HD
ENDROOT
TORSDOF 0
ENDMDL
MODEL 4
REMARK VINA RESULT:      -7.4      3.634      5.988
REMARK  0 active torsions:
REMARK  status: ('A' for Active; 'I' for Inactive)
ROOT
HETATM    1 BR1  UNL     1      26.548  -0.132  52.083  1.00  0.00    -0.051 Br
HETATM    2  C1  UNL     1      25.109   1.110  52.182  1.00  0.00     0.012 A 
HETATM    3  C2  UNL     1      23.850   0.814  52.766  1.00  0.00     0.033 A 
HETATM    4  C3  UNL     1      22.752   1.678  52.877  1.00  0.00     0.000 A 
HETATM    5  C4  UNL     1      22.921   2.951  52.369  1.00  0.00     0.091 A 
HETATM    6  C5  UNL     1      24.200   3.151  51.802  1.00  0.00    -0.005 A 
HETATM    7  C6  UNL     1      25.323   2.373  51.649  1.00  0.00     0.030 A 
HETATM    8  C7  UNL     1      24.455   4.367  50.930  1.00  0.00     0.161 C 
HETATM    9  N1  UNL     1      23.541   4.091  49.746  1.00  0.00    -0.384 N 
HETATM   10  C8  UNL     1      22.202   4.045  50.023  1.00  0.00     0.102 A 
HETATM   11  C9  UNL     1      21.098   4.042  49.359  1.00  0.00     0.226 A 
HETATM   12  N2  UNL     1      19.813   4.068  49.014  1.00  0.00    -0.239 NA
HETATM   13  C10 UNL     1      19.049   4.167  50.222  1.00  0.00     0.228 A 
HETATM   14  N3  UNL     1      19.947   4.180  51.229  1.00  0.00    -0.234 NA
HETATM   15  C11 UNL     1      21.265   4.122  51.086  1.00  0.00     0.257 A 
HETATM   16  O1  UNL     1      22.001   4.092  52.338  1.00  0.00    -0.306 OA
HETATM   17  N4  UNL     1      21.754   2.844  48.700  1.00  0.00    -0.379 N 
HETATM   18  C12 UNL     1      22.122   1.584  49.468  1.00  0.00     0.137 C 
HETATM   19  C13 UNL     1      21.309   1.240  50.541  1.00  0.00     0.022 C 
HETATM   20  C14 UNL     1      21.502   0.062  51.398  1.00  0.00    -0.012 C 
HETATM   21  C15 UNL     1      21.291  -0.140  52.639  1.00  0.00    -0.029 C 
HETATM   22  C16 UNL     1      21.689   0.844  53.455  1.00  0.00     0.026 C 
HETATM   23  H5  UNL     1      23.553   3.912  48.696  1.00  0.00     0.159 HD
HETATM   24  H7  UNL     1      21.913   2.921  47.696  1.00  0.00     0.156 HD
ENDROOT
TORSDOF 0
ENDMDL
MODEL 5
REMARK VINA RESULT:      -7.2      4.132      6.210
REMARK  0 active torsions:
REMARK  status: ('A' for Active; 'I' for Inactive)
ROOT
HETATM    1 BR1  UNL     1      28.278   7.875  48.209  1.00  0.00    -0.051 Br
HETATM    2  C1  UNL     1      26.722   6.793  48.390  1.00  0.00     0.012 A 
HETATM    3  C2  UNL     1      25.423   7.210  48.001  1.00  0.00     0.033 A 
HETATM    4  C3  UNL     1      24.238   6.467  48.101  1.00  0.00     0.000 A 
HETATM    5  C4  UNL     1      24.356   5.195  48.626  1.00  0.00     0.091 A 
HETATM    6  C5  UNL     1      25.683   4.872  48.991  1.00  0.00    -0.005 A 
HETATM    7  C6  UNL     1      26.890   5.527  48.932  1.00  0.00     0.030 A 
HETATM    8  C7  UNL     1      25.949   3.656  49.858  1.00  0.00     0.161 C 
HETATM    9  N1  UNL     1      25.273   4.056  51.162  1.00  0.00    -0.384 N 
HETATM   10  C8  UNL     1      23.919   4.239  51.098  1.00  0.00     0.102 A 
HETATM   11  C9  UNL     1      22.943   4.377  51.929  1.00  0.00     0.226 A 
HETATM   12  N2  UNL     1      21.736   4.497  52.474  1.00  0.00    -0.239 NA
HETATM   13  C10 UNL     1      20.779   4.453  51.408  1.00  0.00     0.228 A 
HETATM   14  N3  UNL     1      21.496   4.320  50.273  1.00  0.00    -0.234 NA
HETATM   15  C11 UNL     1      22.819   4.239  50.202  1.00  0.00     0.257 A 
HETATM   16  O1  UNL     1      23.341   4.160  48.849  1.00  0.00    -0.306 OA
HETATM   17  N4  UNL     1      23.817   5.512  52.427  1.00  0.00    -0.379 N 
HETATM   18  C12 UNL     1      24.182   6.707  51.560  1.00  0.00     0.137 C 
HETATM   19  C13 UNL     1      23.245   7.111  50.617  1.00  0.00     0.022 C 
HETATM   20  C14 UNL     1      23.418   8.241  49.694  1.00  0.00    -0.012 C 
HETATM   21  C15 UNL     1      23.030   8.436  48.495  1.00  0.00    -0.029 C 
HETATM   22  C16 UNL     1      23.187   7.397  47.666  1.00  0.00     0.026 C 
HETATM   23  H5  UNL     1      25.474   4.256  52.188  1.00  0.00     0.159 HD
HETATM   24  H7  UNL     1      24.128   5.442  53.395  1.00  0.00     0.156 HD
ENDROOT
TORSDOF 0
ENDMDL
MODEL 6
REMARK VINA RESULT:      -7.1      3.294      5.288
REMARK  0 active torsions:
REMARK  status: ('A' for Active; 'I' for Inactive)
ROOT
HETATM    1 BR1  UNL     1      25.577   9.024  49.196  1.00  0.00    -0.051 Br
HETATM    2  C1  UNL     1      24.989   7.214  49.166  1.00  0.00     0.012 A 
HETATM    3  C2  UNL     1      23.630   6.829  49.026  1.00  0.00     0.033 A 
HETATM    4  C3  UNL     1      23.128   5.521  48.991  1.00  0.00     0.000 A 
HETATM    5  C4  UNL     1      24.058   4.505  49.097  1.00  0.00     0.091 A 
HETATM    6  C5  UNL     1      25.381   4.984  49.241  1.00  0.00    -0.005 A 
HETATM    7  C6  UNL     1      25.959   6.230  49.286  1.00  0.00     0.030 A 
HETATM    8  C7  UNL     1      26.481   4.035  49.678  1.00  0.00     0.161 C 
HETATM    9  N1  UNL     1      26.037   3.682  51.090  1.00  0.00    -0.384 N 
HETATM   10  C8  UNL     1      24.845   3.020  51.193  1.00  0.00     0.102 A 
HETATM   11  C9  UNL     1      24.195   2.376  52.101  1.00  0.00     0.226 A 
HETATM   12  N2  UNL     1      23.302   1.636  52.751  1.00  0.00    -0.239 NA
HETATM   13  C10 UNL     1      22.308   1.233  51.801  1.00  0.00     0.228 A 
HETATM   14  N3  UNL     1      22.676   1.783  50.625  1.00  0.00    -0.234 NA
HETATM   15  C11 UNL     1      23.754   2.532  50.429  1.00  0.00     0.257 A 
HETATM   16  O1  UNL     1      23.883   3.049  49.078  1.00  0.00    -0.306 OA
HETATM   17  N4  UNL     1      24.377   3.684  52.847  1.00  0.00    -0.379 N 
HETATM   18  C12 UNL     1      23.791   4.998  52.354  1.00  0.00     0.137 C 
HETATM   19  C13 UNL     1      22.593   4.930  51.654  1.00  0.00     0.022 C 
HETATM   20  C14 UNL     1      21.875   6.088  51.104  1.00  0.00    -0.012 C 
HETATM   21  C15 UNL     1      21.167   6.239  50.054  1.00  0.00    -0.029 C 
HETATM   22  C16 UNL     1      21.670   5.691  48.941  1.00  0.00     0.026 C 
HETATM   23  H5  UNL     1      26.334   3.758  52.110  1.00  0.00     0.159 HD
HETATM   24  H7  UNL     1      24.899   3.629  53.721  1.00  0.00     0.156 HD
ENDROOT
TORSDOF 0
ENDMDL
MODEL 7
REMARK VINA RESULT:      -6.9      4.105      6.048
REMARK  0 active torsions:
REMARK  status: ('A' for Active; 'I' for Inactive)
ROOT
HETATM    1 BR1  UNL     1      27.001   4.404  48.977  1.00  0.00    -0.051 Br
HETATM    2  C1  UNL     1      25.319   4.520  49.859  1.00  0.00     0.012 A 
HETATM    3  C2  UNL     1      25.047   3.927  51.119  1.00  0.00     0.033 A 
HETATM    4  C3  UNL     1      23.838   3.976  51.827  1.00  0.00     0.000 A 
HETATM    5  C4  UNL     1      22.810   4.681  51.234  1.00  0.00     0.091 A 
HETATM    6  C5  UNL     1      23.170   5.228  49.980  1.00  0.00    -0.005 A 
HETATM    7  C6  UNL     1      24.314   5.230  49.219  1.00  0.00     0.030 A 
HETATM    8  C7  UNL     1      22.092   5.760  49.055  1.00  0.00     0.161 C 
HETATM    9  N1  UNL     1      21.321   4.492  48.721  1.00  0.00    -0.384 N 
HETATM   10  C8  UNL     1      20.704   3.875  49.774  1.00  0.00     0.102 A 
HETATM   11  C9  UNL     1      19.826   2.946  49.944  1.00  0.00     0.226 A 
HETATM   12  N2  UNL     1      18.948   2.099  50.473  1.00  0.00    -0.239 NA
HETATM   13  C10 UNL     1      18.907   2.351  51.883  1.00  0.00     0.228 A 
HETATM   14  N3  UNL     1      19.792   3.344  52.107  1.00  0.00    -0.234 NA
HETATM   15  C11 UNL     1      20.526   3.947  51.179  1.00  0.00     0.257 A 
HETATM   16  O1  UNL     1      21.444   4.944  51.699  1.00  0.00    -0.306 OA
HETATM   17  N4  UNL     1      20.818   2.160  49.109  1.00  0.00    -0.379 N 
HETATM   18  C12 UNL     1      22.241   1.883  49.570  1.00  0.00     0.137 C 
HETATM   19  C13 UNL     1      22.443   1.741  50.937  1.00  0.00     0.022 C 
HETATM   20  C14 UNL     1      23.742   1.469  51.570  1.00  0.00    -0.012 C 
HETATM   21  C15 UNL     1      24.246   1.832  52.683  1.00  0.00    -0.029 C 
HETATM   22  C16 UNL     1      24.067   3.121  53.000  1.00  0.00     0.026 C 
HETATM   23  H5  UNL     1      21.055   3.857  47.908  1.00  0.00     0.159 HD
HETATM   24  H7  UNL     1      20.467   1.801  48.222  1.00  0.00     0.156 HD
ENDROOT
TORSDOF 0
ENDMDL
MODEL 8
REMARK VINA RESULT:      -6.9      4.407      6.734
REMARK  0 active torsions:
REMARK  status: ('A' for Active; 'I' for Inactive)
ROOT
HETATM    1 BR1  UNL     1      26.045   2.480  51.225  1.00  0.00    -0.051 Br
HETATM    2  C1  UNL     1      24.192   2.723  51.587  1.00  0.00     0.012 A 
HETATM    3  C2  UNL     1      23.428   1.854  52.409  1.00  0.00     0.033 A 
HETATM    4  C3  UNL     1      22.067   1.975  52.721  1.00  0.00     0.000 A 
HETATM    5  C4  UNL     1      21.407   3.057  52.174  1.00  0.00     0.091 A 
HETATM    6  C5  UNL     1      22.244   3.859  51.364  1.00  0.00    -0.005 A 
HETATM    7  C6  UNL     1      23.571   3.819  51.006  1.00  0.00     0.030 A 
HETATM    8  C7  UNL     1      21.630   4.898  50.444  1.00  0.00     0.161 C 
HETATM    9  N1  UNL     1      20.862   4.023  49.464  1.00  0.00    -0.384 N 
HETATM   10  C8  UNL     1      19.846   3.279  49.999  1.00  0.00     0.102 A 
HETATM   11  C9  UNL     1      18.850   2.587  49.563  1.00  0.00     0.226 A 
HETATM   12  N2  UNL     1      17.741   1.858  49.475  1.00  0.00    -0.239 NA
HETATM   13  C10 UNL     1      17.251   1.664  50.808  1.00  0.00     0.228 A 
HETATM   14  N3  UNL     1      18.126   2.292  51.619  1.00  0.00    -0.234 NA
HETATM   15  C11 UNL     1      19.206   2.954  51.222  1.00  0.00     0.257 A 
HETATM   16  O1  UNL     1      20.011   3.487  52.307  1.00  0.00    -0.306 OA
HETATM   17  N4  UNL     1      19.957   1.881  48.804  1.00  0.00    -0.379 N 
HETATM   18  C12 UNL     1      21.085   1.137  49.502  1.00  0.00     0.137 C 
HETATM   19  C13 UNL     1      20.785   0.535  50.718  1.00  0.00     0.022 C 
HETATM   20  C14 UNL     1      21.739  -0.227  51.535  1.00  0.00    -0.012 C 
HETATM   21  C15 UNL     1      21.873  -0.360  52.797  1.00  0.00    -0.029 C 
HETATM   22  C16 UNL     1      21.765   0.770  53.506  1.00  0.00     0.026 C 
HETATM   23  H5  UNL     1      20.812   3.755  48.435  1.00  0.00     0.159 HD
HETATM   24  H7  UNL     1      19.889   1.911  47.787  1.00  0.00     0.156 HD
ENDROOT
TORSDOF 0
ENDMDL
MODEL 9
REMARK VINA RESULT:      -6.8      3.556      5.340
REMARK  0 active torsions:
REMARK  status: ('A' for Active; 'I' for Inactive)
ROOT
HETATM    1 BR1  UNL     1      27.753   2.137  53.439  1.00  0.00    -0.051 Br
HETATM    2  C1  UNL     1      26.278   2.191  52.237  1.00  0.00     0.012 A 
HETATM    3  C2  UNL     1      26.269   2.944  51.035  1.00  0.00     0.033 A 
HETATM    4  C3  UNL     1      25.224   3.027  50.104  1.00  0.00     0.000 A 
HETATM    5  C4  UNL     1      24.091   2.291  50.389  1.00  0.00     0.091 A 
HETATM    6  C5  UNL     1      24.189   1.581  51.608  1.00  0.00    -0.005 A 
HETATM    7  C6  UNL     1      25.159   1.443  52.572  1.00  0.00     0.030 A 
HETATM    8  C7  UNL     1      22.943   0.977  52.228  1.00  0.00     0.161 C 
HETATM    9  N1  UNL     1      22.134   2.221  52.565  1.00  0.00    -0.384 N 
HETATM   10  C8  UNL     1      21.746   2.985  51.499  1.00  0.00     0.102 A 
HETATM   11  C9  UNL     1      20.929   3.958  51.281  1.00  0.00     0.226 A 
HETATM   12  N2  UNL     1      20.183   4.896  50.704  1.00  0.00    -0.239 NA
HETATM   13  C10 UNL     1      20.420   4.822  49.292  1.00  0.00     0.228 A 
HETATM   14  N3  UNL     1      21.321   3.833  49.120  1.00  0.00    -0.234 NA
HETATM   15  C11 UNL     1      21.850   3.094  50.089  1.00  0.00     0.257 A 
HETATM   16  O1  UNL     1      22.842   2.136  49.635  1.00  0.00    -0.306 OA
HETATM   17  N4  UNL     1      21.744   4.599  52.388  1.00  0.00    -0.379 N 
HETATM   18  C12 UNL     1      23.232   4.881  52.254  1.00  0.00     0.137 C 
HETATM   19  C13 UNL     1      23.704   5.183  50.982  1.00  0.00     0.022 C 
HETATM   20  C14 UNL     1      25.105   5.484  50.657  1.00  0.00    -0.012 C 
HETATM   21  C15 UNL     1      25.817   5.244  49.626  1.00  0.00    -0.029 C 
HETATM   22  C16 UNL     1      25.690   4.012  49.118  1.00  0.00     0.026 C 
HETATM   23  H5  UNL     1      21.719   2.760  53.385  1.00  0.00     0.159 HD
HETATM   24  H7  UNL     1      21.227   4.859  53.228  1.00  0.00     0.156 HD
ENDROOT
TORSDOF 0
ENDMDL
