MODEL 1
REMARK VINA RESULT:      -7.7      0.000      0.000
REMARK  4 active torsions:
REMARK  status: ('A' for Active; 'I' for Inactive)
REMARK    1  A    between atoms: C2_2  and  C3_3 
REMARK    2  A    between atoms: C4_4  and  C5_5 
REMARK    3  A    between atoms: C8_10  and  N3_11 
REMARK    4  A    between atoms: N3_11  and  C9_12 
ROOT
HETATM    1  C5  UNL     1      26.967   1.553  53.107  1.00  0.00     0.027 A 
HETATM    2  C6  UNL     1      28.100   2.156  53.670  1.00  0.00     0.133 A 
HETATM    3  N1  UNL     1      28.899   1.487  54.516  1.00  0.00    -0.253 NA
HETATM    4  C7  UNL     1      28.680   0.215  54.879  1.00  0.00     0.234 A 
HETATM    5  N2  UNL     1      27.597  -0.384  54.352  1.00  0.00    -0.224 NA
HETATM    6  C8  UNL     1      26.775   0.256  53.502  1.00  0.00     0.141 A 
ENDROOT
BRANCH   6   7
HETATM    7  N3  UNL     1      25.670  -0.459  53.020  1.00  0.00    -0.340 N 
HETATM    8  H7  UNL     1      26.005  -0.897  52.146  1.00  0.00     0.167 HD
BRANCH   7   9
HETATM    9  C9  UNL     1      24.381  -0.546  53.651  1.00  0.00     0.034 A 
HETATM   10  C10 UNL     1      24.095  -1.207  54.822  1.00  0.00     0.029 A 
HETATM   11  C11 UNL     1      22.831  -1.212  55.373  1.00  0.00     0.003 A 
HETATM   12  C12 UNL     1      21.800  -0.523  54.721  1.00  0.00     0.007 A 
HETATM   13  C13 UNL     1      22.056   0.161  53.527  1.00  0.00    -0.060 A 
HETATM   14  C14 UNL     1      20.932   0.894  52.864  1.00  0.00     0.048 C 
HETATM   15  C15 UNL     1      23.335   0.116  53.050  1.00  0.00     0.036 A 
ENDBRANCH   7   9
ENDBRANCH   6   7
BRANCH   1  16
HETATM   16  C4  UNL     1      26.196   2.349  52.182  1.00  0.00     0.017 C 
HETATM   17  C3  UNL     1      26.641   2.520  50.954  1.00  0.00     0.009 C 
BRANCH  17  18
HETATM   18  C2  UNL     1      25.841   3.341  50.030  1.00  0.00    -0.051 A 
HETATM   19  C1  UNL     1      25.870   4.426  49.324  1.00  0.00     0.043 A 
HETATM   20  O1  UNL     1      24.659   3.589  49.304  1.00  0.00     0.000 OA
HETATM   21  C16 UNL     1      23.450   2.942  49.670  1.00  0.00     0.000 C 
ENDBRANCH  17  18
ENDBRANCH   1  16
TORSDOF 4
ENDMDL
MODEL 2
REMARK VINA RESULT:      -7.7      2.616      5.606
REMARK  4 active torsions:
REMARK  status: ('A' for Active; 'I' for Inactive)
REMARK    1  A    between atoms: C2_2  and  C3_3 
REMARK    2  A    between atoms: C4_4  and  C5_5 
REMARK    3  A    between atoms: C8_10  and  N3_11 
REMARK    4  A    between atoms: N3_11  and  C9_12 
ROOT
HETATM    1  C5  UNL     1      24.817   2.449  51.662  1.00  0.00     0.027 A 
HETATM    2  C6  UNL     1      24.237   2.823  50.443  1.00  0.00     0.133 A 
HETATM    3  N1  UNL     1      24.973   3.351  49.452  1.00  0.00    -0.253 NA
HETATM    4  C7  UNL     1      26.294   3.556  49.551  1.00  0.00     0.234 A 
HETATM    5  N2  UNL     1      26.872   3.205  50.714  1.00  0.00    -0.224 NA
HETATM    6  C8  UNL     1      26.166   2.674  51.727  1.00  0.00     0.141 A 
ENDROOT
BRANCH   6   7
HETATM    7  N3  UNL     1      26.867   2.354  52.898  1.00  0.00    -0.340 N 
HETATM    8  H7  UNL     1      26.602   3.093  53.569  1.00  0.00     0.167 HD
BRANCH   7   9
HETATM    9  C9  UNL     1      27.736   1.223  53.079  1.00  0.00     0.034 A 
HETATM   10  C10 UNL     1      29.025   1.259  53.555  1.00  0.00     0.029 A 
HETATM   11  C11 UNL     1      29.777   0.117  53.725  1.00  0.00     0.003 A 
HETATM   12  C12 UNL     1      29.215  -1.125  53.405  1.00  0.00     0.007 A 
HETATM   13  C13 UNL     1      27.904  -1.199  52.918  1.00  0.00    -0.060 A 
HETATM   14  C14 UNL     1      27.333  -2.544  52.595  1.00  0.00     0.048 C 
HETATM   15  C15 UNL     1      27.228  -0.021  52.778  1.00  0.00     0.036 A 
ENDBRANCH   7   9
ENDBRANCH   6   7
BRANCH   1  16
HETATM   16  C4  UNL     1      23.943   1.858  52.646  1.00  0.00     0.017 C 
HETATM   17  C3  UNL     1      23.763   0.553  52.648  1.00  0.00     0.009 C 
BRANCH  17  18
HETATM   18  C2  UNL     1      22.862  -0.028  53.657  1.00  0.00    -0.051 A 
HETATM   19  C1  UNL     1      22.765  -0.979  54.531  1.00  0.00     0.043 A 
HETATM   20  O1  UNL     1      21.641  -0.043  54.361  1.00  0.00     0.000 OA
HETATM   21  C16 UNL     1      20.512   0.641  53.842  1.00  0.00     0.000 C 
ENDBRANCH  17  18
ENDBRANCH   1  16
TORSDOF 4
ENDMDL
MODEL 3
REMARK VINA RESULT:      -7.5      1.924      5.212
REMARK  4 active torsions:
REMARK  status: ('A' for Active; 'I' for Inactive)
REMARK    1  A    between atoms: C2_2  and  C3_3 
REMARK    2  A    between atoms: C4_4  and  C5_5 
REMARK    3  A    between atoms: C8_10  and  N3_11 
REMARK    4  A    between atoms: N3_11  and  C9_12 
ROOT
HETATM    1  C5  UNL     1      26.496   0.453  53.355  1.00  0.00     0.027 A 
HETATM    2  C6  UNL     1      27.092   0.257  54.607  1.00  0.00     0.133 A 
HETATM    3  N1  UNL     1      28.259   0.838  54.925  1.00  0.00    -0.253 NA
HETATM    4  C7  UNL     1      28.931   1.638  54.084  1.00  0.00     0.234 A 
HETATM    5  N2  UNL     1      28.378   1.841  52.875  1.00  0.00    -0.224 NA
HETATM    6  C8  UNL     1      27.211   1.274  52.523  1.00  0.00     0.141 A 
ENDROOT
BRANCH   6   7
HETATM    7  N3  UNL     1      26.730   1.544  51.235  1.00  0.00    -0.340 N 
HETATM    8  H7  UNL     1      26.956   0.696  50.690  1.00  0.00     0.167 HD
BRANCH   7   9
HETATM    9  C9  UNL     1      26.059   2.746  50.819  1.00  0.00     0.034 A 
HETATM   10  C10 UNL     1      24.810   3.158  51.221  1.00  0.00     0.029 A 
HETATM   11  C11 UNL     1      24.256   4.346  50.794  1.00  0.00     0.003 A 
HETATM   12  C12 UNL     1      24.985   5.164  49.921  1.00  0.00     0.007 A 
HETATM   13  C13 UNL     1      26.260   4.776  49.492  1.00  0.00    -0.060 A 
HETATM   14  C14 UNL     1      27.013   5.680  48.567  1.00  0.00     0.048 C 
HETATM   15  C15 UNL     1      26.735   3.585  49.962  1.00  0.00     0.036 A 
ENDBRANCH   7   9
ENDBRANCH   6   7
BRANCH   1  16
HETATM   16  C4  UNL     1      25.224  -0.189  53.129  1.00  0.00     0.017 C 
HETATM   17  C3  UNL     1      24.119   0.413  53.522  1.00  0.00     0.009 C 
BRANCH  17  18
HETATM   18  C2  UNL     1      22.833  -0.265  53.287  1.00  0.00    -0.051 A 
HETATM   19  C1  UNL     1      22.108  -1.266  53.673  1.00  0.00     0.043 A 
HETATM   20  O1  UNL     1      21.600  -0.377  52.615  1.00  0.00     0.000 OA
HETATM   21  C16 UNL     1      21.405   0.281  51.373  1.00  0.00     0.000 C 
ENDBRANCH  17  18
ENDBRANCH   1  16
TORSDOF 4
ENDMDL
MODEL 4
REMARK VINA RESULT:      -7.4      1.606      1.984
REMARK  4 active torsions:
REMARK  status: ('A' for Active; 'I' for Inactive)
REMARK    1  A    between atoms: C2_2  and  C3_3 
REMARK    2  A    between atoms: C4_4  and  C5_5 
REMARK    3  A    between atoms: C8_10  and  N3_11 
REMARK    4  A    between atoms: N3_11  and  C9_12 
ROOT
HETATM    1  C5  UNL     1      26.021   1.479  53.265  1.00  0.00     0.027 A 
HETATM    2  C6  UNL     1      27.131   2.102  53.852  1.00  0.00     0.133 A 
HETATM    3  N1  UNL     1      28.041   1.399  54.544  1.00  0.00    -0.253 NA
HETATM    4  C7  UNL     1      27.961   0.072  54.722  1.00  0.00     0.234 A 
HETATM    5  N2  UNL     1      26.903  -0.547  54.168  1.00  0.00    -0.224 NA
HETATM    6  C8  UNL     1      25.973   0.126  53.469  1.00  0.00     0.141 A 
ENDROOT
BRANCH   6   7
HETATM    7  N3  UNL     1      24.906  -0.616  52.943  1.00  0.00    -0.340 N 
HETATM    8  H7  UNL     1      25.328  -1.178  52.186  1.00  0.00     0.167 HD
BRANCH   7   9
HETATM    9  C9  UNL     1      23.545  -0.581  53.405  1.00  0.00     0.034 A 
HETATM   10  C10 UNL     1      23.110  -0.898  54.670  1.00  0.00     0.029 A 
HETATM   11  C11 UNL     1      21.784  -0.806  55.035  1.00  0.00     0.003 A 
HETATM   12  C12 UNL     1      20.844  -0.375  54.090  1.00  0.00     0.007 A 
HETATM   13  C13 UNL     1      21.252  -0.043  52.792  1.00  0.00    -0.060 A 
HETATM   14  C14 UNL     1      20.221   0.423  51.813  1.00  0.00     0.048 C 
HETATM   15  C15 UNL     1      22.584  -0.163  52.513  1.00  0.00     0.036 A 
ENDBRANCH   7   9
ENDBRANCH   6   7
BRANCH   1  16
HETATM   16  C4  UNL     1      25.123   2.321  52.512  1.00  0.00     0.017 C 
HETATM   17  C3  UNL     1      24.259   3.079  53.157  1.00  0.00     0.009 C 
BRANCH  17  18
HETATM   18  C2  UNL     1      23.347   3.925  52.368  1.00  0.00    -0.051 A 
HETATM   19  C1  UNL     1      22.120   4.026  51.967  1.00  0.00     0.043 A 
HETATM   20  O1  UNL     1      23.091   5.061  51.575  1.00  0.00     0.000 OA
HETATM   21  C16 UNL     1      24.164   5.748  50.950  1.00  0.00     0.000 C 
ENDBRANCH  17  18
ENDBRANCH   1  16
TORSDOF 4
ENDMDL
MODEL 5
REMARK VINA RESULT:      -7.3      2.819      5.422
REMARK  4 active torsions:
REMARK  status: ('A' for Active; 'I' for Inactive)
REMARK    1  A    between atoms: C2_2  and  C3_3 
REMARK    2  A    between atoms: C4_4  and  C5_5 
REMARK    3  A    between atoms: C8_10  and  N3_11 
REMARK    4  A    between atoms: N3_11  and  C9_12 
ROOT
HETATM    1  C5  UNL     1      24.654  -0.626  54.207  1.00  0.00     0.027 A 
HETATM    2  C6  UNL     1      24.237  -1.295  55.366  1.00  0.00     0.133 A 
HETATM    3  N1  UNL     1      22.935  -1.488  55.630  1.00  0.00    -0.253 NA
HETATM    4  C7  UNL     1      21.953  -1.064  54.821  1.00  0.00     0.234 A 
HETATM    5  N2  UNL     1      22.331  -0.418  53.703  1.00  0.00    -0.224 NA
HETATM    6  C8  UNL     1      23.624  -0.207  53.407  1.00  0.00     0.141 A 
ENDROOT
BRANCH   6   7
HETATM    7  N3  UNL     1      23.906   0.486  52.222  1.00  0.00    -0.340 N 
HETATM    8  H7  UNL     1      24.147  -0.252  51.540  1.00  0.00     0.167 HD
BRANCH   7   9
HETATM    9  C9  UNL     1      23.841   1.911  52.042  1.00  0.00     0.034 A 
HETATM   10  C10 UNL     1      23.833   2.855  53.043  1.00  0.00     0.029 A 
HETATM   11  C11 UNL     1      23.800   4.207  52.776  1.00  0.00     0.003 A 
HETATM   12  C12 UNL     1      23.774   4.639  51.444  1.00  0.00     0.007 A 
HETATM   13  C13 UNL     1      23.781   3.706  50.400  1.00  0.00    -0.060 A 
HETATM   14  C14 UNL     1      23.763   4.206  48.990  1.00  0.00     0.048 C 
HETATM   15  C15 UNL     1      23.815   2.387  50.751  1.00  0.00     0.036 A 
ENDBRANCH   7   9
ENDBRANCH   6   7
BRANCH   1  16
HETATM   16  C4  UNL     1      26.077  -0.504  54.001  1.00  0.00     0.017 C 
HETATM   17  C3  UNL     1      26.737   0.458  54.615  1.00  0.00     0.009 C 
BRANCH  17  18
HETATM   18  C2  UNL     1      28.187   0.566  54.384  1.00  0.00    -0.051 A 
HETATM   19  C1  UNL     1      29.164   1.416  54.334  1.00  0.00     0.043 A 
HETATM   20  O1  UNL     1      29.439  -0.011  54.094  1.00  0.00     0.000 OA
HETATM   21  C16 UNL     1      29.509  -1.299  53.503  1.00  0.00     0.000 C 
ENDBRANCH  17  18
ENDBRANCH   1  16
TORSDOF 4
ENDMDL
MODEL 6
REMARK VINA RESULT:      -7.2      2.827      4.799
REMARK  4 active torsions:
REMARK  status: ('A' for Active; 'I' for Inactive)
REMARK    1  A    between atoms: C2_2  and  C3_3 
REMARK    2  A    between atoms: C4_4  and  C5_5 
REMARK    3  A    between atoms: C8_10  and  N3_11 
REMARK    4  A    between atoms: N3_11  and  C9_12 
ROOT
HETATM    1  C5  UNL     1      26.010   2.731  51.203  1.00  0.00     0.027 A 
HETATM    2  C6  UNL     1      26.747   3.220  50.115  1.00  0.00     0.133 A 
HETATM    3  N1  UNL     1      26.257   4.180  49.316  1.00  0.00    -0.253 NA
HETATM    4  C7  UNL     1      25.050   4.736  49.493  1.00  0.00     0.234 A 
HETATM    5  N2  UNL     1      24.325   4.282  50.531  1.00  0.00    -0.224 NA
HETATM    6  C8  UNL     1      24.783   3.322  51.351  1.00  0.00     0.141 A 
ENDROOT
BRANCH   6   7
HETATM    7  N3  UNL     1      23.941   2.915  52.396  1.00  0.00    -0.340 N 
HETATM    8  H7  UNL     1      24.081   3.624  53.134  1.00  0.00     0.167 HD
BRANCH   7   9
HETATM    9  C9  UNL     1      23.077   1.765  52.384  1.00  0.00     0.034 A 
HETATM   10  C10 UNL     1      22.208   1.415  51.378  1.00  0.00     0.029 A 
HETATM   11  C11 UNL     1      21.437   0.273  51.438  1.00  0.00     0.003 A 
HETATM   12  C12 UNL     1      21.540  -0.561  52.559  1.00  0.00     0.007 A 
HETATM   13  C13 UNL     1      22.416  -0.235  53.602  1.00  0.00    -0.060 A 
HETATM   14  C14 UNL     1      22.505  -1.155  54.778  1.00  0.00     0.048 C 
HETATM   15  C15 UNL     1      23.142   0.913  53.463  1.00  0.00     0.036 A 
ENDBRANCH   7   9
ENDBRANCH   6   7
BRANCH   1  16
HETATM   16  C4  UNL     1      26.643   1.724  52.020  1.00  0.00     0.017 C 
HETATM   17  C3  UNL     1      26.422   0.452  51.762  1.00  0.00     0.009 C 
BRANCH  17  18
HETATM   18  C2  UNL     1      27.073  -0.558  52.613  1.00  0.00    -0.051 A 
HETATM   19  C1  UNL     1      27.174  -1.834  52.809  1.00  0.00     0.043 A 
HETATM   20  O1  UNL     1      27.929  -0.913  53.675  1.00  0.00     0.000 OA
HETATM   21  C16 UNL     1      28.272   0.046  54.663  1.00  0.00     0.000 C 
ENDBRANCH  17  18
ENDBRANCH   1  16
TORSDOF 4
ENDMDL
MODEL 7
REMARK VINA RESULT:      -7.0      3.104      4.853
REMARK  4 active torsions:
REMARK  status: ('A' for Active; 'I' for Inactive)
REMARK    1  A    between atoms: C2_2  and  C3_3 
REMARK    2  A    between atoms: C4_4  and  C5_5 
REMARK    3  A    between atoms: C8_10  and  N3_11 
REMARK    4  A    between atoms: N3_11  and  C9_12 
ROOT
HETATM    1  C5  UNL     1      23.467   3.345  52.474  1.00  0.00     0.027 A 
HETATM    2  C6  UNL     1      23.241   4.728  52.473  1.00  0.00     0.133 A 
HETATM    3  N1  UNL     1      22.196   5.264  51.824  1.00  0.00    -0.253 NA
HETATM    4  C7  UNL     1      21.304   4.531  51.142  1.00  0.00     0.234 A 
HETATM    5  N2  UNL     1      21.502   3.202  51.128  1.00  0.00    -0.224 NA
HETATM    6  C8  UNL     1      22.538   2.631  51.766  1.00  0.00     0.141 A 
ENDROOT
BRANCH   6   7
HETATM    7  N3  UNL     1      22.655   1.237  51.679  1.00  0.00    -0.340 N 
HETATM    8  H7  UNL     1      23.216   1.076  50.827  1.00  0.00     0.167 HD
BRANCH   7   9
HETATM    9  C9  UNL     1      22.111   0.284  52.609  1.00  0.00     0.034 A 
HETATM   10  C10 UNL     1      22.812  -0.391  53.581  1.00  0.00     0.029 A 
HETATM   11  C11 UNL     1      22.200  -1.266  54.452  1.00  0.00     0.003 A 
HETATM   12  C12 UNL     1      20.820  -1.479  54.349  1.00  0.00     0.007 A 
HETATM   13  C13 UNL     1      20.075  -0.808  53.371  1.00  0.00    -0.060 A 
HETATM   14  C14 UNL     1      18.601  -1.054  53.298  1.00  0.00     0.048 C 
HETATM   15  C15 UNL     1      20.758   0.041  52.549  1.00  0.00     0.036 A 
ENDBRANCH   7   9
ENDBRANCH   6   7
BRANCH   1  16
HETATM   16  C4  UNL     1      24.599   2.870  53.233  1.00  0.00     0.017 C 
HETATM   17  C3  UNL     1      25.716   2.567  52.602  1.00  0.00     0.009 C 
BRANCH  17  18
HETATM   18  C2  UNL     1      26.855   2.077  53.396  1.00  0.00    -0.051 A 
HETATM   19  C1  UNL     1      28.141   2.172  53.525  1.00  0.00     0.043 A 
HETATM   20  O1  UNL     1      27.391   1.288  54.433  1.00  0.00     0.000 OA
HETATM   21  C16 UNL     1      26.643   0.203  54.960  1.00  0.00     0.000 C 
ENDBRANCH  17  18
ENDBRANCH   1  16
TORSDOF 4
ENDMDL
MODEL 8
REMARK VINA RESULT:      -6.9      2.687      5.312
REMARK  4 active torsions:
REMARK  status: ('A' for Active; 'I' for Inactive)
REMARK    1  A    between atoms: C2_2  and  C3_3 
REMARK    2  A    between atoms: C4_4  and  C5_5 
REMARK    3  A    between atoms: C8_10  and  N3_11 
REMARK    4  A    between atoms: N3_11  and  C9_12 
ROOT
HETATM    1  C5  UNL     1      23.254   0.196  53.386  1.00  0.00     0.027 A 
HETATM    2  C6  UNL     1      23.393  -0.887  54.264  1.00  0.00     0.133 A 
HETATM    3  N1  UNL     1      22.342  -1.377  54.940  1.00  0.00    -0.253 NA
HETATM    4  C7  UNL     1      21.102  -0.879  54.828  1.00  0.00     0.234 A 
HETATM    5  N2  UNL     1      20.946   0.163  53.991  1.00  0.00    -0.224 NA
HETATM    6  C8  UNL     1      21.975   0.679  53.299  1.00  0.00     0.141 A 
ENDROOT
BRANCH   6   7
HETATM    7  N3  UNL     1      21.703   1.771  52.463  1.00  0.00    -0.340 N 
HETATM    8  H7  UNL     1      21.386   2.516  53.104  1.00  0.00     0.167 HD
BRANCH   7   9
HETATM    9  C9  UNL     1      21.864   1.800  51.034  1.00  0.00     0.034 A 
HETATM   10  C10 UNL     1      21.365   0.879  50.144  1.00  0.00     0.029 A 
HETATM   11  C11 UNL     1      21.542   1.003  48.782  1.00  0.00     0.003 A 
HETATM   12  C12 UNL     1      22.253   2.103  48.285  1.00  0.00     0.007 A 
HETATM   13  C13 UNL     1      22.775   3.060  49.163  1.00  0.00    -0.060 A 
HETATM   14  C14 UNL     1      23.520   4.226  48.594  1.00  0.00     0.048 C 
HETATM   15  C15 UNL     1      22.554   2.862  50.496  1.00  0.00     0.036 A 
ENDBRANCH   7   9
ENDBRANCH   6   7
BRANCH   1  16
HETATM   16  C4  UNL     1      24.440   0.622  52.683  1.00  0.00     0.017 C 
HETATM   17  C3  UNL     1      25.080   1.699  53.091  1.00  0.00     0.009 C 
BRANCH  17  18
HETATM   18  C2  UNL     1      26.283   2.118  52.353  1.00  0.00    -0.051 A 
HETATM   19  C1  UNL     1      26.736   2.351  51.162  1.00  0.00     0.043 A 
HETATM   20  O1  UNL     1      27.632   2.524  52.318  1.00  0.00     0.000 OA
HETATM   21  C16 UNL     1      28.480   2.272  53.427  1.00  0.00     0.000 C 
ENDBRANCH  17  18
ENDBRANCH   1  16
TORSDOF 4
ENDMDL
MODEL 9
REMARK VINA RESULT:      -6.7      3.005      4.899
REMARK  4 active torsions:
REMARK  status: ('A' for Active; 'I' for Inactive)
REMARK    1  A    between atoms: C2_2  and  C3_3 
REMARK    2  A    between atoms: C4_4  and  C5_5 
REMARK    3  A    between atoms: C8_10  and  N3_11 
REMARK    4  A    between atoms: N3_11  and  C9_12 
ROOT
HETATM    1  C5  UNL     1      24.220   2.491  51.479  1.00  0.00     0.027 A 
HETATM    2  C6  UNL     1      24.618   3.833  51.533  1.00  0.00     0.133 A 
HETATM    3  N1  UNL     1      23.727   4.831  51.428  1.00  0.00    -0.253 NA
HETATM    4  C7  UNL     1      22.412   4.623  51.269  1.00  0.00     0.234 A 
HETATM    5  N2  UNL     1      22.006   3.342  51.213  1.00  0.00    -0.224 NA
HETATM    6  C8  UNL     1      22.872   2.319  51.314  1.00  0.00     0.141 A 
ENDROOT
BRANCH   6   7
HETATM    7  N3  UNL     1      22.344   1.023  51.234  1.00  0.00    -0.340 N 
HETATM    8  H7  UNL     1      22.514   0.733  50.257  1.00  0.00     0.167 HD
BRANCH   7   9
HETATM    9  C9  UNL     1      21.727   0.294  52.310  1.00  0.00     0.034 A 
HETATM   10  C10 UNL     1      20.385   0.026  52.443  1.00  0.00     0.029 A 
HETATM   11  C11 UNL     1      19.885  -0.709  53.496  1.00  0.00     0.003 A 
HETATM   12  C12 UNL     1      20.768  -1.203  54.465  1.00  0.00     0.007 A 
HETATM   13  C13 UNL     1      22.141  -0.949  54.360  1.00  0.00    -0.060 A 
HETATM   14  C14 UNL     1      23.055  -1.501  55.409  1.00  0.00     0.048 C 
HETATM   15  C15 UNL     1      22.554  -0.213  53.287  1.00  0.00     0.036 A 
ENDBRANCH   7   9
ENDBRANCH   6   7
BRANCH   1  16
HETATM   16  C4  UNL     1      25.254   1.497  51.638  1.00  0.00     0.017 C 
HETATM   17  C3  UNL     1      25.626   1.142  52.851  1.00  0.00     0.009 C 
BRANCH  17  18
HETATM   18  C2  UNL     1      26.688   0.131  52.989  1.00  0.00    -0.051 A 
HETATM   19  C1  UNL     1      27.013  -1.077  52.653  1.00  0.00     0.043 A 
HETATM   20  O1  UNL     1      27.941  -0.286  53.479  1.00  0.00     0.000 OA
HETATM   21  C16 UNL     1      28.544   0.399  54.566  1.00  0.00     0.000 C 
ENDBRANCH  17  18
ENDBRANCH   1  16
TORSDOF 4
ENDMDL
