MODEL 1
REMARK VINA RESULT:      -6.9      0.000      0.000
REMARK  4 active torsions:
REMARK  status: ('A' for Active; 'I' for Inactive)
REMARK    1  A    between atoms: C2_2  and  N3_15 
REMARK    2  A    between atoms: C3_3  and  C4_4 
REMARK    3  A    between atoms: N1_7  and  C7_8 
REMARK       I    between atoms: N3_15  and  C13_16 
REMARK    4  A    between atoms: C13_16  and  C14_18 
ROOT
HETATM    1  C4  UNL     1      23.517   0.793  53.035  1.00  0.00     0.135 C 
HETATM    2  C5  UNL     1      24.475   1.709  52.293  1.00  0.00     0.052 C 
HETATM    3  C6  UNL     1      25.772   1.678  53.083  1.00  0.00     0.132 C 
HETATM    4  N1  UNL     1      26.259   0.307  53.215  1.00  0.00    -0.342 N 
HETATM    5  C12 UNL     1      25.303  -0.722  53.156  1.00  0.00     0.204 C 
HETATM    6  N2  UNL     1      24.047  -0.542  53.073  1.00  0.00    -0.275 NA
ENDROOT
BRANCH   1   7
HETATM    7  C3  UNL     1      22.154   0.852  52.479  1.00  0.00     0.025 C 
HETATM    8  C2  UNL     1      21.021   0.618  53.124  1.00  0.00     0.006 C 
HETATM    9  C1  UNL     1      21.157   0.257  54.561  1.00  0.00     0.068 C 
BRANCH   8  10
HETATM   10  N3  UNL     1      19.844   0.756  52.306  1.00  0.00    -0.328 N 
HETATM   11  C13 UNL     1      19.374   2.095  52.184  1.00  0.00     0.245 C 
HETATM   12  O1  UNL     1      20.008   2.995  52.779  1.00  0.00    -0.268 OA
HETATM   13  H14 UNL     1      19.345  -0.019  51.827  1.00  0.00     0.169 HD
BRANCH  11  14
HETATM   14  C14 UNL     1      18.196   2.433  51.396  1.00  0.00     0.081 C 
HETATM   15  C15 UNL     1      17.503   3.548  51.588  1.00  0.00     0.061 C 
HETATM   16 BR1  UNL     1      15.962   3.994  50.563  1.00  0.00    -0.063 Br
ENDBRANCH  11  14
ENDBRANCH   8  10
ENDBRANCH   1   7
BRANCH   4  17
HETATM   17  C7  UNL     1      27.638   0.010  53.395  1.00  0.00     0.036 C 
HETATM   18  C8  UNL     1      27.986  -1.256  53.129  1.00  0.00     0.030 C 
HETATM   19  C9  UNL     1      29.439  -1.329  53.381  1.00  0.00     0.014 C 
HETATM   20  C10 UNL     1      29.792  -0.157  53.880  1.00  0.00    -0.024 C 
HETATM   21  C11 UNL     1      28.830   0.747  53.811  1.00  0.00     0.042 C 
ENDBRANCH   4  17
TORSDOF 4
ENDMDL
MODEL 2
REMARK VINA RESULT:      -6.9      1.280      1.405
REMARK  4 active torsions:
REMARK  status: ('A' for Active; 'I' for Inactive)
REMARK    1  A    between atoms: C2_2  and  N3_15 
REMARK    2  A    between atoms: C3_3  and  C4_4 
REMARK    3  A    between atoms: N1_7  and  C7_8 
REMARK       I    between atoms: N3_15  and  C13_16 
REMARK    4  A    between atoms: C13_16  and  C14_18 
ROOT
HETATM    1  C4  UNL     1      23.398   0.363  53.000  1.00  0.00     0.135 C 
HETATM    2  C5  UNL     1      24.215   1.253  52.080  1.00  0.00     0.052 C 
HETATM    3  C6  UNL     1      25.513   1.531  52.818  1.00  0.00     0.132 C 
HETATM    4  N1  UNL     1      26.183   0.280  53.165  1.00  0.00    -0.342 N 
HETATM    5  C12 UNL     1      25.375  -0.860  53.317  1.00  0.00     0.204 C 
HETATM    6  N2  UNL     1      24.105  -0.864  53.248  1.00  0.00    -0.275 NA
ENDROOT
BRANCH   1   7
HETATM    7  C3  UNL     1      22.034   0.144  52.490  1.00  0.00     0.025 C 
HETATM    8  C2  UNL     1      20.924   0.045  53.206  1.00  0.00     0.006 C 
HETATM    9  C1  UNL     1      21.090   0.169  54.679  1.00  0.00     0.068 C 
BRANCH   8  10
HETATM   10  N3  UNL     1      19.738  -0.169  52.417  1.00  0.00    -0.328 N 
HETATM   11  C13 UNL     1      19.108   1.031  51.977  1.00  0.00     0.245 C 
HETATM   12  O1  UNL     1      19.628   2.121  52.306  1.00  0.00    -0.268 OA
HETATM   13  H14 UNL     1      19.337  -1.093  52.165  1.00  0.00     0.169 HD
BRANCH  11  14
HETATM   14  C14 UNL     1      17.897   1.017  51.167  1.00  0.00     0.081 C 
HETATM   15  C15 UNL     1      17.623   0.045  50.306  1.00  0.00     0.061 C 
HETATM   16 BR1  UNL     1      16.042   0.022  49.246  1.00  0.00    -0.063 Br
ENDBRANCH  11  14
ENDBRANCH   8  10
ENDBRANCH   1   7
BRANCH   4  17
HETATM   17  C7  UNL     1      27.591   0.203  53.346  1.00  0.00     0.036 C 
HETATM   18  C8  UNL     1      28.118  -1.020  53.196  1.00  0.00     0.030 C 
HETATM   19  C9  UNL     1      29.567  -0.859  53.425  1.00  0.00     0.014 C 
HETATM   20  C10 UNL     1      29.750   0.395  53.802  1.00  0.00    -0.024 C 
HETATM   21  C11 UNL     1      28.666   1.141  53.666  1.00  0.00     0.042 C 
ENDBRANCH   4  17
TORSDOF 4
ENDMDL
MODEL 3
REMARK VINA RESULT:      -6.8      1.912      2.096
REMARK  4 active torsions:
REMARK  status: ('A' for Active; 'I' for Inactive)
REMARK    1  A    between atoms: C2_2  and  N3_15 
REMARK    2  A    between atoms: C3_3  and  C4_4 
REMARK    3  A    between atoms: N1_7  and  C7_8 
REMARK       I    between atoms: N3_15  and  C13_16 
REMARK    4  A    between atoms: C13_16  and  C14_18 
ROOT
HETATM    1  C4  UNL     1      24.584   2.227  52.158  1.00  0.00     0.135 C 
HETATM    2  C5  UNL     1      25.829   2.483  51.326  1.00  0.00     0.052 C 
HETATM    3  C6  UNL     1      27.005   2.118  52.216  1.00  0.00     0.132 C 
HETATM    4  N1  UNL     1      26.886   0.738  52.681  1.00  0.00    -0.342 N 
HETATM    5  C12 UNL     1      25.592   0.196  52.759  1.00  0.00     0.204 C 
HETATM    6  N2  UNL     1      24.520   0.841  52.528  1.00  0.00    -0.275 NA
ENDROOT
BRANCH   1   7
HETATM    7  C3  UNL     1      23.363   2.697  51.483  1.00  0.00     0.025 C 
HETATM    8  C2  UNL     1      22.717   3.832  51.707  1.00  0.00     0.006 C 
HETATM    9  C1  UNL     1      23.300   4.713  52.755  1.00  0.00     0.068 C 
BRANCH   8  10
HETATM   10  N3  UNL     1      21.548   4.012  50.885  1.00  0.00    -0.328 N 
HETATM   11  C13 UNL     1      20.323   3.703  51.542  1.00  0.00     0.245 C 
HETATM   12  O1  UNL     1      20.376   3.319  52.732  1.00  0.00    -0.268 OA
HETATM   13  H14 UNL     1      21.546   4.333  49.898  1.00  0.00     0.169 HD
BRANCH  11  14
HETATM   14  C14 UNL     1      19.034   3.824  50.872  1.00  0.00     0.081 C 
HETATM   15  C15 UNL     1      17.880   3.690  51.513  1.00  0.00     0.061 C 
HETATM   16 BR1  UNL     1      16.194   3.846  50.643  1.00  0.00    -0.063 Br
ENDBRANCH  11  14
ENDBRANCH   8  10
ENDBRANCH   1   7
BRANCH   4  17
HETATM   17  C7  UNL     1      28.023  -0.037  53.042  1.00  0.00     0.036 C 
HETATM   18  C8  UNL     1      27.874  -1.362  52.907  1.00  0.00     0.030 C 
HETATM   19  C9  UNL     1      29.159  -1.950  53.333  1.00  0.00     0.014 C 
HETATM   20  C10 UNL     1      29.896  -0.952  53.788  1.00  0.00    -0.024 C 
HETATM   21  C11 UNL     1      29.368   0.236  53.544  1.00  0.00     0.042 C 
ENDBRANCH   4  17
TORSDOF 4
ENDMDL
MODEL 4
REMARK VINA RESULT:      -6.6      3.301      3.840
REMARK  4 active torsions:
REMARK  status: ('A' for Active; 'I' for Inactive)
REMARK    1  A    between atoms: C2_2  and  N3_15 
REMARK    2  A    between atoms: C3_3  and  C4_4 
REMARK    3  A    between atoms: N1_7  and  C7_8 
REMARK       I    between atoms: N3_15  and  C13_16 
REMARK    4  A    between atoms: C13_16  and  C14_18 
ROOT
HETATM    1  C4  UNL     1      24.400   2.181  51.737  1.00  0.00     0.135 C 
HETATM    2  C5  UNL     1      24.241   1.328  52.984  1.00  0.00     0.052 C 
HETATM    3  C6  UNL     1      25.226   0.182  52.831  1.00  0.00     0.132 C 
HETATM    4  N1  UNL     1      26.582   0.694  52.642  1.00  0.00    -0.342 N 
HETATM    5  C12 UNL     1      26.712   1.975  52.079  1.00  0.00     0.204 C 
HETATM    6  N2  UNL     1      25.743   2.684  51.656  1.00  0.00    -0.275 NA
ENDROOT
BRANCH   1   7
HETATM    7  C3  UNL     1      23.385   3.244  51.662  1.00  0.00     0.025 C 
HETATM    8  C2  UNL     1      22.714   3.630  50.586  1.00  0.00     0.006 C 
HETATM    9  C1  UNL     1      23.034   2.901  49.328  1.00  0.00     0.068 C 
BRANCH   8  10
HETATM   10  N3  UNL     1      21.784   4.701  50.830  1.00  0.00    -0.328 N 
HETATM   11  C13 UNL     1      22.284   5.993  50.496  1.00  0.00     0.245 C 
HETATM   12  O1  UNL     1      23.446   6.071  50.037  1.00  0.00    -0.268 OA
HETATM   13  H14 UNL     1      20.825   4.595  51.213  1.00  0.00     0.169 HD
BRANCH  11  14
HETATM   14  C14 UNL     1      21.489   7.200  50.673  1.00  0.00     0.081 C 
HETATM   15  C15 UNL     1      20.670   7.661  49.736  1.00  0.00     0.061 C 
HETATM   16 BR1  UNL     1      19.629   9.239  49.962  1.00  0.00    -0.063 Br
ENDBRANCH  11  14
ENDBRANCH   8  10
ENDBRANCH   1   7
BRANCH   4  17
HETATM   17  C7  UNL     1      27.731  -0.060  53.007  1.00  0.00     0.036 C 
HETATM   18  C8  UNL     1      28.778   0.665  53.423  1.00  0.00     0.030 C 
HETATM   19  C9  UNL     1      29.836  -0.315  53.743  1.00  0.00     0.014 C 
HETATM   20  C10 UNL     1      29.373  -1.498  53.381  1.00  0.00    -0.024 C 
HETATM   21  C11 UNL     1      28.092  -1.476  53.052  1.00  0.00     0.042 C 
ENDBRANCH   4  17
TORSDOF 4
ENDMDL
MODEL 5
REMARK VINA RESULT:      -6.4      5.257      7.405
REMARK  4 active torsions:
REMARK  status: ('A' for Active; 'I' for Inactive)
REMARK    1  A    between atoms: C2_2  and  N3_15 
REMARK    2  A    between atoms: C3_3  and  C4_4 
REMARK    3  A    between atoms: N1_7  and  C7_8 
REMARK       I    between atoms: N3_15  and  C13_16 
REMARK    4  A    between atoms: C13_16  and  C14_18 
ROOT
HETATM    1  C4  UNL     1      24.353   3.218  51.127  1.00  0.00     0.135 C 
HETATM    2  C5  UNL     1      23.450   3.631  52.276  1.00  0.00     0.052 C 
HETATM    3  C6  UNL     1      22.454   2.498  52.449  1.00  0.00     0.132 C 
HETATM    4  N1  UNL     1      23.150   1.234  52.679  1.00  0.00    -0.342 N 
HETATM    5  C12 UNL     1      24.454   1.117  52.166  1.00  0.00     0.204 C 
HETATM    6  N2  UNL     1      25.036   1.997  51.456  1.00  0.00    -0.275 NA
ENDROOT
BRANCH   1   7
HETATM    7  C3  UNL     1      25.271   4.298  50.729  1.00  0.00     0.025 C 
HETATM    8  C2  UNL     1      25.146   5.105  49.686  1.00  0.00     0.006 C 
HETATM    9  C1  UNL     1      23.945   4.881  48.836  1.00  0.00     0.068 C 
BRANCH   8  10
HETATM   10  N3  UNL     1      26.210   6.066  49.559  1.00  0.00    -0.328 N 
HETATM   11  C13 UNL     1      25.888   7.359  50.062  1.00  0.00     0.245 C 
HETATM   12  O1  UNL     1      24.749   7.532  50.550  1.00  0.00    -0.268 OA
HETATM   13  H14 UNL     1      27.145   5.883  49.147  1.00  0.00     0.169 HD
BRANCH  11  14
HETATM   14  C14 UNL     1      26.838   8.464  50.022  1.00  0.00     0.081 C 
HETATM   15  C15 UNL     1      27.825   8.527  49.137  1.00  0.00     0.061 C 
HETATM   16 BR1  UNL     1      29.069   9.966  49.081  1.00  0.00    -0.063 Br
ENDBRANCH  11  14
ENDBRANCH   8  10
ENDBRANCH   1   7
BRANCH   4  17
HETATM   17  C7  UNL     1      22.548   0.159  53.390  1.00  0.00     0.036 C 
HETATM   18  C8  UNL     1      21.229   0.021  53.203  1.00  0.00     0.030 C 
HETATM   19  C9  UNL     1      20.831  -1.138  54.026  1.00  0.00     0.014 C 
HETATM   20  C10 UNL     1      21.905  -1.500  54.706  1.00  0.00    -0.024 C 
HETATM   21  C11 UNL     1      23.004  -0.880  54.311  1.00  0.00     0.042 C 
ENDBRANCH   4  17
TORSDOF 4
ENDMDL
MODEL 6
REMARK VINA RESULT:      -6.2      5.084      6.022
REMARK  4 active torsions:
REMARK  status: ('A' for Active; 'I' for Inactive)
REMARK    1  A    between atoms: C2_2  and  N3_15 
REMARK    2  A    between atoms: C3_3  and  C4_4 
REMARK    3  A    between atoms: N1_7  and  C7_8 
REMARK       I    between atoms: N3_15  and  C13_16 
REMARK    4  A    between atoms: C13_16  and  C14_18 
ROOT
HETATM    1  C4  UNL     1      24.867   3.895  50.309  1.00  0.00     0.135 C 
HETATM    2  C5  UNL     1      24.380   4.877  49.259  1.00  0.00     0.052 C 
HETATM    3  C6  UNL     1      25.438   5.965  49.186  1.00  0.00     0.132 C 
HETATM    4  N1  UNL     1      26.746   5.389  48.884  1.00  0.00    -0.342 N 
HETATM    5  C12 UNL     1      26.961   4.051  49.262  1.00  0.00     0.204 C 
HETATM    6  N2  UNL     1      26.130   3.338  49.911  1.00  0.00    -0.275 NA
ENDROOT
BRANCH   1   7
HETATM    7  C3  UNL     1      23.859   2.866  50.614  1.00  0.00     0.025 C 
HETATM    8  C2  UNL     1      23.499   2.436  51.814  1.00  0.00     0.006 C 
HETATM    9  C1  UNL     1      24.198   3.069  52.966  1.00  0.00     0.068 C 
BRANCH   8  10
HETATM   10  N3  UNL     1      22.481   1.417  51.789  1.00  0.00    -0.328 N 
HETATM   11  C13 UNL     1      21.183   1.883  52.147  1.00  0.00     0.245 C 
HETATM   12  O1  UNL     1      21.055   3.093  52.439  1.00  0.00    -0.268 OA
HETATM   13  H14 UNL     1      22.629   0.420  51.539  1.00  0.00     0.169 HD
BRANCH  11  14
HETATM   14  C14 UNL     1      20.026   0.999  52.178  1.00  0.00     0.081 C 
HETATM   15  C15 UNL     1      19.879   0.043  53.087  1.00  0.00     0.061 C 
HETATM   16 BR1  UNL     1      18.370  -1.115  53.132  1.00  0.00    -0.063 Br
ENDBRANCH  11  14
ENDBRANCH   8  10
ENDBRANCH   1   7
BRANCH   4  17
HETATM   17  C7  UNL     1      27.768   6.134  48.236  1.00  0.00     0.036 C 
HETATM   18  C8  UNL     1      28.993   5.596  48.301  1.00  0.00     0.030 C 
HETATM   19  C9  UNL     1      29.876   6.528  47.572  1.00  0.00     0.014 C 
HETATM   20  C10 UNL     1      29.133   7.574  47.252  1.00  0.00    -0.024 C 
HETATM   21  C11 UNL     1      27.845   7.387  47.486  1.00  0.00     0.042 C 
ENDBRANCH   4  17
TORSDOF 4
ENDMDL
MODEL 7
REMARK VINA RESULT:      -6.1      6.774      8.575
REMARK  4 active torsions:
REMARK  status: ('A' for Active; 'I' for Inactive)
REMARK    1  A    between atoms: C2_2  and  N3_15 
REMARK    2  A    between atoms: C3_3  and  C4_4 
REMARK    3  A    between atoms: N1_7  and  C7_8 
REMARK       I    between atoms: N3_15  and  C13_16 
REMARK    4  A    between atoms: C13_16  and  C14_18 
ROOT
HETATM    1  C4  UNL     1      25.712   4.490  50.025  1.00  0.00     0.135 C 
HETATM    2  C5  UNL     1      26.508   3.197  50.063  1.00  0.00     0.052 C 
HETATM    3  C6  UNL     1      26.105   2.500  51.351  1.00  0.00     0.132 C 
HETATM    4  N1  UNL     1      24.659   2.296  51.392  1.00  0.00    -0.342 N 
HETATM    5  C12 UNL     1      23.863   3.189  50.653  1.00  0.00     0.204 C 
HETATM    6  N2  UNL     1      24.305   4.198  50.017  1.00  0.00    -0.275 NA
ENDROOT
BRANCH   1   7
HETATM    7  C3  UNL     1      26.123   5.360  48.910  1.00  0.00     0.025 C 
HETATM    8  C2  UNL     1      26.215   6.681  48.925  1.00  0.00     0.006 C 
HETATM    9  C1  UNL     1      25.861   7.341  50.211  1.00  0.00     0.068 C 
BRANCH   8  10
HETATM   10  N3  UNL     1      26.646   7.251  47.674  1.00  0.00    -0.328 N 
HETATM   11  C13 UNL     1      28.056   7.434  47.574  1.00  0.00     0.245 C 
HETATM   12  O1  UNL     1      28.762   7.095  48.551  1.00  0.00    -0.268 OA
HETATM   13  H14 UNL     1      26.027   7.520  46.886  1.00  0.00     0.169 HD
BRANCH  11  14
HETATM   14  C14 UNL     1      28.680   7.997  46.384  1.00  0.00     0.081 C 
HETATM   15  C15 UNL     1      29.992   7.977  46.187  1.00  0.00     0.061 C 
HETATM   16 BR1  UNL     1      30.813   8.711  44.635  1.00  0.00    -0.063 Br
ENDBRANCH  11  14
ENDBRANCH   8  10
ENDBRANCH   1   7
BRANCH   4  17
HETATM   17  C7  UNL     1      24.066   1.245  52.144  1.00  0.00     0.036 C 
HETATM   18  C8  UNL     1      24.912   0.552  52.918  1.00  0.00     0.030 C 
HETATM   19  C9  UNL     1      24.086  -0.470  53.592  1.00  0.00     0.014 C 
HETATM   20  C10 UNL     1      22.873  -0.371  53.076  1.00  0.00    -0.024 C 
HETATM   21  C11 UNL     1      22.722   0.693  52.305  1.00  0.00     0.042 C 
ENDBRANCH   4  17
TORSDOF 4
ENDMDL
MODEL 8
REMARK VINA RESULT:      -6.1      4.038      4.944
REMARK  4 active torsions:
REMARK  status: ('A' for Active; 'I' for Inactive)
REMARK    1  A    between atoms: C2_2  and  N3_15 
REMARK    2  A    between atoms: C3_3  and  C4_4 
REMARK    3  A    between atoms: N1_7  and  C7_8 
REMARK       I    between atoms: N3_15  and  C13_16 
REMARK    4  A    between atoms: C13_16  and  C14_18 
ROOT
HETATM    1  C4  UNL     1      22.087   1.092  52.367  1.00  0.00     0.135 C 
HETATM    2  C5  UNL     1      21.545   1.962  51.246  1.00  0.00     0.052 C 
HETATM    3  C6  UNL     1      22.476   3.160  51.165  1.00  0.00     0.132 C 
HETATM    4  N1  UNL     1      23.854   2.725  50.952  1.00  0.00    -0.342 N 
HETATM    5  C12 UNL     1      24.199   1.440  51.407  1.00  0.00     0.204 C 
HETATM    6  N2  UNL     1      23.423   0.667  52.054  1.00  0.00    -0.275 NA
ENDROOT
BRANCH   1   7
HETATM    7  C3  UNL     1      21.188  -0.031  52.679  1.00  0.00     0.025 C 
HETATM    8  C2  UNL     1      20.491  -0.207  53.792  1.00  0.00     0.006 C 
HETATM    9  C1  UNL     1      20.646   0.851  54.827  1.00  0.00     0.068 C 
BRANCH   8  10
HETATM   10  N3  UNL     1      19.697  -1.408  53.801  1.00  0.00    -0.328 N 
HETATM   11  C13 UNL     1      18.387  -1.244  53.267  1.00  0.00     0.245 C 
HETATM   12  O1  UNL     1      18.060  -0.108  52.854  1.00  0.00    -0.268 OA
HETATM   13  H14 UNL     1      20.006  -2.335  54.154  1.00  0.00     0.169 HD
BRANCH  11  14
HETATM   14  C14 UNL     1      17.438  -2.347  53.192  1.00  0.00     0.081 C 
HETATM   15  C15 UNL     1      17.632  -3.502  53.816  1.00  0.00     0.061 C 
HETATM   16 BR1  UNL     1      16.396  -4.946  53.721  1.00  0.00    -0.063 Br
ENDBRANCH  11  14
ENDBRANCH   8  10
ENDBRANCH   1   7
BRANCH   4  17
HETATM   17  C7  UNL     1      24.817   3.553  50.313  1.00  0.00     0.036 C 
HETATM   18  C8  UNL     1      25.975   2.950  50.010  1.00  0.00     0.030 C 
HETATM   19  C9  UNL     1      26.805   3.986  49.365  1.00  0.00     0.014 C 
HETATM   20  C10 UNL     1      26.126   5.117  49.450  1.00  0.00    -0.024 C 
HETATM   21  C11 UNL     1      24.886   4.947  49.878  1.00  0.00     0.042 C 
ENDBRANCH   4  17
TORSDOF 4
ENDMDL
MODEL 9
REMARK VINA RESULT:      -6.0      6.069      7.492
REMARK  4 active torsions:
REMARK  status: ('A' for Active; 'I' for Inactive)
REMARK    1  A    between atoms: C2_2  and  N3_15 
REMARK    2  A    between atoms: C3_3  and  C4_4 
REMARK    3  A    between atoms: N1_7  and  C7_8 
REMARK       I    between atoms: N3_15  and  C13_16 
REMARK    4  A    between atoms: C13_16  and  C14_18 
ROOT
HETATM    1  C4  UNL     1      25.665   4.496  50.065  1.00  0.00     0.135 C 
HETATM    2  C5  UNL     1      26.501   3.230  49.988  1.00  0.00     0.052 C 
HETATM    3  C6  UNL     1      26.232   2.476  51.278  1.00  0.00     0.132 C 
HETATM    4  N1  UNL     1      24.802   2.222  51.434  1.00  0.00    -0.342 N 
HETATM    5  C12 UNL     1      23.918   3.111  50.798  1.00  0.00     0.204 C 
HETATM    6  N2  UNL     1      24.272   4.157  50.164  1.00  0.00    -0.275 NA
ENDROOT
BRANCH   1   7
HETATM    7  C3  UNL     1      25.951   5.417  48.953  1.00  0.00     0.025 C 
HETATM    8  C2  UNL     1      25.991   6.740  49.005  1.00  0.00     0.006 C 
HETATM    9  C1  UNL     1      25.713   7.344  50.337  1.00  0.00     0.068 C 
BRANCH   8  10
HETATM   10  N3  UNL     1      26.300   7.366  47.745  1.00  0.00    -0.328 N 
HETATM   11  C13 UNL     1      25.155   7.796  47.014  1.00  0.00     0.245 C 
HETATM   12  O1  UNL     1      24.028   7.597  47.520  1.00  0.00    -0.268 OA
HETATM   13  H14 UNL     1      27.252   7.513  47.360  1.00  0.00     0.169 HD
BRANCH  11  14
HETATM   14  C14 UNL     1      25.267   8.451  45.718  1.00  0.00     0.081 C 
HETATM   15  C15 UNL     1      24.552   8.079  44.664  1.00  0.00     0.061 C 
HETATM   16 BR1  UNL     1      24.694   8.930  42.968  1.00  0.00    -0.063 Br
ENDBRANCH  11  14
ENDBRANCH   8  10
ENDBRANCH   1   7
BRANCH   4  17
HETATM   17  C7  UNL     1      24.308   1.126  52.194  1.00  0.00     0.036 C 
HETATM   18  C8  UNL     1      22.984   0.933  52.120  1.00  0.00     0.030 C 
HETATM   19  C9  UNL     1      22.706  -0.239  52.973  1.00  0.00     0.014 C 
HETATM   20  C10 UNL     1      23.848  -0.555  53.560  1.00  0.00    -0.024 C 
HETATM   21  C11 UNL     1      24.883   0.109  53.073  1.00  0.00     0.042 C 
ENDBRANCH   4  17
TORSDOF 4
ENDMDL
