MODEL 1
REMARK VINA RESULT:      -7.7      0.000      0.000
REMARK  5 active torsions:
REMARK  status: ('A' for Active; 'I' for Inactive)
REMARK    1  A    between atoms: C5_7  and  N3_8 
REMARK    2  A    between atoms: C9_12  and  N4_13 
REMARK    3  A    between atoms: C10_16  and  N6_17 
REMARK    4  A    between atoms: C13_20  and  N7_21 
REMARK    5  A    between atoms: N8_24  and  C16_25 
ROOT
HETATM    1  N1  UNL     1      22.462   2.195  47.824  1.00  0.00    -0.195 NA
HETATM    2  C1  UNL     1      23.024   2.786  48.661  1.00  0.00     0.091 C 
HETATM    3  C2  UNL     1      23.752   3.538  49.702  1.00  0.00     0.241 A 
HETATM    4  N2  UNL     1      24.927   4.106  49.096  1.00  0.00    -0.378 N 
HETATM    5  C3  UNL     1      26.281   3.899  49.482  1.00  0.00     0.087 A 
HETATM    6  C4  UNL     1      26.474   3.093  50.512  1.00  0.00     0.050 A 
HETATM    7  C5  UNL     1      25.372   2.448  51.219  1.00  0.00     0.084 A 
HETATM    8  C10 UNL     1      24.123   2.660  50.838  1.00  0.00     0.073 A 
HETATM    9  H2  UNL     1      24.732   4.743  48.279  1.00  0.00     0.160 HD
ENDROOT
BRANCH   8  10
HETATM   10  N6  UNL     1      23.098   1.999  51.574  1.00  0.00    -0.376 N 
HETATM   11  C11 UNL     1      22.827   0.578  51.704  1.00  0.00     0.152 C 
HETATM   12  C12 UNL     1      21.372   0.303  51.767  1.00  0.00     0.017 C 
HETATM   13  C13 UNL     1      20.363   1.191  51.752  1.00  0.00     0.006 C 
HETATM   14  C19 UNL     1      20.773   2.625  51.662  1.00  0.00     0.076 C 
HETATM   15  C20 UNL     1      22.138   2.795  52.336  1.00  0.00     0.129 C 
BRANCH  13  16
HETATM   16  N7  UNL     1      18.978   0.895  51.814  1.00  0.00    -0.381 N 
HETATM   17  C14 UNL     1      17.960   1.940  51.644  1.00  0.00     0.142 C 
HETATM   18  C15 UNL     1      16.630   1.323  51.271  1.00  0.00     0.145 C 
HETATM   19  N8  UNL     1      16.273   0.263  52.185  1.00  0.00    -0.356 N 
HETATM   20  C17 UNL     1      17.263  -0.619  52.746  1.00  0.00     0.145 C 
HETATM   21  C18 UNL     1      18.596  -0.469  52.050  1.00  0.00     0.142 C 
BRANCH  19  22
HETATM   22  C16 UNL     1      14.916   0.070  52.551  1.00  0.00     0.350 C 
HETATM   23  O2  UNL     1      14.519   0.884  53.440  1.00  0.00    -0.284 OA
ENDBRANCH  19  22
ENDBRANCH  13  16
ENDBRANCH   8  10
BRANCH   7  24
HETATM   24  N3  UNL     1      25.761   1.613  52.304  1.00  0.00    -0.242 N 
HETATM   25  C6  UNL     1      25.827   1.974  53.650  1.00  0.00     0.115 A 
HETATM   26  C7  UNL     1      26.210   1.072  54.540  1.00  0.00     0.000 A 
HETATM   27  C8  UNL     1      26.588  -0.330  54.226  1.00  0.00     0.113 A 
HETATM   28  C9  UNL     1      26.468  -0.566  52.764  1.00  0.00     0.180 A 
HETATM   29  N5  UNL     1      26.096   0.303  51.879  1.00  0.00    -0.149 NA
BRANCH  28  30
HETATM   30  N4  UNL     1      26.815  -1.905  52.362  1.00  0.00    -0.080 NA
HETATM   31  O1  UNL     1      27.728  -2.495  53.008  1.00  0.00    -0.059 OA
ENDBRANCH  28  30
ENDBRANCH   7  24
TORSDOF 5
ENDMDL
MODEL 2
REMARK VINA RESULT:      -7.6      3.376      7.531
REMARK  5 active torsions:
REMARK  status: ('A' for Active; 'I' for Inactive)
REMARK    1  A    between atoms: C5_7  and  N3_8 
REMARK    2  A    between atoms: C9_12  and  N4_13 
REMARK    3  A    between atoms: C10_16  and  N6_17 
REMARK    4  A    between atoms: C13_20  and  N7_21 
REMARK    5  A    between atoms: N8_24  and  C16_25 
ROOT
HETATM    1  N1  UNL     1      19.000   1.454  51.583  1.00  0.00    -0.195 NA
HETATM    2  C1  UNL     1      19.421   2.544  51.563  1.00  0.00     0.091 C 
HETATM    3  C2  UNL     1      19.938   3.926  51.519  1.00  0.00     0.241 A 
HETATM    4  N2  UNL     1      19.225   4.632  50.488  1.00  0.00    -0.378 N 
HETATM    5  C3  UNL     1      19.778   5.280  49.347  1.00  0.00     0.087 A 
HETATM    6  C4  UNL     1      21.093   5.223  49.228  1.00  0.00     0.050 A 
HETATM    7  C5  UNL     1      21.938   4.538  50.201  1.00  0.00     0.084 A 
HETATM    8  C10 UNL     1      21.396   3.945  51.252  1.00  0.00     0.073 A 
HETATM    9  H2  UNL     1      18.179   4.656  50.619  1.00  0.00     0.160 HD
ENDROOT
BRANCH   8  10
HETATM   10  N6  UNL     1      22.282   3.297  52.161  1.00  0.00    -0.376 N 
HETATM   11  C11 UNL     1      23.307   3.870  53.016  1.00  0.00     0.152 C 
HETATM   12  C12 UNL     1      24.488   2.982  53.123  1.00  0.00     0.017 C 
HETATM   13  C13 UNL     1      24.662   1.769  52.570  1.00  0.00     0.006 C 
HETATM   14  C19 UNL     1      23.517   1.269  51.750  1.00  0.00     0.076 C 
HETATM   15  C20 UNL     1      22.214   1.845  52.313  1.00  0.00     0.129 C 
BRANCH  13  16
HETATM   16  N7  UNL     1      25.807   0.943  52.692  1.00  0.00    -0.381 N 
HETATM   17  C14 UNL     1      25.697  -0.473  53.071  1.00  0.00     0.142 C 
HETATM   18  C15 UNL     1      26.946  -1.225  52.665  1.00  0.00     0.145 C 
HETATM   19  N8  UNL     1      28.134  -0.554  53.140  1.00  0.00    -0.356 N 
HETATM   20  C17 UNL     1      28.226   0.882  53.185  1.00  0.00     0.145 C 
HETATM   21  C18 UNL     1      27.089   1.534  52.434  1.00  0.00     0.142 C 
BRANCH  19  22
HETATM   22  C16 UNL     1      29.250  -1.314  53.576  1.00  0.00     0.350 C 
HETATM   23  O2  UNL     1      29.085  -2.565  53.441  1.00  0.00    -0.284 OA
ENDBRANCH  19  22
ENDBRANCH  13  16
ENDBRANCH   8  10
BRANCH   7  24
HETATM   24  N3  UNL     1      23.333   4.575  49.917  1.00  0.00    -0.242 N 
HETATM   25  C6  UNL     1      24.099   3.542  49.375  1.00  0.00     0.115 A 
HETATM   26  C7  UNL     1      25.392   3.739  49.171  1.00  0.00     0.000 A 
HETATM   27  C8  UNL     1      26.122   4.997  49.476  1.00  0.00     0.113 A 
HETATM   28  C9  UNL     1      25.182   5.998  50.042  1.00  0.00     0.180 A 
HETATM   29  N5  UNL     1      23.915   5.823  50.250  1.00  0.00    -0.149 NA
BRANCH  28  30
HETATM   30  N4  UNL     1      25.802   7.256  50.371  1.00  0.00    -0.080 NA
HETATM   31  O1  UNL     1      26.701   7.688  49.594  1.00  0.00    -0.059 OA
ENDBRANCH  28  30
ENDBRANCH   7  24
TORSDOF 5
ENDMDL
MODEL 3
REMARK VINA RESULT:      -7.4      3.471      8.195
REMARK  5 active torsions:
REMARK  status: ('A' for Active; 'I' for Inactive)
REMARK    1  A    between atoms: C5_7  and  N3_8 
REMARK    2  A    between atoms: C9_12  and  N4_13 
REMARK    3  A    between atoms: C10_16  and  N6_17 
REMARK    4  A    between atoms: C13_20  and  N7_21 
REMARK    5  A    between atoms: N8_24  and  C16_25 
ROOT
HETATM    1  N1  UNL     1      21.432   0.693  50.046  1.00  0.00    -0.195 NA
HETATM    2  C1  UNL     1      21.201   1.680  50.628  1.00  0.00     0.091 C 
HETATM    3  C2  UNL     1      20.887   2.928  51.352  1.00  0.00     0.241 A 
HETATM    4  N2  UNL     1      19.532   3.292  51.036  1.00  0.00    -0.378 N 
HETATM    5  C3  UNL     1      19.081   4.507  50.448  1.00  0.00     0.087 A 
HETATM    6  C4  UNL     1      20.017   5.395  50.161  1.00  0.00     0.050 A 
HETATM    7  C5  UNL     1      21.432   5.155  50.427  1.00  0.00     0.084 A 
HETATM    8  C10 UNL     1      21.821   4.016  50.975  1.00  0.00     0.073 A 
HETATM    9  H2  UNL     1      18.815   2.559  51.280  1.00  0.00     0.160 HD
ENDROOT
BRANCH   8  10
HETATM   10  N6  UNL     1      23.217   3.850  51.207  1.00  0.00    -0.376 N 
HETATM   11  C11 UNL     1      24.289   3.614  50.254  1.00  0.00     0.152 C 
HETATM   12  C12 UNL     1      25.321   2.705  50.807  1.00  0.00     0.017 C 
HETATM   13  C13 UNL     1      25.364   2.154  52.031  1.00  0.00     0.006 C 
HETATM   14  C19 UNL     1      24.228   2.509  52.936  1.00  0.00     0.076 C 
HETATM   15  C20 UNL     1      23.727   3.912  52.575  1.00  0.00     0.129 C 
BRANCH  13  16
HETATM   16  N7  UNL     1      26.368   1.286  52.530  1.00  0.00    -0.381 N 
HETATM   17  C14 UNL     1      27.740   1.754  52.770  1.00  0.00     0.142 C 
HETATM   18  C15 UNL     1      28.455   0.823  53.724  1.00  0.00     0.145 C 
HETATM   19  N8  UNL     1      28.343  -0.551  53.292  1.00  0.00    -0.356 N 
HETATM   20  C17 UNL     1      27.147  -1.053  52.666  1.00  0.00     0.145 C 
HETATM   21  C18 UNL     1      26.002  -0.076  52.796  1.00  0.00     0.142 C 
BRANCH  19  22
HETATM   22  C16 UNL     1      29.430  -1.444  53.480  1.00  0.00     0.350 C 
HETATM   23  O2  UNL     1      29.080  -2.664  53.467  1.00  0.00    -0.284 OA
ENDBRANCH  19  22
ENDBRANCH  13  16
ENDBRANCH   8  10
BRANCH   7  24
HETATM   24  N3  UNL     1      22.303   6.219  50.056  1.00  0.00    -0.242 N 
HETATM   25  C6  UNL     1      22.862   7.172  50.907  1.00  0.00     0.115 A 
HETATM   26  C7  UNL     1      23.657   8.101  50.399  1.00  0.00     0.000 A 
HETATM   27  C8  UNL     1      24.016   8.223  48.963  1.00  0.00     0.113 A 
HETATM   28  C9  UNL     1      23.351   7.146  48.185  1.00  0.00     0.180 A 
HETATM   29  N5  UNL     1      22.571   6.230  48.665  1.00  0.00    -0.149 NA
BRANCH  28  30
HETATM   30  N4  UNL     1      23.643   7.183  46.775  1.00  0.00    -0.080 NA
HETATM   31  O1  UNL     1      22.669   7.118  45.971  1.00  0.00    -0.059 OA
ENDBRANCH  28  30
ENDBRANCH   7  24
TORSDOF 5
ENDMDL
MODEL 4
REMARK VINA RESULT:      -7.4      3.087      7.120
REMARK  5 active torsions:
REMARK  status: ('A' for Active; 'I' for Inactive)
REMARK    1  A    between atoms: C5_7  and  N3_8 
REMARK    2  A    between atoms: C9_12  and  N4_13 
REMARK    3  A    between atoms: C10_16  and  N6_17 
REMARK    4  A    between atoms: C13_20  and  N7_21 
REMARK    5  A    between atoms: N8_24  and  C16_25 
ROOT
HETATM    1  N1  UNL     1      18.518   3.334  51.950  1.00  0.00    -0.195 NA
HETATM    2  C1  UNL     1      19.187   2.376  51.895  1.00  0.00     0.091 C 
HETATM    3  C2  UNL     1      20.020   1.159  51.848  1.00  0.00     0.241 A 
HETATM    4  N2  UNL     1      19.650   0.326  52.960  1.00  0.00    -0.378 N 
HETATM    5  C3  UNL     1      20.497  -0.147  54.002  1.00  0.00     0.087 A 
HETATM    6  C4  UNL     1      21.763   0.225  53.934  1.00  0.00     0.050 A 
HETATM    7  C5  UNL     1      22.274   1.071  52.859  1.00  0.00     0.084 A 
HETATM    8  C10 UNL     1      21.463   1.495  51.904  1.00  0.00     0.073 A 
HETATM    9  H2  UNL     1      18.632   0.050  52.979  1.00  0.00     0.160 HD
ENDROOT
BRANCH   8  10
HETATM   10  N6  UNL     1      22.030   2.316  50.887  1.00  0.00    -0.376 N 
HETATM   11  C11 UNL     1      23.038   1.988  49.893  1.00  0.00     0.152 C 
HETATM   12  C12 UNL     1      23.940   3.134  49.631  1.00  0.00     0.017 C 
HETATM   13  C13 UNL     1      23.885   4.366  50.165  1.00  0.00     0.006 C 
HETATM   14  C19 UNL     1      22.776   4.593  51.141  1.00  0.00     0.076 C 
HETATM   15  C20 UNL     1      21.589   3.702  50.759  1.00  0.00     0.129 C 
BRANCH  13  16
HETATM   16  N7  UNL     1      24.765   5.443  49.893  1.00  0.00    -0.381 N 
HETATM   17  C14 UNL     1      26.147   5.215  49.449  1.00  0.00     0.142 C 
HETATM   18  C15 UNL     1      26.697   6.454  48.778  1.00  0.00     0.145 C 
HETATM   19  N8  UNL     1      26.504   7.623  49.604  1.00  0.00    -0.356 N 
HETATM   20  C17 UNL     1      25.326   7.791  50.415  1.00  0.00     0.145 C 
HETATM   21  C18 UNL     1      24.263   6.777  50.064  1.00  0.00     0.142 C 
BRANCH  19  22
HETATM   22  C16 UNL     1      27.490   8.642  49.631  1.00  0.00     0.350 C 
HETATM   23  O2  UNL     1      27.237   9.558  50.472  1.00  0.00    -0.284 OA
ENDBRANCH  19  22
ENDBRANCH  13  16
ENDBRANCH   8  10
BRANCH   7  24
HETATM   24  N3  UNL     1      23.663   1.374  52.942  1.00  0.00    -0.242 N 
HETATM   25  C6  UNL     1      24.227   2.590  53.329  1.00  0.00     0.115 A 
HETATM   26  C7  UNL     1      25.546   2.708  53.353  1.00  0.00     0.000 A 
HETATM   27  C8  UNL     1      26.506   1.633  52.993  1.00  0.00     0.113 A 
HETATM   28  C9  UNL     1      25.763   0.407  52.605  1.00  0.00     0.180 A 
HETATM   29  N5  UNL     1      24.475   0.272  52.576  1.00  0.00    -0.149 NA
BRANCH  28  30
HETATM   30  N4  UNL     1      26.615  -0.696  52.239  1.00  0.00    -0.080 NA
HETATM   31  O1  UNL     1      27.275  -1.260  53.158  1.00  0.00    -0.059 OA
ENDBRANCH  28  30
ENDBRANCH   7  24
TORSDOF 5
ENDMDL
MODEL 5
REMARK VINA RESULT:      -7.3      4.925      8.855
REMARK  5 active torsions:
REMARK  status: ('A' for Active; 'I' for Inactive)
REMARK    1  A    between atoms: C5_7  and  N3_8 
REMARK    2  A    between atoms: C9_12  and  N4_13 
REMARK    3  A    between atoms: C10_16  and  N6_17 
REMARK    4  A    between atoms: C13_20  and  N7_21 
REMARK    5  A    between atoms: N8_24  and  C16_25 
ROOT
HETATM    1  N1  UNL     1      21.480   6.537  48.238  1.00  0.00    -0.195 NA
HETATM    2  C1  UNL     1      22.172   5.595  48.195  1.00  0.00     0.091 C 
HETATM    3  C2  UNL     1      23.024   4.392  48.138  1.00  0.00     0.241 A 
HETATM    4  N2  UNL     1      22.181   3.267  47.836  1.00  0.00    -0.378 N 
HETATM    5  C3  UNL     1      22.009   2.085  48.612  1.00  0.00     0.087 A 
HETATM    6  C4  UNL     1      22.706   2.022  49.733  1.00  0.00     0.050 A 
HETATM    7  C5  UNL     1      23.600   3.093  50.162  1.00  0.00     0.084 A 
HETATM    8  C10 UNL     1      23.739   4.180  49.420  1.00  0.00     0.073 A 
HETATM    9  H2  UNL     1      21.642   3.354  46.934  1.00  0.00     0.160 HD
ENDROOT
BRANCH   8  10
HETATM   10  N6  UNL     1      24.629   5.184  49.899  1.00  0.00    -0.376 N 
HETATM   11  C11 UNL     1      24.388   6.246  50.860  1.00  0.00     0.152 C 
HETATM   12  C12 UNL     1      25.117   7.485  50.499  1.00  0.00     0.017 C 
HETATM   13  C13 UNL     1      25.945   7.682  49.459  1.00  0.00     0.006 C 
HETATM   14  C19 UNL     1      26.147   6.499  48.568  1.00  0.00     0.076 C 
HETATM   15  C20 UNL     1      26.001   5.220  49.400  1.00  0.00     0.129 C 
BRANCH  13  16
HETATM   16  N7  UNL     1      26.628   8.882  49.140  1.00  0.00    -0.381 N 
HETATM   17  C14 UNL     1      27.863   9.273  49.835  1.00  0.00     0.142 C 
HETATM   18  C15 UNL     1      28.631  10.285  49.015  1.00  0.00     0.145 C 
HETATM   19  N8  UNL     1      27.782  11.381  48.611  1.00  0.00    -0.356 N 
HETATM   20  C17 UNL     1      26.398  11.180  48.266  1.00  0.00     0.145 C 
HETATM   21  C18 UNL     1      26.075   9.712  48.109  1.00  0.00     0.142 C 
BRANCH  19  22
HETATM   22  C16 UNL     1      28.306  12.698  48.548  1.00  0.00     0.350 C 
HETATM   23  O2  UNL     1      27.938  13.428  49.519  1.00  0.00    -0.284 OA
ENDBRANCH  19  22
ENDBRANCH  13  16
ENDBRANCH   8  10
BRANCH   7  24
HETATM   24  N3  UNL     1      24.271   2.859  51.395  1.00  0.00    -0.242 N 
HETATM   25  C6  UNL     1      23.742   3.026  52.675  1.00  0.00     0.115 A 
HETATM   26  C7  UNL     1      24.504   2.762  53.726  1.00  0.00     0.000 A 
HETATM   27  C8  UNL     1      25.912   2.292  53.662  1.00  0.00     0.113 A 
HETATM   28  C9  UNL     1      26.334   2.161  52.244  1.00  0.00     0.180 A 
HETATM   29  N5  UNL     1      25.603   2.414  51.204  1.00  0.00    -0.149 NA
BRANCH  28  30
HETATM   30  N4  UNL     1      27.691   1.707  52.081  1.00  0.00    -0.080 NA
HETATM   31  O1  UNL     1      28.583   2.256  52.790  1.00  0.00    -0.059 OA
ENDBRANCH  28  30
ENDBRANCH   7  24
TORSDOF 5
ENDMDL
MODEL 6
REMARK VINA RESULT:      -7.2      3.328      8.275
REMARK  5 active torsions:
REMARK  status: ('A' for Active; 'I' for Inactive)
REMARK    1  A    between atoms: C5_7  and  N3_8 
REMARK    2  A    between atoms: C9_12  and  N4_13 
REMARK    3  A    between atoms: C10_16  and  N6_17 
REMARK    4  A    between atoms: C13_20  and  N7_21 
REMARK    5  A    between atoms: N8_24  and  C16_25 
ROOT
HETATM    1  N1  UNL     1      19.973   0.767  51.679  1.00  0.00    -0.195 NA
HETATM    2  C1  UNL     1      19.928   1.933  51.620  1.00  0.00     0.091 C 
HETATM    3  C2  UNL     1      19.845   3.405  51.541  1.00  0.00     0.241 A 
HETATM    4  N2  UNL     1      18.462   3.761  51.364  1.00  0.00    -0.378 N 
HETATM    5  C3  UNL     1      17.895   4.508  50.293  1.00  0.00     0.087 A 
HETATM    6  C4  UNL     1      18.738   4.918  49.362  1.00  0.00     0.050 A 
HETATM    7  C5  UNL     1      20.168   4.627  49.416  1.00  0.00     0.084 A 
HETATM    8  C10 UNL     1      20.666   3.929  50.424  1.00  0.00     0.073 A 
HETATM    9  H2  UNL     1      17.821   3.417  52.128  1.00  0.00     0.160 HD
ENDROOT
BRANCH   8  10
HETATM   10  N6  UNL     1      22.069   3.683  50.412  1.00  0.00    -0.376 N 
HETATM   11  C11 UNL     1      22.835   2.750  49.603  1.00  0.00     0.152 C 
HETATM   12  C12 UNL     1      23.964   2.166  50.366  1.00  0.00     0.017 C 
HETATM   13  C13 UNL     1      24.333   2.434  51.630  1.00  0.00     0.006 C 
HETATM   14  C19 UNL     1      23.493   3.445  52.342  1.00  0.00     0.076 C 
HETATM   15  C20 UNL     1      22.935   4.437  51.316  1.00  0.00     0.129 C 
BRANCH  13  16
HETATM   16  N7  UNL     1      25.420   1.856  52.331  1.00  0.00    -0.381 N 
HETATM   17  C14 UNL     1      25.209   0.896  53.423  1.00  0.00     0.142 C 
HETATM   18  C15 UNL     1      26.465   0.087  53.664  1.00  0.00     0.145 C 
HETATM   19  N8  UNL     1      27.616   0.946  53.817  1.00  0.00    -0.356 N 
HETATM   20  C17 UNL     1      27.761   2.161  53.059  1.00  0.00     0.145 C 
HETATM   21  C18 UNL     1      26.747   2.241  51.941  1.00  0.00     0.142 C 
BRANCH  19  22
HETATM   22  C16 UNL     1      28.641   0.600  54.735  1.00  0.00     0.350 C 
HETATM   23  O2  UNL     1      29.297   1.604  55.151  1.00  0.00    -0.284 OA
ENDBRANCH  19  22
ENDBRANCH  13  16
ENDBRANCH   8  10
BRANCH   7  24
HETATM   24  N3  UNL     1      20.929   5.144  48.330  1.00  0.00    -0.242 N 
HETATM   25  C6  UNL     1      21.474   6.425  48.231  1.00  0.00     0.115 A 
HETATM   26  C7  UNL     1      22.160   6.750  47.147  1.00  0.00     0.000 A 
HETATM   27  C8  UNL     1      22.408   5.849  45.991  1.00  0.00     0.113 A 
HETATM   28  C9  UNL     1      21.771   4.530  46.239  1.00  0.00     0.180 A 
HETATM   29  N5  UNL     1      21.097   4.194  47.292  1.00  0.00    -0.149 NA
BRANCH  28  30
HETATM   30  N4  UNL     1      21.959   3.585  45.168  1.00  0.00    -0.080 NA
HETATM   31  O1  UNL     1      21.188   3.667  44.169  1.00  0.00    -0.059 OA
ENDBRANCH  28  30
ENDBRANCH   7  24
TORSDOF 5
ENDMDL
MODEL 7
REMARK VINA RESULT:      -7.2      3.552      6.634
REMARK  5 active torsions:
REMARK  status: ('A' for Active; 'I' for Inactive)
REMARK    1  A    between atoms: C5_7  and  N3_8 
REMARK    2  A    between atoms: C9_12  and  N4_13 
REMARK    3  A    between atoms: C10_16  and  N6_17 
REMARK    4  A    between atoms: C13_20  and  N7_21 
REMARK    5  A    between atoms: N8_24  and  C16_25 
ROOT
HETATM    1  N1  UNL     1      20.044   3.278  52.708  1.00  0.00    -0.195 NA
HETATM    2  C1  UNL     1      20.632   2.331  52.356  1.00  0.00     0.091 C 
HETATM    3  C2  UNL     1      21.360   1.121  51.927  1.00  0.00     0.241 A 
HETATM    4  N2  UNL     1      20.762  -0.011  52.584  1.00  0.00    -0.378 N 
HETATM    5  C3  UNL     1      21.404  -0.946  53.443  1.00  0.00     0.087 A 
HETATM    6  C4  UNL     1      22.693  -0.747  53.658  1.00  0.00     0.050 A 
HETATM    7  C5  UNL     1      23.425   0.362  53.055  1.00  0.00     0.084 A 
HETATM    8  C10 UNL     1      22.802   1.217  52.260  1.00  0.00     0.073 A 
HETATM    9  H2  UNL     1      19.734  -0.136  52.387  1.00  0.00     0.160 HD
ENDROOT
BRANCH   8  10
HETATM   10  N6  UNL     1      23.579   2.275  51.707  1.00  0.00    -0.376 N 
HETATM   11  C11 UNL     1      23.917   3.567  52.279  1.00  0.00     0.152 C 
HETATM   12  C12 UNL     1      23.946   4.630  51.247  1.00  0.00     0.017 C 
HETATM   13  C13 UNL     1      23.740   4.503  49.925  1.00  0.00     0.006 C 
HETATM   14  C19 UNL     1      23.446   3.116  49.453  1.00  0.00     0.076 C 
HETATM   15  C20 UNL     1      24.155   2.117  50.374  1.00  0.00     0.129 C 
BRANCH  13  16
HETATM   16  N7  UNL     1      23.775   5.543  48.963  1.00  0.00    -0.381 N 
HETATM   17  C14 UNL     1      22.903   5.527  47.780  1.00  0.00     0.142 C 
HETATM   18  C15 UNL     1      22.778   6.918  47.199  1.00  0.00     0.145 C 
HETATM   19  N8  UNL     1      24.078   7.515  46.994  1.00  0.00    -0.356 N 
HETATM   20  C17 UNL     1      25.168   7.287  47.906  1.00  0.00     0.145 C 
HETATM   21  C18 UNL     1      24.697   6.622  49.178  1.00  0.00     0.142 C 
BRANCH  19  22
HETATM   22  C16 UNL     1      24.304   8.351  45.870  1.00  0.00     0.350 C 
HETATM   23  O2  UNL     1      24.231   7.730  44.765  1.00  0.00    -0.284 OA
ENDBRANCH  19  22
ENDBRANCH  13  16
ENDBRANCH   8  10
BRANCH   7  24
HETATM   24  N3  UNL     1      24.806   0.426  53.394  1.00  0.00    -0.242 N 
HETATM   25  C6  UNL     1      25.478   1.516  53.950  1.00  0.00     0.115 A 
HETATM   26  C7  UNL     1      26.772   1.411  54.207  1.00  0.00     0.000 A 
HETATM   27  C8  UNL     1      27.598   0.203  53.949  1.00  0.00     0.113 A 
HETATM   28  C9  UNL     1      26.753  -0.867  53.362  1.00  0.00     0.180 A 
HETATM   29  N5  UNL     1      25.486  -0.783  53.103  1.00  0.00    -0.149 NA
BRANCH  28  30
HETATM   30  N4  UNL     1      27.470  -2.083  53.076  1.00  0.00    -0.080 NA
HETATM   31  O1  UNL     1      28.673  -2.159  53.458  1.00  0.00    -0.059 OA
ENDBRANCH  28  30
ENDBRANCH   7  24
TORSDOF 5
ENDMDL
MODEL 8
REMARK VINA RESULT:      -7.2      3.328      8.717
REMARK  5 active torsions:
REMARK  status: ('A' for Active; 'I' for Inactive)
REMARK    1  A    between atoms: C5_7  and  N3_8 
REMARK    2  A    between atoms: C9_12  and  N4_13 
REMARK    3  A    between atoms: C10_16  and  N6_17 
REMARK    4  A    between atoms: C13_20  and  N7_21 
REMARK    5  A    between atoms: N8_24  and  C16_25 
ROOT
HETATM    1  N1  UNL     1      26.500   0.607  51.587  1.00  0.00    -0.195 NA
HETATM    2  C1  UNL     1      25.579   0.911  52.239  1.00  0.00     0.091 C 
HETATM    3  C2  UNL     1      24.416   1.271  53.073  1.00  0.00     0.241 A 
HETATM    4  N2  UNL     1      24.120   0.151  53.925  1.00  0.00    -0.378 N 
HETATM    5  C3  UNL     1      22.895  -0.571  54.005  1.00  0.00     0.087 A 
HETATM    6  C4  UNL     1      21.927  -0.161  53.205  1.00  0.00     0.050 A 
HETATM    7  C5  UNL     1      22.092   0.963  52.288  1.00  0.00     0.084 A 
HETATM    8  C10 UNL     1      23.242   1.615  52.236  1.00  0.00     0.073 A 
HETATM    9  H2  UNL     1      24.916  -0.146  54.549  1.00  0.00     0.160 HD
ENDROOT
BRANCH   8  10
HETATM   10  N6  UNL     1      23.331   2.702  51.319  1.00  0.00    -0.376 N 
HETATM   11  C11 UNL     1      23.523   2.680  49.879  1.00  0.00     0.152 C 
HETATM   12  C12 UNL     1      24.370   3.808  49.423  1.00  0.00     0.017 C 
HETATM   13  C13 UNL     1      24.902   4.793  50.167  1.00  0.00     0.006 C 
HETATM   14  C19 UNL     1      24.595   4.731  51.628  1.00  0.00     0.076 C 
HETATM   15  C20 UNL     1      23.225   4.070  51.820  1.00  0.00     0.129 C 
BRANCH  13  16
HETATM   16  N7  UNL     1      25.709   5.860  49.699  1.00  0.00    -0.381 N 
HETATM   17  C14 UNL     1      26.882   5.621  48.848  1.00  0.00     0.142 C 
HETATM   18  C15 UNL     1      27.263   6.885  48.109  1.00  0.00     0.145 C 
HETATM   19  N8  UNL     1      27.382   8.003  49.017  1.00  0.00    -0.356 N 
HETATM   20  C17 UNL     1      26.511   8.151  50.153  1.00  0.00     0.145 C 
HETATM   21  C18 UNL     1      25.344   7.193  50.086  1.00  0.00     0.142 C 
BRANCH  19  22
HETATM   22  C16 UNL     1      28.377   8.990  48.799  1.00  0.00     0.350 C 
HETATM   23  O2  UNL     1      29.523   8.644  49.223  1.00  0.00    -0.284 OA
ENDBRANCH  19  22
ENDBRANCH  13  16
ENDBRANCH   8  10
BRANCH   7  24
HETATM   24  N3  UNL     1      20.947   1.269  51.499  1.00  0.00    -0.242 N 
HETATM   25  C6  UNL     1      20.590   0.677  50.287  1.00  0.00     0.115 A 
HETATM   26  C7  UNL     1      19.486   1.078  49.676  1.00  0.00     0.000 A 
HETATM   27  C8  UNL     1      18.566   2.131  50.180  1.00  0.00     0.113 A 
HETATM   28  C9  UNL     1      19.072   2.664  51.471  1.00  0.00     0.180 A 
HETATM   29  N5  UNL     1      20.149   2.285  52.082  1.00  0.00    -0.149 NA
BRANCH  28  30
HETATM   30  N4  UNL     1      18.242   3.695  52.039  1.00  0.00    -0.080 NA
HETATM   31  O1  UNL     1      17.228   4.063  51.380  1.00  0.00    -0.059 OA
ENDBRANCH  28  30
ENDBRANCH   7  24
TORSDOF 5
ENDMDL
MODEL 9
REMARK VINA RESULT:      -7.1      3.171      6.352
REMARK  5 active torsions:
REMARK  status: ('A' for Active; 'I' for Inactive)
REMARK    1  A    between atoms: C5_7  and  N3_8 
REMARK    2  A    between atoms: C9_12  and  N4_13 
REMARK    3  A    between atoms: C10_16  and  N6_17 
REMARK    4  A    between atoms: C13_20  and  N7_21 
REMARK    5  A    between atoms: N8_24  and  C16_25 
ROOT
HETATM    1  N1  UNL     1      25.862   8.322  50.425  1.00  0.00    -0.195 NA
HETATM    2  C1  UNL     1      25.644   7.597  49.534  1.00  0.00     0.091 C 
HETATM    3  C2  UNL     1      25.355   6.701  48.397  1.00  0.00     0.241 A 
HETATM    4  N2  UNL     1      24.695   7.475  47.380  1.00  0.00    -0.378 N 
HETATM    5  C3  UNL     1      23.413   7.235  46.811  1.00  0.00     0.087 A 
HETATM    6  C4  UNL     1      22.761   6.183  47.273  1.00  0.00     0.050 A 
HETATM    7  C5  UNL     1      23.313   5.311  48.306  1.00  0.00     0.084 A 
HETATM    8  C10 UNL     1      24.508   5.559  48.816  1.00  0.00     0.073 A 
HETATM    9  H2  UNL     1      25.247   8.306  47.037  1.00  0.00     0.160 HD
ENDROOT
BRANCH   8  10
HETATM   10  N6  UNL     1      24.984   4.666  49.819  1.00  0.00    -0.376 N 
HETATM   11  C11 UNL     1      25.858   3.513  49.688  1.00  0.00     0.152 C 
HETATM   12  C12 UNL     1      25.471   2.426  50.618  1.00  0.00     0.017 C 
HETATM   13  C13 UNL     1      24.481   2.430  51.527  1.00  0.00     0.006 C 
HETATM   14  C19 UNL     1      23.682   3.691  51.597  1.00  0.00     0.076 C 
HETATM   15  C20 UNL     1      24.579   4.871  51.208  1.00  0.00     0.129 C 
BRANCH  13  16
HETATM   16  N7  UNL     1      24.136   1.371  52.403  1.00  0.00    -0.381 N 
HETATM   17  C14 UNL     1      22.797   1.271  52.999  1.00  0.00     0.142 C 
HETATM   18  C15 UNL     1      22.535  -0.142  53.472  1.00  0.00     0.145 C 
HETATM   19  N8  UNL     1      23.614  -0.620  54.306  1.00  0.00    -0.356 N 
HETATM   20  C17 UNL     1      24.986  -0.264  54.047  1.00  0.00     0.145 C 
HETATM   21  C18 UNL     1      25.143   0.390  52.694  1.00  0.00     0.142 C 
BRANCH  19  22
HETATM   22  C16 UNL     1      23.335  -1.463  55.412  1.00  0.00     0.350 C 
HETATM   23  O2  UNL     1      22.194  -2.013  55.343  1.00  0.00    -0.284 OA
ENDBRANCH  19  22
ENDBRANCH  13  16
ENDBRANCH   8  10
BRANCH   7  24
HETATM   24  N3  UNL     1      22.476   4.224  48.685  1.00  0.00    -0.242 N 
HETATM   25  C6  UNL     1      22.598   2.896  48.273  1.00  0.00     0.115 A 
HETATM   26  C7  UNL     1      21.731   2.001  48.722  1.00  0.00     0.000 A 
HETATM   27  C8  UNL     1      20.608   2.292  49.649  1.00  0.00     0.113 A 
HETATM   28  C9  UNL     1      20.606   3.736  49.998  1.00  0.00     0.180 A 
HETATM   29  N5  UNL     1      21.444   4.625  49.570  1.00  0.00    -0.149 NA
BRANCH  28  30
HETATM   30  N4  UNL     1      19.546   4.114  50.899  1.00  0.00    -0.080 NA
HETATM   31  O1  UNL     1      19.511   3.556  52.033  1.00  0.00    -0.059 OA
ENDBRANCH  28  30
ENDBRANCH   7  24
TORSDOF 5
ENDMDL
