MODEL 1
REMARK VINA RESULT:      -7.5      0.000      0.000
REMARK  2 active torsions:
REMARK  status: ('A' for Active; 'I' for Inactive)
REMARK    1  A    between atoms: C4_7  and  N3_8 
REMARK    2  A    between atoms: N3_8  and  C5_9 
ROOT
HETATM    1  O1  UNL     1      28.822   2.456  52.707  1.00  0.00    -0.270 OA
HETATM    2  C1  UNL     1      28.464   1.725  53.682  1.00  0.00     0.255 C 
HETATM    3  C2  UNL     1      28.665   0.826  54.882  1.00  0.00     0.254 C 
HETATM    4  N1  UNL     1      27.348   0.473  55.354  1.00  0.00    -0.274 NA
HETATM    5  C3  UNL     1      26.478  -0.116  54.664  1.00  0.00     0.229 C 
HETATM    6  N2  UNL     1      25.411  -0.770  54.008  1.00  0.00    -0.224 NA
HETATM    7  C4  UNL     1      24.583  -0.043  53.246  1.00  0.00     0.138 C 
HETATM    8  C11 UNL     1      24.680   1.422  52.994  1.00  0.00     0.014 A 
HETATM    9  C12 UNL     1      24.384   2.712  53.456  1.00  0.00     0.018 A 
HETATM   10  C13 UNL     1      25.095   2.485  52.192  1.00  0.00     0.159 A 
HETATM   11  N4  UNL     1      26.464   2.857  52.142  1.00  0.00    -0.321 N 
HETATM   12  N5  UNL     1      27.303   2.211  53.017  1.00  0.00    -0.272 N 
HETATM   13  H11 UNL     1      26.789   3.003  51.190  1.00  0.00     0.181 HD
HETATM   14  H12 UNL     1      26.578   1.861  53.651  1.00  0.00     0.189 HD
ENDROOT
BRANCH   7  15
HETATM   15  N3  UNL     1      23.589  -0.849  52.679  1.00  0.00    -0.340 N 
HETATM   16  H4  UNL     1      23.979  -1.689  52.146  1.00  0.00     0.167 HD
BRANCH  15  17
HETATM   17  C5  UNL     1      22.198  -0.522  52.831  1.00  0.00     0.035 A 
HETATM   18  C6  UNL     1      21.384  -0.725  53.905  1.00  0.00     0.029 A 
HETATM   19  C7  UNL     1      20.047  -0.343  53.833  1.00  0.00     0.004 A 
HETATM   20  C8  UNL     1      19.513   0.240  52.705  1.00  0.00     0.019 A 
HETATM   21  C9  UNL     1      20.335   0.443  51.630  1.00  0.00     0.013 A 
HETATM   22 BR1  UNL     1      19.532   1.252  50.098  1.00  0.00    -0.051 Br
HETATM   23  C10 UNL     1      21.659   0.071  51.684  1.00  0.00     0.048 A 
ENDBRANCH  15  17
ENDBRANCH   7  15
TORSDOF 2
ENDMDL
MODEL 2
REMARK VINA RESULT:      -7.3      1.878      2.520
REMARK  2 active torsions:
REMARK  status: ('A' for Active; 'I' for Inactive)
REMARK    1  A    between atoms: C4_7  and  N3_8 
REMARK    2  A    between atoms: N3_8  and  C5_9 
ROOT
HETATM    1  O1  UNL     1      30.271   0.030  53.797  1.00  0.00    -0.270 OA
HETATM    2  C1  UNL     1      29.597  -1.004  53.496  1.00  0.00     0.255 C 
HETATM    3  C2  UNL     1      29.363  -2.380  52.913  1.00  0.00     0.254 C 
HETATM    4  N1  UNL     1      27.976  -2.694  53.148  1.00  0.00    -0.274 NA
HETATM    5  C3  UNL     1      27.009  -2.009  52.727  1.00  0.00     0.229 C 
HETATM    6  N2  UNL     1      25.834  -1.337  52.322  1.00  0.00    -0.224 NA
HETATM    7  C4  UNL     1      25.387  -0.316  53.066  1.00  0.00     0.138 C 
HETATM    8  C11 UNL     1      26.026   0.214  54.303  1.00  0.00     0.014 A 
HETATM    9  C12 UNL     1      26.180   0.084  55.690  1.00  0.00     0.018 A 
HETATM   10  C13 UNL     1      26.860   1.140  54.931  1.00  0.00     0.159 A 
HETATM   11  N4  UNL     1      28.270   1.042  54.803  1.00  0.00    -0.321 N 
HETATM   12  N5  UNL     1      28.747  -0.072  54.157  1.00  0.00    -0.272 N 
HETATM   13  H11 UNL     1      28.700   1.938  54.588  1.00  0.00     0.181 HD
HETATM   14  H12 UNL     1      27.896  -0.638  54.237  1.00  0.00     0.189 HD
ENDROOT
BRANCH   7  15
HETATM   15  N3  UNL     1      24.218   0.226  52.521  1.00  0.00    -0.340 N 
HETATM   16  H4  UNL     1      24.402   0.903  51.715  1.00  0.00     0.167 HD
BRANCH  15  17
HETATM   17  C5  UNL     1      22.927  -0.129  53.042  1.00  0.00     0.035 A 
HETATM   18  C6  UNL     1      22.622  -0.771  54.205  1.00  0.00     0.029 A 
HETATM   19  C7  UNL     1      21.289  -1.033  54.512  1.00  0.00     0.004 A 
HETATM   20  C8  UNL     1      20.259  -0.663  53.676  1.00  0.00     0.019 A 
HETATM   21  C9  UNL     1      20.572  -0.018  52.510  1.00  0.00     0.013 A 
HETATM   22 BR1  UNL     1      19.098   0.464  51.395  1.00  0.00    -0.051 Br
HETATM   23  C10 UNL     1      21.883   0.249  52.190  1.00  0.00     0.048 A 
ENDBRANCH  15  17
ENDBRANCH   7  15
TORSDOF 2
ENDMDL
MODEL 3
REMARK VINA RESULT:      -7.3      1.441      2.619
REMARK  2 active torsions:
REMARK  status: ('A' for Active; 'I' for Inactive)
REMARK    1  A    between atoms: C4_7  and  N3_8 
REMARK    2  A    between atoms: N3_8  and  C5_9 
ROOT
HETATM    1  O1  UNL     1      28.652   0.872  55.322  1.00  0.00    -0.270 OA
HETATM    2  C1  UNL     1      28.434   1.470  54.223  1.00  0.00     0.255 C 
HETATM    3  C2  UNL     1      28.698   2.462  53.112  1.00  0.00     0.254 C 
HETATM    4  N1  UNL     1      27.641   2.289  52.147  1.00  0.00    -0.274 NA
HETATM    5  C3  UNL     1      26.417   2.422  52.400  1.00  0.00     0.229 C 
HETATM    6  N2  UNL     1      25.015   2.538  52.542  1.00  0.00    -0.224 NA
HETATM    7  C4  UNL     1      24.325   1.484  52.997  1.00  0.00     0.138 C 
HETATM    8  C11 UNL     1      24.897   0.168  53.398  1.00  0.00     0.014 A 
HETATM    9  C12 UNL     1      25.342  -1.093  52.977  1.00  0.00     0.018 A 
HETATM   10  C13 UNL     1      25.362  -0.696  54.390  1.00  0.00     0.159 A 
HETATM   11  N4  UNL     1      26.633  -0.487  54.987  1.00  0.00    -0.321 N 
HETATM   12  N5  UNL     1      27.407   0.507  54.440  1.00  0.00    -0.272 N 
HETATM   13  H11 UNL     1      26.599  -0.562  56.001  1.00  0.00     0.181 HD
HETATM   14  H12 UNL     1      26.904   0.583  53.550  1.00  0.00     0.189 HD
ENDROOT
BRANCH   7  15
HETATM   15  N3  UNL     1      22.959   1.775  53.070  1.00  0.00    -0.340 N 
HETATM   16  H4  UNL     1      22.734   2.803  52.881  1.00  0.00     0.167 HD
BRANCH  15  17
HETATM   17  C5  UNL     1      22.001   0.749  53.380  1.00  0.00     0.035 A 
HETATM   18  C6  UNL     1      22.060  -0.212  54.345  1.00  0.00     0.029 A 
HETATM   19  C7  UNL     1      21.018  -1.129  54.461  1.00  0.00     0.004 A 
HETATM   20  C8  UNL     1      19.920  -1.098  53.631  1.00  0.00     0.019 A 
HETATM   21  C9  UNL     1      19.866  -0.130  52.665  1.00  0.00     0.013 A 
HETATM   22 BR1  UNL     1      18.319  -0.144  51.546  1.00  0.00    -0.051 Br
HETATM   23  C10 UNL     1      20.887   0.784  52.535  1.00  0.00     0.048 A 
ENDBRANCH  15  17
ENDBRANCH   7  15
TORSDOF 2
ENDMDL
MODEL 4
REMARK VINA RESULT:      -7.1      4.079      6.065
REMARK  2 active torsions:
REMARK  status: ('A' for Active; 'I' for Inactive)
REMARK    1  A    between atoms: C4_7  and  N3_8 
REMARK    2  A    between atoms: N3_8  and  C5_9 
ROOT
HETATM    1  O1  UNL     1      27.465   7.041  48.944  1.00  0.00    -0.270 OA
HETATM    2  C1  UNL     1      26.243   7.302  49.170  1.00  0.00     0.255 C 
HETATM    3  C2  UNL     1      25.015   8.177  49.294  1.00  0.00     0.254 C 
HETATM    4  N1  UNL     1      23.929   7.310  49.677  1.00  0.00    -0.274 NA
HETATM    5  C3  UNL     1      23.915   6.604  50.718  1.00  0.00     0.229 C 
HETATM    6  N2  UNL     1      23.764   5.763  51.843  1.00  0.00    -0.224 NA
HETATM    7  C4  UNL     1      24.296   4.534  51.804  1.00  0.00     0.138 C 
HETATM    8  C11 UNL     1      25.068   3.947  50.672  1.00  0.00     0.014 A 
HETATM    9  C12 UNL     1      25.015   3.289  49.435  1.00  0.00     0.018 A 
HETATM   10  C13 UNL     1      26.290   3.649  50.069  1.00  0.00     0.159 A 
HETATM   11  N4  UNL     1      27.056   4.672  49.451  1.00  0.00    -0.321 N 
HETATM   12  N5  UNL     1      26.464   5.908  49.365  1.00  0.00    -0.272 N 
HETATM   13  H11 UNL     1      28.037   4.629  49.713  1.00  0.00     0.181 HD
HETATM   14  H12 UNL     1      25.500   5.598  49.526  1.00  0.00     0.189 HD
ENDROOT
BRANCH   7  15
HETATM   15  N3  UNL     1      24.049   3.844  52.995  1.00  0.00    -0.340 N 
HETATM   16  H4  UNL     1      23.696   4.473  53.784  1.00  0.00     0.167 HD
BRANCH  15  17
HETATM   17  C5  UNL     1      24.273   2.427  53.088  1.00  0.00     0.035 A 
HETATM   18  C6  UNL     1      23.438   1.406  52.745  1.00  0.00     0.029 A 
HETATM   19  C7  UNL     1      23.854   0.090  52.935  1.00  0.00     0.004 A 
HETATM   20  C8  UNL     1      25.088  -0.219  53.461  1.00  0.00     0.019 A 
HETATM   21  C9  UNL     1      25.923   0.811  53.803  1.00  0.00     0.013 A 
HETATM   22 BR1  UNL     1      27.617   0.315  54.528  1.00  0.00    -0.051 Br
HETATM   23  C10 UNL     1      25.528   2.117  53.622  1.00  0.00     0.048 A 
ENDBRANCH  15  17
ENDBRANCH   7  15
TORSDOF 2
ENDMDL
MODEL 5
REMARK VINA RESULT:      -7.1      8.989     11.352
REMARK  2 active torsions:
REMARK  status: ('A' for Active; 'I' for Inactive)
REMARK    1  A    between atoms: C4_7  and  N3_8 
REMARK    2  A    between atoms: N3_8  and  C5_9 
ROOT
HETATM    1  O1  UNL     1      27.377   9.145  50.404  1.00  0.00    -0.270 OA
HETATM    2  C1  UNL     1      27.365   8.215  49.539  1.00  0.00     0.255 C 
HETATM    3  C2  UNL     1      26.756   7.108  48.707  1.00  0.00     0.254 C 
HETATM    4  N1  UNL     1      27.813   6.592  47.874  1.00  0.00    -0.274 NA
HETATM    5  C3  UNL     1      28.886   6.101  48.308  1.00  0.00     0.229 C 
HETATM    6  N2  UNL     1      30.131   5.529  48.653  1.00  0.00    -0.224 NA
HETATM    7  C4  UNL     1      31.168   6.342  48.897  1.00  0.00     0.138 C 
HETATM    8  C11 UNL     1      31.143   7.831  48.858  1.00  0.00     0.014 A 
HETATM    9  C12 UNL     1      31.226   8.984  48.064  1.00  0.00     0.018 A 
HETATM   10  C13 UNL     1      31.031   9.055  49.517  1.00  0.00     0.159 A 
HETATM   11  N4  UNL     1      29.769   9.511  49.981  1.00  0.00    -0.321 N 
HETATM   12  N5  UNL     1      28.680   8.754  49.623  1.00  0.00    -0.272 N 
HETATM   13  H11 UNL     1      29.814   9.862  50.934  1.00  0.00     0.181 HD
HETATM   14  H12 UNL     1      29.129   8.242  48.856  1.00  0.00     0.189 HD
ENDROOT
BRANCH   7  15
HETATM   15  N3  UNL     1      32.315   5.608  49.219  1.00  0.00    -0.340 N 
HETATM   16  H4  UNL     1      32.575   5.662  50.254  1.00  0.00     0.167 HD
BRANCH  15  17
HETATM   17  C5  UNL     1      33.031   4.877  48.210  1.00  0.00     0.035 A 
HETATM   18  C6  UNL     1      34.127   5.259  47.494  1.00  0.00     0.029 A 
HETATM   19  C7  UNL     1      34.658   4.392  46.542  1.00  0.00     0.004 A 
HETATM   20  C8  UNL     1      34.112   3.152  46.297  1.00  0.00     0.019 A 
HETATM   21  C9  UNL     1      33.013   2.773  47.020  1.00  0.00     0.013 A 
HETATM   22 BR1  UNL     1      32.305   1.044  46.630  1.00  0.00    -0.051 Br
HETATM   23  C10 UNL     1      32.475   3.617  47.964  1.00  0.00     0.048 A 
ENDBRANCH  15  17
ENDBRANCH   7  15
TORSDOF 2
ENDMDL
MODEL 6
REMARK VINA RESULT:      -6.9      4.483      6.288
REMARK  2 active torsions:
REMARK  status: ('A' for Active; 'I' for Inactive)
REMARK    1  A    between atoms: C4_7  and  N3_8 
REMARK    2  A    between atoms: N3_8  and  C5_9 
ROOT
HETATM    1  O1  UNL     1      22.223   8.316  50.265  1.00  0.00    -0.270 OA
HETATM    2  C1  UNL     1      23.469   8.073  50.205  1.00  0.00     0.255 C 
HETATM    3  C2  UNL     1      24.905   8.307  49.791  1.00  0.00     0.254 C 
HETATM    4  N1  UNL     1      25.678   7.236  50.370  1.00  0.00    -0.274 NA
HETATM    5  C3  UNL     1      25.483   6.014  50.144  1.00  0.00     0.229 C 
HETATM    6  N2  UNL     1      25.377   4.614  49.983  1.00  0.00    -0.224 NA
HETATM    7  C4  UNL     1      24.497   3.945  50.738  1.00  0.00     0.138 C 
HETATM    8  C11 UNL     1      23.577   4.538  51.749  1.00  0.00     0.014 A 
HETATM    9  C12 UNL     1      23.419   4.992  53.066  1.00  0.00     0.018 A 
HETATM   10  C13 UNL     1      22.318   5.031  52.095  1.00  0.00     0.159 A 
HETATM   11  N4  UNL     1      21.896   6.308  51.643  1.00  0.00    -0.321 N 
HETATM   12  N5  UNL     1      22.835   7.061  50.982  1.00  0.00    -0.272 N 
HETATM   13  H11 UNL     1      20.950   6.291  51.272  1.00  0.00     0.181 HD
HETATM   14  H12 UNL     1      23.660   6.543  51.301  1.00  0.00     0.189 HD
ENDROOT
BRANCH   7  15
HETATM   15  N3  UNL     1      24.529   2.576  50.450  1.00  0.00    -0.340 N 
HETATM   16  H4  UNL     1      24.530   2.364  49.402  1.00  0.00     0.167 HD
BRANCH  15  17
HETATM   17  C5  UNL     1      24.552   1.599  51.504  1.00  0.00     0.035 A 
HETATM   18  C6  UNL     1      23.510   1.090  52.220  1.00  0.00     0.029 A 
HETATM   19  C7  UNL     1      23.761   0.154  53.220  1.00  0.00     0.004 A 
HETATM   20  C8  UNL     1      25.035  -0.280  53.514  1.00  0.00     0.019 A 
HETATM   21  C9  UNL     1      26.077   0.234  52.790  1.00  0.00     0.013 A 
HETATM   22 BR1  UNL     1      27.816  -0.408  53.248  1.00  0.00    -0.051 Br
HETATM   23  C10 UNL     1      25.848   1.160  51.798  1.00  0.00     0.048 A 
ENDBRANCH  15  17
ENDBRANCH   7  15
TORSDOF 2
ENDMDL
MODEL 7
REMARK VINA RESULT:      -6.8      3.290      5.616
REMARK  2 active torsions:
REMARK  status: ('A' for Active; 'I' for Inactive)
REMARK    1  A    between atoms: C4_7  and  N3_8 
REMARK    2  A    between atoms: N3_8  and  C5_9 
ROOT
HETATM    1  O1  UNL     1      25.287  -1.219  54.850  1.00  0.00    -0.270 OA
HETATM    2  C1  UNL     1      24.085  -0.908  54.581  1.00  0.00     0.255 C 
HETATM    3  C2  UNL     1      22.586  -1.104  54.522  1.00  0.00     0.254 C 
HETATM    4  N1  UNL     1      22.041   0.083  53.910  1.00  0.00    -0.274 NA
HETATM    5  C3  UNL     1      22.348   0.498  52.764  1.00  0.00     0.229 C 
HETATM    6  N2  UNL     1      22.598   1.078  51.499  1.00  0.00    -0.224 NA
HETATM    7  C4  UNL     1      23.653   1.890  51.362  1.00  0.00     0.138 C 
HETATM    8  C11 UNL     1      24.633   2.246  52.427  1.00  0.00     0.014 A 
HETATM    9  C12 UNL     1      24.924   3.073  53.521  1.00  0.00     0.018 A 
HETATM   10  C13 UNL     1      25.859   2.039  53.059  1.00  0.00     0.159 A 
HETATM   11  N4  UNL     1      26.053   0.915  53.905  1.00  0.00    -0.321 N 
HETATM   12  N5  UNL     1      24.943   0.148  54.161  1.00  0.00    -0.272 N 
HETATM   13  H11 UNL     1      26.930   0.437  53.714  1.00  0.00     0.181 HD
HETATM   14  H12 UNL     1      24.243   0.840  53.876  1.00  0.00     0.189 HD
ENDROOT
BRANCH   7  15
HETATM   15  N3  UNL     1      23.746   2.373  50.052  1.00  0.00    -0.340 N 
HETATM   16  H4  UNL     1      23.009   1.961  49.396  1.00  0.00     0.167 HD
BRANCH  15  17
HETATM   17  C5  UNL     1      24.758   3.325  49.686  1.00  0.00     0.035 A 
HETATM   18  C6  UNL     1      26.103   3.139  49.564  1.00  0.00     0.029 A 
HETATM   19  C7  UNL     1      26.913   4.215  49.210  1.00  0.00     0.004 A 
HETATM   20  C8  UNL     1      26.400   5.471  48.976  1.00  0.00     0.019 A 
HETATM   21  C9  UNL     1      25.048   5.652  49.098  1.00  0.00     0.013 A 
HETATM   22 BR1  UNL     1      24.403   7.417  48.762  1.00  0.00    -0.051 Br
HETATM   23  C10 UNL     1      24.233   4.600  49.447  1.00  0.00     0.048 A 
ENDBRANCH  15  17
ENDBRANCH   7  15
TORSDOF 2
ENDMDL
MODEL 8
REMARK VINA RESULT:      -6.8      4.536      6.575
REMARK  2 active torsions:
REMARK  status: ('A' for Active; 'I' for Inactive)
REMARK    1  A    between atoms: C4_7  and  N3_8 
REMARK    2  A    between atoms: N3_8  and  C5_9 
ROOT
HETATM    1  O1  UNL     1      23.396   7.692  48.727  1.00  0.00    -0.270 OA
HETATM    2  C1  UNL     1      22.468   7.136  49.395  1.00  0.00     0.255 C 
HETATM    3  C2  UNL     1      21.108   7.029  50.047  1.00  0.00     0.254 C 
HETATM    4  N1  UNL     1      21.053   5.729  50.669  1.00  0.00    -0.274 NA
HETATM    5  C3  UNL     1      21.854   5.327  51.550  1.00  0.00     0.229 C 
HETATM    6  N2  UNL     1      22.679   4.747  52.541  1.00  0.00    -0.224 NA
HETATM    7  C4  UNL     1      23.818   4.153  52.162  1.00  0.00     0.138 C 
HETATM    8  C11 UNL     1      24.335   4.051  50.768  1.00  0.00     0.014 A 
HETATM    9  C12 UNL     1      24.296   3.353  49.553  1.00  0.00     0.018 A 
HETATM   10  C13 UNL     1      25.156   4.527  49.746  1.00  0.00     0.159 A 
HETATM   11  N4  UNL     1      24.811   5.707  49.036  1.00  0.00    -0.321 N 
HETATM   12  N5  UNL     1      23.582   6.251  49.321  1.00  0.00    -0.272 N 
HETATM   13  H11 UNL     1      25.600   6.340  48.934  1.00  0.00     0.181 HD
HETATM   14  H12 UNL     1      23.177   5.421  49.765  1.00  0.00     0.189 HD
ENDROOT
BRANCH   7  15
HETATM   15  N3  UNL     1      24.503   3.634  53.267  1.00  0.00    -0.340 N 
HETATM   16  H4  UNL     1      24.769   4.378  53.987  1.00  0.00     0.167 HD
BRANCH  15  17
HETATM   17  C5  UNL     1      24.794   2.230  53.362  1.00  0.00     0.035 A 
HETATM   18  C6  UNL     1      23.993   1.169  53.062  1.00  0.00     0.029 A 
HETATM   19  C7  UNL     1      24.475  -0.125  53.246  1.00  0.00     0.004 A 
HETATM   20  C8  UNL     1      25.742  -0.372  53.723  1.00  0.00     0.019 A 
HETATM   21  C9  UNL     1      26.543   0.697  54.022  1.00  0.00     0.013 A 
HETATM   22 BR1  UNL     1      28.287   0.284  54.681  1.00  0.00    -0.051 Br
HETATM   23  C10 UNL     1      26.083   1.982  53.847  1.00  0.00     0.048 A 
ENDBRANCH  15  17
ENDBRANCH   7  15
TORSDOF 2
ENDMDL
MODEL 9
REMARK VINA RESULT:      -6.8      3.642      5.245
REMARK  2 active torsions:
REMARK  status: ('A' for Active; 'I' for Inactive)
REMARK    1  A    between atoms: C4_7  and  N3_8 
REMARK    2  A    between atoms: N3_8  and  C5_9 
ROOT
HETATM    1  O1  UNL     1      26.533   7.743  50.084  1.00  0.00    -0.270 OA
HETATM    2  C1  UNL     1      25.310   7.543  50.364  1.00  0.00     0.255 C 
HETATM    3  C2  UNL     1      23.905   7.925  50.776  1.00  0.00     0.254 C 
HETATM    4  N1  UNL     1      23.135   6.706  50.786  1.00  0.00    -0.274 NA
HETATM    5  C3  UNL     1      23.405   5.699  51.490  1.00  0.00     0.229 C 
HETATM    6  N2  UNL     1      23.588   4.503  52.219  1.00  0.00    -0.224 NA
HETATM    7  C4  UNL     1      24.430   3.579  51.739  1.00  0.00     0.138 C 
HETATM    8  C11 UNL     1      25.232   3.687  50.488  1.00  0.00     0.014 A 
HETATM    9  C12 UNL     1      25.255   3.535  49.094  1.00  0.00     0.018 A 
HETATM   10  C13 UNL     1      26.432   3.990  49.844  1.00  0.00     0.159 A 
HETATM   11  N4  UNL     1      26.833   5.340  49.666  1.00  0.00    -0.321 N 
HETATM   12  N5  UNL     1      25.920   6.299  50.033  1.00  0.00    -0.272 N 
HETATM   13  H11 UNL     1      27.807   5.489  49.916  1.00  0.00     0.181 HD
HETATM   14  H12 UNL     1      25.096   5.690  50.046  1.00  0.00     0.189 HD
ENDROOT
BRANCH   7  15
HETATM   15  N3  UNL     1      24.485   2.464  52.584  1.00  0.00    -0.340 N 
HETATM   16  H4  UNL     1      25.328   2.474  53.241  1.00  0.00     0.167 HD
BRANCH  15  17
HETATM   17  C5  UNL     1      23.480   1.440  52.521  1.00  0.00     0.035 A 
HETATM   18  C6  UNL     1      22.544   1.219  51.556  1.00  0.00     0.029 A 
HETATM   19  C7  UNL     1      21.644   0.166  51.704  1.00  0.00     0.004 A 
HETATM   20  C8  UNL     1      21.667  -0.667  52.800  1.00  0.00     0.019 A 
HETATM   21  C9  UNL     1      22.610  -0.441  53.766  1.00  0.00     0.013 A 
HETATM   22 BR1  UNL     1      22.586  -1.631  55.259  1.00  0.00    -0.051 Br
HETATM   23  C10 UNL     1      23.507   0.594  53.636  1.00  0.00     0.048 A 
ENDBRANCH  15  17
ENDBRANCH   7  15
TORSDOF 2
ENDMDL
