MODEL 1
REMARK VINA RESULT:      -7.3      0.000      0.000
REMARK  10 active torsions:
REMARK  status: ('A' for Active; 'I' for Inactive)
REMARK    1  A    between atoms: C2_2  and  C3_3 
REMARK    2  A    between atoms: C4_4  and  C5_5 
REMARK    3  A    between atoms: C5_5  and  C6_6 
REMARK    4  A    between atoms: C6_6  and  C7_7 
REMARK    5  A    between atoms: C7_7  and  C8_8 
REMARK    6  A    between atoms: C8_8  and  N1_9 
REMARK    7  A    between atoms: C13_15  and  C14_16 
REMARK    8  A    between atoms: C14_16  and  C15_17 
REMARK    9  A    between atoms: C15_17  and  C16_18 
REMARK   10  A    between atoms: C21_23  and  O2_24 
ROOT
HETATM    1  C1  UNL     1      23.569   4.176  52.460  1.00  0.00     0.048 C 
HETATM    2  C2  UNL     1      24.191   3.247  51.499  1.00  0.00    -0.066 C 
HETATM    3  C13 UNL     1      24.916   2.251  51.998  1.00  0.00    -0.020 C 
ENDROOT
BRANCH   2   4
HETATM    4  C3  UNL     1      24.103   3.296  50.026  1.00  0.00     0.002 C 
HETATM    5  C4  UNL     1      23.160   2.941  49.135  1.00  0.00    -0.026 C 
BRANCH   5   6
HETATM    6  C5  UNL     1      21.838   2.356  49.309  1.00  0.00     0.027 C 
BRANCH   6   7
HETATM    7  C6  UNL     1      21.826   0.976  49.798  1.00  0.00     0.006 C 
BRANCH   7   8
HETATM    8  C7  UNL     1      21.151   0.540  51.017  1.00  0.00     0.030 C 
BRANCH   8   9
HETATM    9  C8  UNL     1      21.153   1.368  52.256  1.00  0.00     0.272 C 
BRANCH   9  10
HETATM   10  N1  UNL     1      21.353   0.402  53.353  1.00  0.00     0.092 N 
HETATM   11  C9  UNL     1      20.195  -0.405  53.610  1.00  0.00     0.298 C 
HETATM   12  C10 UNL     1      20.706  -1.681  54.296  1.00  0.00     0.198 C 
HETATM   13  O1  UNL     1      21.741  -1.351  55.181  1.00  0.00    -0.388 OA
HETATM   14  C11 UNL     1      22.910  -1.018  54.460  1.00  0.00     0.198 C 
HETATM   15  C12 UNL     1      22.547  -0.380  53.136  1.00  0.00     0.298 C 
ENDBRANCH   9  10
ENDBRANCH   8   9
ENDBRANCH   7   8
ENDBRANCH   6   7
ENDBRANCH   5   6
ENDBRANCH   2   4
BRANCH   3  16
HETATM   16  C14 UNL     1      25.351   1.709  53.277  1.00  0.00     0.032 C 
BRANCH  16  17
HETATM   17  C15 UNL     1      26.721   2.224  53.715  1.00  0.00     0.045 C 
BRANCH  17  18
HETATM   18  C16 UNL     1      27.662   1.065  53.577  1.00  0.00    -0.025 A 
HETATM   19  C17 UNL     1      27.237  -0.184  53.134  1.00  0.00     0.010 A 
HETATM   20  C18 UNL     1      28.111  -1.258  53.006  1.00  0.00     0.001 A 
HETATM   21  C19 UNL     1      29.456  -1.085  53.331  1.00  0.00     0.003 A 
HETATM   22  C20 UNL     1      29.820   0.169  53.765  1.00  0.00     0.037 A 
HETATM   23  C21 UNL     1      28.983   1.263  53.905  1.00  0.00     0.071 A 
BRANCH  23  24
HETATM   24  O2  UNL     1      29.489   2.486  54.359  1.00  0.00    -0.360 OA
HETATM   25  H31 UNL     1      29.496   3.317  53.783  1.00  0.00     0.217 HD
ENDBRANCH  23  24
ENDBRANCH  17  18
ENDBRANCH  16  17
ENDBRANCH   3  16
TORSDOF 10
ENDMDL
MODEL 2
REMARK VINA RESULT:      -7.3      2.690      4.878
REMARK  10 active torsions:
REMARK  status: ('A' for Active; 'I' for Inactive)
REMARK    1  A    between atoms: C2_2  and  C3_3 
REMARK    2  A    between atoms: C4_4  and  C5_5 
REMARK    3  A    between atoms: C5_5  and  C6_6 
REMARK    4  A    between atoms: C6_6  and  C7_7 
REMARK    5  A    between atoms: C7_7  and  C8_8 
REMARK    6  A    between atoms: C8_8  and  N1_9 
REMARK    7  A    between atoms: C13_15  and  C14_16 
REMARK    8  A    between atoms: C14_16  and  C15_17 
REMARK    9  A    between atoms: C15_17  and  C16_18 
REMARK   10  A    between atoms: C21_23  and  O2_24 
ROOT
HETATM    1  C1  UNL     1      23.733   2.061  52.678  1.00  0.00     0.048 C 
HETATM    2  C2  UNL     1      23.123   0.721  52.769  1.00  0.00    -0.066 C 
HETATM    3  C13 UNL     1      23.881  -0.260  53.248  1.00  0.00    -0.020 C 
ENDROOT
BRANCH   2   4
HETATM    4  C3  UNL     1      21.752   0.337  52.383  1.00  0.00     0.002 C 
HETATM    5  C4  UNL     1      21.082   0.314  51.216  1.00  0.00    -0.026 C 
BRANCH   5   6
HETATM    6  C5  UNL     1      21.485   0.676  49.864  1.00  0.00     0.027 C 
BRANCH   6   7
HETATM    7  C6  UNL     1      21.695   2.107  49.639  1.00  0.00     0.006 C 
BRANCH   7   8
HETATM    8  C7  UNL     1      22.831   2.669  48.914  1.00  0.00     0.030 C 
BRANCH   8   9
HETATM    9  C8  UNL     1      22.747   3.984  48.218  1.00  0.00     0.272 C 
BRANCH   9  10
HETATM   10  N1  UNL     1      23.719   4.843  48.921  1.00  0.00     0.092 N 
HETATM   11  C9  UNL     1      23.115   5.673  49.923  1.00  0.00     0.298 C 
HETATM   12  C10 UNL     1      24.232   6.026  50.916  1.00  0.00     0.198 C 
HETATM   13  O1  UNL     1      25.425   6.250  50.216  1.00  0.00    -0.388 OA
HETATM   14  C11 UNL     1      25.947   5.026  49.741  1.00  0.00     0.198 C 
HETATM   15  C12 UNL     1      24.823   4.062  49.427  1.00  0.00     0.298 C 
ENDBRANCH   9  10
ENDBRANCH   8   9
ENDBRANCH   7   8
ENDBRANCH   6   7
ENDBRANCH   5   6
ENDBRANCH   2   4
BRANCH   3  16
HETATM   16  C14 UNL     1      25.224  -0.496  53.758  1.00  0.00     0.032 C 
BRANCH  16  17
HETATM   17  C15 UNL     1      26.098  -1.307  52.802  1.00  0.00     0.045 C 
BRANCH  17  18
HETATM   18  C16 UNL     1      27.512  -0.901  53.091  1.00  0.00    -0.025 A 
HETATM   19  C17 UNL     1      27.865   0.419  53.353  1.00  0.00     0.010 A 
HETATM   20  C18 UNL     1      29.177   0.793  53.621  1.00  0.00     0.001 A 
HETATM   21  C19 UNL     1      30.175  -0.181  53.629  1.00  0.00     0.003 A 
HETATM   22  C20 UNL     1      29.771  -1.468  53.363  1.00  0.00     0.037 A 
HETATM   23  C21 UNL     1      28.478  -1.882  53.092  1.00  0.00     0.071 A 
BRANCH  23  24
HETATM   24  O2  UNL     1      28.206  -3.230  52.838  1.00  0.00    -0.360 OA
HETATM   25  H31 UNL     1      28.937  -3.918  52.715  1.00  0.00     0.217 HD
ENDBRANCH  23  24
ENDBRANCH  17  18
ENDBRANCH  16  17
ENDBRANCH   3  16
TORSDOF 10
ENDMDL
MODEL 3
REMARK VINA RESULT:      -7.3      2.446      4.840
REMARK  10 active torsions:
REMARK  status: ('A' for Active; 'I' for Inactive)
REMARK    1  A    between atoms: C2_2  and  C3_3 
REMARK    2  A    between atoms: C4_4  and  C5_5 
REMARK    3  A    between atoms: C5_5  and  C6_6 
REMARK    4  A    between atoms: C6_6  and  C7_7 
REMARK    5  A    between atoms: C7_7  and  C8_8 
REMARK    6  A    between atoms: C8_8  and  N1_9 
REMARK    7  A    between atoms: C13_15  and  C14_16 
REMARK    8  A    between atoms: C14_16  and  C15_17 
REMARK    9  A    between atoms: C15_17  and  C16_18 
REMARK   10  A    between atoms: C21_23  and  O2_24 
ROOT
HETATM    1  C1  UNL     1      22.281  -1.097  54.568  1.00  0.00     0.048 C 
HETATM    2  C2  UNL     1      22.407  -0.336  53.311  1.00  0.00    -0.066 C 
HETATM    3  C13 UNL     1      23.616   0.116  52.993  1.00  0.00    -0.020 C 
ENDROOT
BRANCH   2   4
HETATM    4  C3  UNL     1      21.332  -0.011  52.354  1.00  0.00     0.002 C 
HETATM    5  C4  UNL     1      20.595   1.090  52.116  1.00  0.00    -0.026 C 
BRANCH   5   6
HETATM    6  C5  UNL     1      20.592   2.404  52.743  1.00  0.00     0.027 C 
BRANCH   6   7
HETATM    7  C6  UNL     1      21.231   3.468  51.965  1.00  0.00     0.006 C 
BRANCH   7   8
HETATM    8  C7  UNL     1      22.579   3.385  51.409  1.00  0.00     0.030 C 
BRANCH   8   9
HETATM    9  C8  UNL     1      22.918   3.972  50.082  1.00  0.00     0.272 C 
BRANCH   9  10
HETATM   10  N1  UNL     1      24.347   3.659  49.888  1.00  0.00     0.092 N 
HETATM   11  C9  UNL     1      25.050   4.672  49.155  1.00  0.00     0.298 C 
HETATM   12  C10 UNL     1      26.531   4.526  49.537  1.00  0.00     0.198 C 
HETATM   13  O1  UNL     1      26.850   3.167  49.652  1.00  0.00    -0.388 OA
HETATM   14  C11 UNL     1      26.278   2.629  50.826  1.00  0.00     0.198 C 
HETATM   15  C12 UNL     1      24.976   3.334  51.146  1.00  0.00     0.298 C 
ENDBRANCH   9  10
ENDBRANCH   8   9
ENDBRANCH   7   8
ENDBRANCH   6   7
ENDBRANCH   5   6
ENDBRANCH   2   4
BRANCH   3  16
HETATM   16  C14 UNL     1      24.981   0.125  53.498  1.00  0.00     0.032 C 
BRANCH  16  17
HETATM   17  C15 UNL     1      25.794  -1.091  53.057  1.00  0.00     0.045 C 
BRANCH  17  18
HETATM   18  C16 UNL     1      27.233  -0.719  53.252  1.00  0.00    -0.025 A 
HETATM   19  C17 UNL     1      27.626   0.579  53.562  1.00  0.00     0.010 A 
HETATM   20  C18 UNL     1      28.961   0.923  53.743  1.00  0.00     0.001 A 
HETATM   21  C19 UNL     1      29.942  -0.060  53.611  1.00  0.00     0.003 A 
HETATM   22  C20 UNL     1      29.498  -1.325  53.303  1.00  0.00     0.037 A 
HETATM   23  C21 UNL     1      28.180  -1.708  53.115  1.00  0.00     0.071 A 
BRANCH  23  24
HETATM   24  O2  UNL     1      27.868  -3.035  52.805  1.00  0.00    -0.360 OA
HETATM   25  H31 UNL     1      26.960  -3.312  52.455  1.00  0.00     0.217 HD
ENDBRANCH  23  24
ENDBRANCH  17  18
ENDBRANCH  16  17
ENDBRANCH   3  16
TORSDOF 10
ENDMDL
MODEL 4
REMARK VINA RESULT:      -7.2      2.255      4.793
REMARK  10 active torsions:
REMARK  status: ('A' for Active; 'I' for Inactive)
REMARK    1  A    between atoms: C2_2  and  C3_3 
REMARK    2  A    between atoms: C4_4  and  C5_5 
REMARK    3  A    between atoms: C5_5  and  C6_6 
REMARK    4  A    between atoms: C6_6  and  C7_7 
REMARK    5  A    between atoms: C7_7  and  C8_8 
REMARK    6  A    between atoms: C8_8  and  N1_9 
REMARK    7  A    between atoms: C13_15  and  C14_16 
REMARK    8  A    between atoms: C14_16  and  C15_17 
REMARK    9  A    between atoms: C15_17  and  C16_18 
REMARK   10  A    between atoms: C21_23  and  O2_24 
ROOT
HETATM    1  C1  UNL     1      22.037  -0.958  54.895  1.00  0.00     0.048 C 
HETATM    2  C2  UNL     1      22.245  -0.385  53.552  1.00  0.00    -0.066 C 
HETATM    3  C13 UNL     1      23.496  -0.112  53.194  1.00  0.00    -0.020 C 
ENDROOT
BRANCH   2   4
HETATM    4  C3  UNL     1      21.211  -0.074  52.546  1.00  0.00     0.002 C 
HETATM    5  C4  UNL     1      20.599   1.059  52.156  1.00  0.00    -0.026 C 
BRANCH   5   6
HETATM    6  C5  UNL     1      20.741   2.437  52.606  1.00  0.00     0.027 C 
BRANCH   6   7
HETATM    7  C6  UNL     1      21.617   3.274  51.784  1.00  0.00     0.006 C 
BRANCH   7   8
HETATM    8  C7  UNL     1      22.233   2.841  50.533  1.00  0.00     0.030 C 
BRANCH   8   9
HETATM    9  C8  UNL     1      23.626   2.315  50.485  1.00  0.00     0.272 C 
BRANCH   9  10
HETATM   10  N1  UNL     1      24.469   3.503  50.251  1.00  0.00     0.092 N 
HETATM   11  C9  UNL     1      25.870   3.198  50.202  1.00  0.00     0.298 C 
HETATM   12  C10 UNL     1      26.526   4.331  49.399  1.00  0.00     0.198 C 
HETATM   13  O1  UNL     1      25.920   5.550  49.731  1.00  0.00    -0.388 OA
HETATM   14  C11 UNL     1      24.625   5.619  49.170  1.00  0.00     0.198 C 
HETATM   15  C12 UNL     1      24.011   4.237  49.095  1.00  0.00     0.298 C 
ENDBRANCH   9  10
ENDBRANCH   8   9
ENDBRANCH   7   8
ENDBRANCH   6   7
ENDBRANCH   5   6
ENDBRANCH   2   4
BRANCH   3  16
HETATM   16  C14 UNL     1      24.854  -0.185  53.712  1.00  0.00     0.032 C 
BRANCH  16  17
HETATM   17  C15 UNL     1      25.736   0.976  53.256  1.00  0.00     0.045 C 
BRANCH  17  18
HETATM   18  C16 UNL     1      27.150   0.495  53.383  1.00  0.00    -0.025 A 
HETATM   19  C17 UNL     1      27.511  -0.821  53.110  1.00  0.00     0.010 A 
HETATM   20  C18 UNL     1      28.823  -1.266  53.227  1.00  0.00     0.001 A 
HETATM   21  C19 UNL     1      29.813  -0.370  53.630  1.00  0.00     0.003 A 
HETATM   22  C20 UNL     1      29.401   0.917  53.888  1.00  0.00     0.037 A 
HETATM   23  C21 UNL     1      28.107   1.399  53.783  1.00  0.00     0.071 A 
BRANCH  23  24
HETATM   24  O2  UNL     1      27.826   2.738  54.077  1.00  0.00    -0.360 OA
HETATM   25  H31 UNL     1      28.551   3.437  54.169  1.00  0.00     0.217 HD
ENDBRANCH  23  24
ENDBRANCH  17  18
ENDBRANCH  16  17
ENDBRANCH   3  16
TORSDOF 10
ENDMDL
MODEL 5
REMARK VINA RESULT:      -7.1      2.731      5.439
REMARK  10 active torsions:
REMARK  status: ('A' for Active; 'I' for Inactive)
REMARK    1  A    between atoms: C2_2  and  C3_3 
REMARK    2  A    between atoms: C4_4  and  C5_5 
REMARK    3  A    between atoms: C5_5  and  C6_6 
REMARK    4  A    between atoms: C6_6  and  C7_7 
REMARK    5  A    between atoms: C7_7  and  C8_8 
REMARK    6  A    between atoms: C8_8  and  N1_9 
REMARK    7  A    between atoms: C13_15  and  C14_16 
REMARK    8  A    between atoms: C14_16  and  C15_17 
REMARK    9  A    between atoms: C15_17  and  C16_18 
REMARK   10  A    between atoms: C21_23  and  O2_24 
ROOT
HETATM    1  C1  UNL     1      22.296  -1.280  54.475  1.00  0.00     0.048 C 
HETATM    2  C2  UNL     1      22.655  -0.549  53.246  1.00  0.00    -0.066 C 
HETATM    3  C13 UNL     1      23.946  -0.311  53.035  1.00  0.00    -0.020 C 
ENDROOT
BRANCH   2   4
HETATM    4  C3  UNL     1      21.736  -0.040  52.209  1.00  0.00     0.002 C 
HETATM    5  C4  UNL     1      21.282   1.185  51.883  1.00  0.00    -0.026 C 
BRANCH   5   6
HETATM    6  C5  UNL     1      21.543   2.496  52.460  1.00  0.00     0.027 C 
BRANCH   6   7
HETATM    7  C6  UNL     1      22.725   3.183  51.936  1.00  0.00     0.006 C 
BRANCH   7   8
HETATM    8  C7  UNL     1      23.524   2.705  50.810  1.00  0.00     0.030 C 
BRANCH   8   9
HETATM    9  C8  UNL     1      23.485   3.374  49.480  1.00  0.00     0.272 C 
BRANCH   9  10
HETATM   10  N1  UNL     1      24.510   4.432  49.561  1.00  0.00     0.092 N 
HETATM   11  C9  UNL     1      25.849   3.928  49.454  1.00  0.00     0.298 C 
HETATM   12  C10 UNL     1      26.711   5.102  48.968  1.00  0.00     0.198 C 
HETATM   13  O1  UNL     1      26.281   6.283  49.588  1.00  0.00    -0.388 OA
HETATM   14  C11 UNL     1      25.043   6.695  49.047  1.00  0.00     0.198 C 
HETATM   15  C12 UNL     1      24.230   5.491  48.620  1.00  0.00     0.298 C 
ENDBRANCH   9  10
ENDBRANCH   8   9
ENDBRANCH   7   8
ENDBRANCH   6   7
ENDBRANCH   5   6
ENDBRANCH   2   4
BRANCH   3  16
HETATM   16  C14 UNL     1      25.245  -0.540  53.650  1.00  0.00     0.032 C 
BRANCH  16  17
HETATM   17  C15 UNL     1      26.163  -1.425  52.807  1.00  0.00     0.045 C 
BRANCH  17  18
HETATM   18  C16 UNL     1      27.561  -0.970  53.103  1.00  0.00    -0.025 A 
HETATM   19  C17 UNL     1      27.869   0.365  53.344  1.00  0.00     0.010 A 
HETATM   20  C18 UNL     1      29.165   0.786  53.618  1.00  0.00     0.001 A 
HETATM   21  C19 UNL     1      30.193  -0.155  53.654  1.00  0.00     0.003 A 
HETATM   22  C20 UNL     1      29.833  -1.460  53.408  1.00  0.00     0.037 A 
HETATM   23  C21 UNL     1      28.556  -1.919  53.131  1.00  0.00     0.071 A 
BRANCH  23  24
HETATM   24  O2  UNL     1      28.330  -3.280  52.899  1.00  0.00    -0.360 OA
HETATM   25  H31 UNL     1      27.836  -3.868  53.558  1.00  0.00     0.217 HD
ENDBRANCH  23  24
ENDBRANCH  17  18
ENDBRANCH  16  17
ENDBRANCH   3  16
TORSDOF 10
ENDMDL
MODEL 6
REMARK VINA RESULT:      -7.1      2.153      4.465
REMARK  10 active torsions:
REMARK  status: ('A' for Active; 'I' for Inactive)
REMARK    1  A    between atoms: C2_2  and  C3_3 
REMARK    2  A    between atoms: C4_4  and  C5_5 
REMARK    3  A    between atoms: C5_5  and  C6_6 
REMARK    4  A    between atoms: C6_6  and  C7_7 
REMARK    5  A    between atoms: C7_7  and  C8_8 
REMARK    6  A    between atoms: C8_8  and  N1_9 
REMARK    7  A    between atoms: C13_15  and  C14_16 
REMARK    8  A    between atoms: C14_16  and  C15_17 
REMARK    9  A    between atoms: C15_17  and  C16_18 
REMARK   10  A    between atoms: C21_23  and  O2_24 
ROOT
HETATM    1  C1  UNL     1      23.710  -1.205  55.599  1.00  0.00     0.048 C 
HETATM    2  C2  UNL     1      22.852  -0.970  54.423  1.00  0.00    -0.066 C 
HETATM    3  C13 UNL     1      23.451  -0.578  53.302  1.00  0.00    -0.020 C 
ENDROOT
BRANCH   2   4
HETATM    4  C3  UNL     1      21.386  -1.119  54.343  1.00  0.00     0.002 C 
HETATM    5  C4  UNL     1      20.404  -0.399  53.772  1.00  0.00    -0.026 C 
BRANCH   5   6
HETATM    6  C5  UNL     1      20.436   0.835  52.999  1.00  0.00     0.027 C 
BRANCH   6   7
HETATM    7  C6  UNL     1      20.337   0.665  51.549  1.00  0.00     0.006 C 
BRANCH   7   8
HETATM    8  C7  UNL     1      21.470   0.743  50.631  1.00  0.00     0.030 C 
BRANCH   8   9
HETATM    9  C8  UNL     1      21.654   1.897  49.707  1.00  0.00     0.272 C 
BRANCH   9  10
HETATM   10  N1  UNL     1      22.725   2.704  50.322  1.00  0.00     0.092 N 
HETATM   11  C9  UNL     1      23.737   3.103  49.386  1.00  0.00     0.298 C 
HETATM   12  C10 UNL     1      24.401   4.353  49.982  1.00  0.00     0.198 C 
HETATM   13  O1  UNL     1      24.522   4.200  51.369  1.00  0.00    -0.388 OA
HETATM   14  C11 UNL     1      23.256   4.323  51.985  1.00  0.00     0.198 C 
HETATM   15  C12 UNL     1      22.171   3.814  51.060  1.00  0.00     0.298 C 
ENDBRANCH   9  10
ENDBRANCH   8   9
ENDBRANCH   7   8
ENDBRANCH   6   7
ENDBRANCH   5   6
ENDBRANCH   2   4
BRANCH   3  16
HETATM   16  C14 UNL     1      24.776  -0.270  52.785  1.00  0.00     0.032 C 
BRANCH  16  17
HETATM   17  C15 UNL     1      25.164   1.197  52.959  1.00  0.00     0.045 C 
BRANCH  17  18
HETATM   18  C16 UNL     1      26.577   1.194  53.462  1.00  0.00    -0.025 A 
HETATM   19  C17 UNL     1      26.990   0.366  54.500  1.00  0.00     0.010 A 
HETATM   20  C18 UNL     1      28.300   0.363  54.966  1.00  0.00     0.001 A 
HETATM   21  C19 UNL     1      29.234   1.216  54.378  1.00  0.00     0.003 A 
HETATM   22  C20 UNL     1      28.771   2.014  53.358  1.00  0.00     0.037 A 
HETATM   23  C21 UNL     1      27.477   2.046  52.865  1.00  0.00     0.071 A 
BRANCH  23  24
HETATM   24  O2  UNL     1      27.141   2.910  51.818  1.00  0.00    -0.360 OA
HETATM   25  H31 UNL     1      27.458   3.870  51.783  1.00  0.00     0.217 HD
ENDBRANCH  23  24
ENDBRANCH  17  18
ENDBRANCH  16  17
ENDBRANCH   3  16
TORSDOF 10
ENDMDL
MODEL 7
REMARK VINA RESULT:      -7.0      1.814      5.848
REMARK  10 active torsions:
REMARK  status: ('A' for Active; 'I' for Inactive)
REMARK    1  A    between atoms: C2_2  and  C3_3 
REMARK    2  A    between atoms: C4_4  and  C5_5 
REMARK    3  A    between atoms: C5_5  and  C6_6 
REMARK    4  A    between atoms: C6_6  and  C7_7 
REMARK    5  A    between atoms: C7_7  and  C8_8 
REMARK    6  A    between atoms: C8_8  and  N1_9 
REMARK    7  A    between atoms: C13_15  and  C14_16 
REMARK    8  A    between atoms: C14_16  and  C15_17 
REMARK    9  A    between atoms: C15_17  and  C16_18 
REMARK   10  A    between atoms: C21_23  and  O2_24 
ROOT
HETATM    1  C1  UNL     1      20.618   3.296  49.523  1.00  0.00     0.048 C 
HETATM    2  C2  UNL     1      21.864   2.513  49.429  1.00  0.00    -0.066 C 
HETATM    3  C13 UNL     1      21.891   1.336  50.048  1.00  0.00    -0.020 C 
ENDROOT
BRANCH   2   4
HETATM    4  C3  UNL     1      23.103   2.889  48.721  1.00  0.00     0.002 C 
HETATM    5  C4  UNL     1      24.215   3.558  49.076  1.00  0.00    -0.026 C 
BRANCH   5   6
HETATM    6  C5  UNL     1      24.610   4.176  50.334  1.00  0.00     0.027 C 
BRANCH   6   7
HETATM    7  C6  UNL     1      24.680   3.268  51.480  1.00  0.00     0.006 C 
BRANCH   7   8
HETATM    8  C7  UNL     1      25.577   2.118  51.566  1.00  0.00     0.030 C 
BRANCH   8   9
HETATM    9  C8  UNL     1      26.998   2.261  51.988  1.00  0.00     0.272 C 
BRANCH   9  10
HETATM   10  N1  UNL     1      27.231   1.136  52.913  1.00  0.00     0.092 N 
HETATM   11  C9  UNL     1      26.840  -0.132  52.365  1.00  0.00     0.298 C 
HETATM   12  C10 UNL     1      27.648  -1.194  53.126  1.00  0.00     0.198 C 
HETATM   13  O1  UNL     1      27.741  -0.830  54.476  1.00  0.00    -0.388 OA
HETATM   14  C11 UNL     1      28.631   0.258  54.627  1.00  0.00     0.198 C 
HETATM   15  C12 UNL     1      28.590   1.144  53.400  1.00  0.00     0.298 C 
ENDBRANCH   9  10
ENDBRANCH   8   9
ENDBRANCH   7   8
ENDBRANCH   6   7
ENDBRANCH   5   6
ENDBRANCH   2   4
BRANCH   3  16
HETATM   16  C14 UNL     1      21.045   0.475  50.860  1.00  0.00     0.032 C 
BRANCH  16  17
HETATM   17  C15 UNL     1      20.757   1.047  52.247  1.00  0.00     0.045 C 
BRANCH  17  18
HETATM   18  C16 UNL     1      21.513   0.186  53.214  1.00  0.00    -0.025 A 
HETATM   19  C17 UNL     1      22.896   0.261  53.347  1.00  0.00     0.010 A 
HETATM   20  C18 UNL     1      23.595  -0.538  54.244  1.00  0.00     0.001 A 
HETATM   21  C19 UNL     1      22.895  -1.445  55.039  1.00  0.00     0.003 A 
HETATM   22  C20 UNL     1      21.531  -1.478  54.866  1.00  0.00     0.037 A 
HETATM   23  C21 UNL     1      20.797  -0.701  53.985  1.00  0.00     0.071 A 
BRANCH  23  24
HETATM   24  O2  UNL     1      19.407  -0.837  53.911  1.00  0.00    -0.360 OA
HETATM   25  H31 UNL     1      18.873  -1.340  54.608  1.00  0.00     0.217 HD
ENDBRANCH  23  24
ENDBRANCH  17  18
ENDBRANCH  16  17
ENDBRANCH   3  16
TORSDOF 10
ENDMDL
MODEL 8
REMARK VINA RESULT:      -7.0      2.901      6.165
REMARK  10 active torsions:
REMARK  status: ('A' for Active; 'I' for Inactive)
REMARK    1  A    between atoms: C2_2  and  C3_3 
REMARK    2  A    between atoms: C4_4  and  C5_5 
REMARK    3  A    between atoms: C5_5  and  C6_6 
REMARK    4  A    between atoms: C6_6  and  C7_7 
REMARK    5  A    between atoms: C7_7  and  C8_8 
REMARK    6  A    between atoms: C8_8  and  N1_9 
REMARK    7  A    between atoms: C13_15  and  C14_16 
REMARK    8  A    between atoms: C14_16  and  C15_17 
REMARK    9  A    between atoms: C15_17  and  C16_18 
REMARK   10  A    between atoms: C21_23  and  O2_24 
ROOT
HETATM    1  C1  UNL     1      23.297   3.249  52.656  1.00  0.00     0.048 C 
HETATM    2  C2  UNL     1      22.388   2.286  52.008  1.00  0.00    -0.066 C 
HETATM    3  C13 UNL     1      22.527   2.105  50.698  1.00  0.00    -0.020 C 
ENDROOT
BRANCH   2   4
HETATM    4  C3  UNL     1      21.325   1.490  52.651  1.00  0.00     0.002 C 
HETATM    5  C4  UNL     1      21.323   0.484  53.545  1.00  0.00    -0.026 C 
BRANCH   5   6
HETATM    6  C5  UNL     1      22.412  -0.208  54.222  1.00  0.00     0.027 C 
BRANCH   6   7
HETATM    7  C6  UNL     1      23.485  -0.686  53.349  1.00  0.00     0.006 C 
BRANCH   7   8
HETATM    8  C7  UNL     1      24.886  -0.293  53.475  1.00  0.00     0.030 C 
BRANCH   8   9
HETATM    9  C8  UNL     1      25.600   0.428  52.384  1.00  0.00     0.272 C 
BRANCH   9  10
HETATM   10  N1  UNL     1      26.946   0.691  52.927  1.00  0.00     0.092 N 
HETATM   11  C9  UNL     1      27.456   1.983  52.565  1.00  0.00     0.298 C 
HETATM   12  C10 UNL     1      28.509   2.340  53.625  1.00  0.00     0.198 C 
HETATM   13  O1  UNL     1      29.235   1.191  53.966  1.00  0.00    -0.388 OA
HETATM   14  C11 UNL     1      28.437   0.324  54.746  1.00  0.00     0.198 C 
HETATM   15  C12 UNL     1      26.982   0.450  54.350  1.00  0.00     0.298 C 
ENDBRANCH   9  10
ENDBRANCH   8   9
ENDBRANCH   7   8
ENDBRANCH   6   7
ENDBRANCH   5   6
ENDBRANCH   2   4
BRANCH   3  16
HETATM   16  C14 UNL     1      23.335   2.569  49.580  1.00  0.00     0.032 C 
BRANCH  16  17
HETATM   17  C15 UNL     1      23.211   4.071  49.330  1.00  0.00     0.045 C 
BRANCH  17  18
HETATM   18  C16 UNL     1      24.609   4.572  49.126  1.00  0.00    -0.025 A 
HETATM   19  C17 UNL     1      25.724   3.775  49.364  1.00  0.00     0.010 A 
HETATM   20  C18 UNL     1      27.020   4.240  49.174  1.00  0.00     0.001 A 
HETATM   21  C19 UNL     1      27.216   5.548  48.731  1.00  0.00     0.003 A 
HETATM   22  C20 UNL     1      26.080   6.293  48.512  1.00  0.00     0.037 A 
HETATM   23  C21 UNL     1      24.774   5.867  48.689  1.00  0.00     0.071 A 
BRANCH  23  24
HETATM   24  O2  UNL     1      23.707   6.733  48.428  1.00  0.00    -0.360 OA
HETATM   25  H31 UNL     1      23.832   7.730  48.315  1.00  0.00     0.217 HD
ENDBRANCH  23  24
ENDBRANCH  17  18
ENDBRANCH  16  17
ENDBRANCH   3  16
TORSDOF 10
ENDMDL
MODEL 9
REMARK VINA RESULT:      -6.9      1.969      6.844
REMARK  10 active torsions:
REMARK  status: ('A' for Active; 'I' for Inactive)
REMARK    1  A    between atoms: C2_2  and  C3_3 
REMARK    2  A    between atoms: C4_4  and  C5_5 
REMARK    3  A    between atoms: C5_5  and  C6_6 
REMARK    4  A    between atoms: C6_6  and  C7_7 
REMARK    5  A    between atoms: C7_7  and  C8_8 
REMARK    6  A    between atoms: C8_8  and  N1_9 
REMARK    7  A    between atoms: C13_15  and  C14_16 
REMARK    8  A    between atoms: C14_16  and  C15_17 
REMARK    9  A    between atoms: C15_17  and  C16_18 
REMARK   10  A    between atoms: C21_23  and  O2_24 
ROOT
HETATM    1  C1  UNL     1      22.046   1.830  48.855  1.00  0.00     0.048 C 
HETATM    2  C2  UNL     1      22.703   2.499  49.993  1.00  0.00    -0.066 C 
HETATM    3  C13 UNL     1      22.727   1.845  51.151  1.00  0.00    -0.020 C 
ENDROOT
BRANCH   2   4
HETATM    4  C3  UNL     1      23.342   3.828  49.998  1.00  0.00     0.002 C 
HETATM    5  C4  UNL     1      24.598   4.261  49.781  1.00  0.00    -0.026 C 
BRANCH   5   6
HETATM    6  C5  UNL     1      25.823   3.545  49.452  1.00  0.00     0.027 C 
BRANCH   6   7
HETATM    7  C6  UNL     1      26.623   3.120  50.602  1.00  0.00     0.006 C 
BRANCH   7   8
HETATM    8  C7  UNL     1      26.399   1.886  51.350  1.00  0.00     0.030 C 
BRANCH   8   9
HETATM    9  C8  UNL     1      25.986   1.900  52.782  1.00  0.00     0.272 C 
BRANCH   9  10
HETATM   10  N1  UNL     1      26.946   1.008  53.458  1.00  0.00     0.092 N 
HETATM   11  C9  UNL     1      27.004  -0.302  52.876  1.00  0.00     0.298 C 
HETATM   12  C10 UNL     1      28.378  -0.877  53.251  1.00  0.00     0.198 C 
HETATM   13  O1  UNL     1      28.697  -0.502  54.563  1.00  0.00    -0.388 OA
HETATM   14  C11 UNL     1      29.025   0.871  54.611  1.00  0.00     0.198 C 
HETATM   15  C12 UNL     1      28.242   1.635  53.564  1.00  0.00     0.298 C 
ENDBRANCH   9  10
ENDBRANCH   8   9
ENDBRANCH   7   8
ENDBRANCH   6   7
ENDBRANCH   5   6
ENDBRANCH   2   4
BRANCH   3  16
HETATM   16  C14 UNL     1      22.292   0.588  51.740  1.00  0.00     0.032 C 
BRANCH  16  17
HETATM   17  C15 UNL     1      21.532   0.770  53.053  1.00  0.00     0.045 C 
BRANCH  17  18
HETATM   18  C16 UNL     1      20.179   0.161  52.835  1.00  0.00    -0.025 A 
HETATM   19  C17 UNL     1      19.312   0.619  51.848  1.00  0.00     0.010 A 
HETATM   20  C18 UNL     1      18.058   0.053  51.646  1.00  0.00     0.001 A 
HETATM   21  C19 UNL     1      17.650  -1.006  52.456  1.00  0.00     0.003 A 
HETATM   22  C20 UNL     1      18.545  -1.418  53.415  1.00  0.00     0.037 A 
HETATM   23  C21 UNL     1      19.801  -0.883  53.648  1.00  0.00     0.071 A 
BRANCH  23  24
HETATM   24  O2  UNL     1      20.613  -1.401  54.663  1.00  0.00    -0.360 OA
HETATM   25  H31 UNL     1      20.777  -0.909  55.531  1.00  0.00     0.217 HD
ENDBRANCH  23  24
ENDBRANCH  17  18
ENDBRANCH  16  17
ENDBRANCH   3  16
TORSDOF 10
ENDMDL
