MODEL 1
REMARK VINA RESULT:      -8.5      0.000      0.000
REMARK  6 active torsions:
REMARK  status: ('A' for Active; 'I' for Inactive)
REMARK    1  A    between atoms: N1_2  and  C2_3 
REMARK    2  A    between atoms: C2_3  and  C3_4 
REMARK    3  A    between atoms: C3_4  and  O1_5 
REMARK    4  A    between atoms: O1_5  and  C4_6 
REMARK    5  A    between atoms: C6_8  and  C8_11 
REMARK    6  A    between atoms: N3_12  and  C9_13 
ROOT
HETATM    1  C4  UNL     1      25.703   1.275  53.637  1.00  0.00     0.084 A 
HETATM    2  C5  UNL     1      24.536   1.203  52.860  1.00  0.00     0.069 A 
HETATM    3  C6  UNL     1      23.067   0.888  52.725  1.00  0.00     0.023 A 
HETATM    4  C7  UNL     1      21.792   1.007  53.045  1.00  0.00     0.065 A 
HETATM    5  N2  UNL     1      22.004  -0.266  53.364  1.00  0.00    -0.229 NA
HETATM    6  C8  UNL     1      23.255  -0.803  53.171  1.00  0.00     0.108 A 
HETATM    7  N3  UNL     1      22.975   0.566  52.846  1.00  0.00     0.000 N 
HETATM    8  C9  UNL     1      24.148   1.257  52.313  1.00  0.00     0.003 A 
HETATM    9  C10 UNL     1      25.278   1.637  51.905  1.00  0.00     0.070 A 
HETATM   10  C11 UNL     1      26.383   1.747  52.544  1.00  0.00     0.111 A 
HETATM   11  O2  UNL     1      27.240   2.266  51.450  1.00  0.00    -0.239 OA
HETATM   12  N4  UNL     1      26.595   3.557  51.031  1.00  0.00    -0.264 N 
HETATM   13  C12 UNL     1      25.494   3.924  50.134  1.00  0.00     0.053 C 
HETATM   14  C13 UNL     1      26.282   4.655  49.122  1.00  0.00     0.072 C 
HETATM   15  C14 UNL     1      24.203   3.860  49.931  1.00  0.00     0.091 C 
HETATM   16 CL1  UNL     1      23.572   4.606  48.469  1.00  0.00    -0.079 Cl
HETATM   17  C15 UNL     1      22.914   3.462  50.528  1.00  0.00     0.107 A 
HETATM   18  F1  UNL     1      21.631   3.399  50.180  1.00  0.00    -0.359 F 
HETATM   19  C16 UNL     1      22.289   2.979  51.599  1.00  0.00     0.197 A 
HETATM   20  C17 UNL     1      21.440   2.443  52.720  1.00  0.00     0.071 C 
HETATM   21  H12 UNL     1      27.169   4.233  51.595  1.00  0.00     0.194 HD
ENDROOT
BRANCH   1  22
HETATM   22  O1  UNL     1      26.616   1.230  54.596  1.00  0.00    -0.351 OA
BRANCH  22  23
HETATM   23  C3  UNL     1      27.697   0.356  54.715  1.00  0.00     0.205 C 
BRANCH  23  24
HETATM   24  C2  UNL     1      29.035   1.047  54.686  1.00  0.00     0.295 C 
BRANCH  24  25
HETATM   25  N1  UNL     1      29.830   0.543  53.564  1.00  0.00     0.081 N 
HETATM   26  C1  UNL     1      29.812  -0.895  53.502  1.00  0.00     0.306 C 
HETATM   27  H4  UNL     1      30.796   0.908  53.628  1.00  0.00     0.315 HD
ENDBRANCH  24  25
ENDBRANCH  23  24
ENDBRANCH  22  23
ENDBRANCH   1  22
TORSDOF 6
ENDMDL
MODEL 2
REMARK VINA RESULT:      -8.5      3.503      5.884
REMARK  6 active torsions:
REMARK  status: ('A' for Active; 'I' for Inactive)
REMARK    1  A    between atoms: N1_2  and  C2_3 
REMARK    2  A    between atoms: C2_3  and  C3_4 
REMARK    3  A    between atoms: C3_4  and  O1_5 
REMARK    4  A    between atoms: O1_5  and  C4_6 
REMARK    5  A    between atoms: C6_8  and  C8_11 
REMARK    6  A    between atoms: N3_12  and  C9_13 
ROOT
HETATM    1  C4  UNL     1      23.902   2.285  52.744  1.00  0.00     0.084 A 
HETATM    2  C5  UNL     1      23.785   0.920  53.047  1.00  0.00     0.069 A 
HETATM    3  C6  UNL     1      24.304  -0.322  53.729  1.00  0.00     0.023 A 
HETATM    4  C7  UNL     1      24.704  -1.025  54.771  1.00  0.00     0.065 A 
HETATM    5  N2  UNL     1      25.827  -0.983  54.063  1.00  0.00    -0.229 NA
HETATM    6  C8  UNL     1      25.833  -0.320  52.859  1.00  0.00     0.108 A 
HETATM    7  N3  UNL     1      24.646  -0.392  53.663  1.00  0.00     0.000 N 
HETATM    8  C9  UNL     1      23.518   0.302  53.045  1.00  0.00     0.003 A 
HETATM    9  C10 UNL     1      22.715   0.968  52.338  1.00  0.00     0.070 A 
HETATM   10  C11 UNL     1      22.736   2.211  52.027  1.00  0.00     0.111 A 
HETATM   11  O2  UNL     1      21.491   2.276  51.223  1.00  0.00    -0.239 OA
HETATM   12  N4  UNL     1      20.399   1.857  52.166  1.00  0.00    -0.264 N 
HETATM   13  C12 UNL     1      19.855   0.572  52.619  1.00  0.00     0.053 C 
HETATM   14  C13 UNL     1      18.509   0.691  52.025  1.00  0.00     0.072 C 
HETATM   15  C14 UNL     1      20.096  -0.520  53.299  1.00  0.00     0.091 C 
HETATM   16 CL1  UNL     1      18.817  -1.723  53.385  1.00  0.00    -0.079 Cl
HETATM   17  C15 UNL     1      21.062  -1.187  54.192  1.00  0.00     0.107 A 
HETATM   18  F1  UNL     1      21.216  -2.364  54.794  1.00  0.00    -0.359 F 
HETATM   19  C16 UNL     1      22.210  -1.088  54.858  1.00  0.00     0.197 A 
HETATM   20  C17 UNL     1      23.483  -1.134  55.660  1.00  0.00     0.071 C 
HETATM   21  H12 UNL     1      20.063   2.801  52.481  1.00  0.00     0.194 HD
ENDROOT
BRANCH   1  22
HETATM   22  O1  UNL     1      24.276   3.552  52.628  1.00  0.00    -0.351 OA
BRANCH  22  23
HETATM   23  C3  UNL     1      23.481   4.695  52.709  1.00  0.00     0.205 C 
BRANCH  23  24
HETATM   24  C2  UNL     1      23.607   5.601  51.512  1.00  0.00     0.295 C 
BRANCH  24  25
HETATM   25  N1  UNL     1      24.290   6.839  51.897  1.00  0.00     0.081 N 
HETATM   26  C1  UNL     1      24.365   7.769  50.801  1.00  0.00     0.306 C 
HETATM   27  H4  UNL     1      25.228   6.618  52.272  1.00  0.00     0.315 HD
ENDBRANCH  24  25
ENDBRANCH  23  24
ENDBRANCH  22  23
ENDBRANCH   1  22
TORSDOF 6
ENDMDL
MODEL 3
REMARK VINA RESULT:      -8.1      2.989      5.000
REMARK  6 active torsions:
REMARK  status: ('A' for Active; 'I' for Inactive)
REMARK    1  A    between atoms: N1_2  and  C2_3 
REMARK    2  A    between atoms: C2_3  and  C3_4 
REMARK    3  A    between atoms: C3_4  and  O1_5 
REMARK    4  A    between atoms: O1_5  and  C4_6 
REMARK    5  A    between atoms: C6_8  and  C8_11 
REMARK    6  A    between atoms: N3_12  and  C9_13 
ROOT
HETATM    1  C4  UNL     1      23.622  -0.144  53.578  1.00  0.00     0.084 A 
HETATM    2  C5  UNL     1      22.862   0.763  52.822  1.00  0.00     0.069 A 
HETATM    3  C6  UNL     1      22.763   1.809  51.739  1.00  0.00     0.023 A 
HETATM    4  C7  UNL     1      22.909   2.262  50.509  1.00  0.00     0.065 A 
HETATM    5  N2  UNL     1      23.745   3.062  51.162  1.00  0.00    -0.229 NA
HETATM    6  C8  UNL     1      23.887   2.913  52.521  1.00  0.00     0.108 A 
HETATM    7  N3  UNL     1      23.000   2.072  51.769  1.00  0.00     0.000 N 
HETATM    8  C9  UNL     1      22.316   1.097  52.615  1.00  0.00     0.003 A 
HETATM    9  C10 UNL     1      21.871   0.349  53.528  1.00  0.00     0.070 A 
HETATM   10  C11 UNL     1      22.485  -0.512  54.251  1.00  0.00     0.111 A 
HETATM   11  O2  UNL     1      21.342  -1.007  55.055  1.00  0.00    -0.239 OA
HETATM   12  N4  UNL     1      20.375  -1.567  54.051  1.00  0.00    -0.264 N 
HETATM   13  C12 UNL     1      19.327  -1.004  53.192  1.00  0.00     0.053 C 
HETATM   14  C13 UNL     1      18.164  -1.659  53.821  1.00  0.00     0.072 C 
HETATM   15  C14 UNL     1      19.075  -0.227  52.170  1.00  0.00     0.091 C 
HETATM   16 CL1  UNL     1      17.392  -0.021  51.701  1.00  0.00    -0.079 Cl
HETATM   17  C15 UNL     1      19.686   0.555  51.079  1.00  0.00     0.107 A 
HETATM   18  F1  UNL     1      19.303   1.375  50.102  1.00  0.00    -0.359 F 
HETATM   19  C16 UNL     1      20.811   0.910  50.463  1.00  0.00     0.197 A 
HETATM   20  C17 UNL     1      21.987   1.406  49.665  1.00  0.00     0.071 C 
HETATM   21  H12 UNL     1      20.644  -2.582  54.091  1.00  0.00     0.194 HD
ENDROOT
BRANCH   1  22
HETATM   22  O1  UNL     1      24.577  -0.888  54.118  1.00  0.00    -0.351 OA
BRANCH  22  23
HETATM   23  C3  UNL     1      25.954  -0.797  53.918  1.00  0.00     0.205 C 
BRANCH  23  24
HETATM   24  C2  UNL     1      26.626   0.212  54.811  1.00  0.00     0.295 C 
BRANCH  24  25
HETATM   25  N1  UNL     1      28.036  -0.144  54.991  1.00  0.00     0.081 N 
HETATM   26  C1  UNL     1      28.645  -0.547  53.750  1.00  0.00     0.306 C 
HETATM   27  H4  UNL     1      28.121  -0.879  55.712  1.00  0.00     0.315 HD
ENDBRANCH  24  25
ENDBRANCH  23  24
ENDBRANCH  22  23
ENDBRANCH   1  22
TORSDOF 6
ENDMDL
MODEL 4
REMARK VINA RESULT:      -7.9      2.590      4.448
REMARK  6 active torsions:
REMARK  status: ('A' for Active; 'I' for Inactive)
REMARK    1  A    between atoms: N1_2  and  C2_3 
REMARK    2  A    between atoms: C2_3  and  C3_4 
REMARK    3  A    between atoms: C3_4  and  O1_5 
REMARK    4  A    between atoms: O1_5  and  C4_6 
REMARK    5  A    between atoms: C6_8  and  C8_11 
REMARK    6  A    between atoms: N3_12  and  C9_13 
ROOT
HETATM    1  C4  UNL     1      25.433   1.388  51.620  1.00  0.00     0.084 A 
HETATM    2  C5  UNL     1      24.199   1.906  51.199  1.00  0.00     0.069 A 
HETATM    3  C6  UNL     1      23.368   2.661  50.191  1.00  0.00     0.023 A 
HETATM    4  C7  UNL     1      22.878   2.890  48.988  1.00  0.00     0.065 A 
HETATM    5  N2  UNL     1      23.605   3.987  49.164  1.00  0.00    -0.229 NA
HETATM    6  C8  UNL     1      24.300   4.146  50.340  1.00  0.00     0.108 A 
HETATM    7  N3  UNL     1      23.502   2.977  50.099  1.00  0.00     0.000 N 
HETATM    8  C9  UNL     1      23.540   2.043  51.221  1.00  0.00     0.003 A 
HETATM    9  C10 UNL     1      23.740   1.399  52.287  1.00  0.00     0.070 A 
HETATM   10  C11 UNL     1      24.822   0.880  52.737  1.00  0.00     0.111 A 
HETATM   11  O2  UNL     1      24.295   0.275  53.984  1.00  0.00    -0.239 OA
HETATM   12  N4  UNL     1      23.243  -0.697  53.530  1.00  0.00    -0.264 N 
HETATM   13  C12 UNL     1      21.827  -0.598  53.162  1.00  0.00     0.053 C 
HETATM   14  C13 UNL     1      21.265  -1.393  54.271  1.00  0.00     0.072 C 
HETATM   15  C14 UNL     1      20.970  -0.124  52.294  1.00  0.00     0.091 C 
HETATM   16 CL1  UNL     1      19.264  -0.450  52.573  1.00  0.00    -0.079 Cl
HETATM   17  C15 UNL     1      20.834   0.561  50.994  1.00  0.00     0.107 A 
HETATM   18  F1  UNL     1      19.869   1.050  50.220  1.00  0.00    -0.359 F 
HETATM   19  C16 UNL     1      21.462   1.064  49.934  1.00  0.00     0.197 A 
HETATM   20  C17 UNL     1      22.020   1.680  48.679  1.00  0.00     0.071 C 
HETATM   21  H12 UNL     1      23.810  -1.582  53.522  1.00  0.00     0.194 HD
ENDROOT
BRANCH   1  22
HETATM   22  O1  UNL     1      26.703   1.032  51.752  1.00  0.00    -0.351 OA
BRANCH  22  23
HETATM   23  C3  UNL     1      27.482   1.036  52.909  1.00  0.00     0.205 C 
BRANCH  23  24
HETATM   24  C2  UNL     1      28.165  -0.279  53.179  1.00  0.00     0.295 C 
BRANCH  24  25
HETATM   25  N1  UNL     1      27.171  -1.285  53.562  1.00  0.00     0.081 N 
HETATM   26  C1  UNL     1      26.971  -2.260  52.522  1.00  0.00     0.306 C 
HETATM   27  H4  UNL     1      26.285  -0.819  53.822  1.00  0.00     0.315 HD
ENDBRANCH  24  25
ENDBRANCH  23  24
ENDBRANCH  22  23
ENDBRANCH   1  22
TORSDOF 6
ENDMDL
MODEL 5
REMARK VINA RESULT:      -7.8      2.854      5.064
REMARK  6 active torsions:
REMARK  status: ('A' for Active; 'I' for Inactive)
REMARK    1  A    between atoms: N1_2  and  C2_3 
REMARK    2  A    between atoms: C2_3  and  C3_4 
REMARK    3  A    between atoms: C3_4  and  O1_5 
REMARK    4  A    between atoms: O1_5  and  C4_6 
REMARK    5  A    between atoms: C6_8  and  C8_11 
REMARK    6  A    between atoms: N3_12  and  C9_13 
ROOT
HETATM    1  C4  UNL     1      24.982   3.564  50.413  1.00  0.00     0.084 A 
HETATM    2  C5  UNL     1      24.127   3.248  51.479  1.00  0.00     0.069 A 
HETATM    3  C6  UNL     1      22.757   3.260  52.111  1.00  0.00     0.023 A 
HETATM    4  C7  UNL     1      21.465   2.997  52.150  1.00  0.00     0.065 A 
HETATM    5  N2  UNL     1      21.440   4.326  52.145  1.00  0.00    -0.229 NA
HETATM    6  C8  UNL     1      22.629   5.015  52.111  1.00  0.00     0.108 A 
HETATM    7  N3  UNL     1      22.601   3.580  52.115  1.00  0.00     0.000 N 
HETATM    8  C9  UNL     1      23.943   3.002  52.078  1.00  0.00     0.003 A 
HETATM    9  C10 UNL     1      25.175   2.744  52.025  1.00  0.00     0.070 A 
HETATM   10  C11 UNL     1      26.020   2.979  51.091  1.00  0.00     0.111 A 
HETATM   11  O2  UNL     1      27.230   2.381  51.707  1.00  0.00    -0.239 OA
HETATM   12  N4  UNL     1      26.880   0.936  51.923  1.00  0.00    -0.264 N 
HETATM   13  C12 UNL     1      26.168   0.184  52.961  1.00  0.00     0.053 C 
HETATM   14  C13 UNL     1      27.305  -0.611  53.464  1.00  0.00     0.072 C 
HETATM   15  C14 UNL     1      25.011  -0.029  53.535  1.00  0.00     0.091 C 
HETATM   16 CL1  UNL     1      24.959  -1.191  54.854  1.00  0.00    -0.079 Cl
HETATM   17  C15 UNL     1      23.567   0.264  53.466  1.00  0.00     0.107 A 
HETATM   18  F1  UNL     1      22.464   0.018  54.170  1.00  0.00    -0.359 F 
HETATM   19  C16 UNL     1      22.586   0.862  52.794  1.00  0.00     0.197 A 
HETATM   20  C17 UNL     1      21.374   1.485  52.156  1.00  0.00     0.071 C 
HETATM   21  H12 UNL     1      27.303   0.519  51.056  1.00  0.00     0.194 HD
ENDROOT
BRANCH   1  22
HETATM   22  O1  UNL     1      25.529   3.989  49.282  1.00  0.00    -0.351 OA
BRANCH  22  23
HETATM   23  C3  UNL     1      26.284   5.143  49.072  1.00  0.00     0.205 C 
BRANCH  23  24
HETATM   24  C2  UNL     1      27.693   4.865  48.618  1.00  0.00     0.295 C 
BRANCH  24  25
HETATM   25  N1  UNL     1      28.542   6.027  48.892  1.00  0.00     0.081 N 
HETATM   26  C1  UNL     1      28.818   6.779  47.696  1.00  0.00     0.306 C 
HETATM   27  H4  UNL     1      29.413   5.721  49.358  1.00  0.00     0.315 HD
ENDBRANCH  24  25
ENDBRANCH  23  24
ENDBRANCH  22  23
ENDBRANCH   1  22
TORSDOF 6
ENDMDL
MODEL 6
REMARK VINA RESULT:      -7.8      3.122      5.682
REMARK  6 active torsions:
REMARK  status: ('A' for Active; 'I' for Inactive)
REMARK    1  A    between atoms: N1_2  and  C2_3 
REMARK    2  A    between atoms: C2_3  and  C3_4 
REMARK    3  A    between atoms: C3_4  and  O1_5 
REMARK    4  A    between atoms: O1_5  and  C4_6 
REMARK    5  A    between atoms: C6_8  and  C8_11 
REMARK    6  A    between atoms: N3_12  and  C9_13 
ROOT
HETATM    1  C4  UNL     1      23.189   2.332  50.380  1.00  0.00     0.084 A 
HETATM    2  C5  UNL     1      22.973   1.815  51.667  1.00  0.00     0.069 A 
HETATM    3  C6  UNL     1      22.112   1.065  52.652  1.00  0.00     0.023 A 
HETATM    4  C7  UNL     1      21.421   0.023  53.073  1.00  0.00     0.065 A 
HETATM    5  N2  UNL     1      20.452   0.926  52.960  1.00  0.00    -0.229 NA
HETATM    6  C8  UNL     1      20.767   2.194  52.535  1.00  0.00     0.108 A 
HETATM    7  N3  UNL     1      21.776   1.183  52.672  1.00  0.00     0.000 N 
HETATM    8  C9  UNL     1      23.104   1.676  52.312  1.00  0.00     0.003 A 
HETATM    9  C10 UNL     1      24.126   2.313  51.939  1.00  0.00     0.070 A 
HETATM   10  C11 UNL     1      24.410   2.802  50.789  1.00  0.00     0.111 A 
HETATM   11  O2  UNL     1      25.750   3.362  51.093  1.00  0.00    -0.239 OA
HETATM   12  N4  UNL     1      26.574   2.182  51.523  1.00  0.00    -0.264 N 
HETATM   13  C12 UNL     1      26.765   1.452  52.780  1.00  0.00     0.053 C 
HETATM   14  C13 UNL     1      28.181   1.798  53.012  1.00  0.00     0.072 C 
HETATM   15  C14 UNL     1      26.203   0.675  53.671  1.00  0.00     0.091 C 
HETATM   16 CL1  UNL     1      27.178   0.178  55.047  1.00  0.00    -0.079 Cl
HETATM   17  C15 UNL     1      24.995  -0.113  53.983  1.00  0.00     0.107 A 
HETATM   18  F1  UNL     1      24.511  -0.842  54.986  1.00  0.00    -0.359 F 
HETATM   19  C16 UNL     1      23.805  -0.533  53.562  1.00  0.00     0.197 A 
HETATM   20  C17 UNL     1      22.442  -1.083  53.236  1.00  0.00     0.071 C 
HETATM   21  H12 UNL     1      27.045   1.953  50.612  1.00  0.00     0.194 HD
ENDROOT
BRANCH   1  22
HETATM   22  O1  UNL     1      23.106   2.701  49.109  1.00  0.00    -0.351 OA
BRANCH  22  23
HETATM   23  C3  UNL     1      22.374   2.100  48.085  1.00  0.00     0.205 C 
BRANCH  23  24
HETATM   24  C2  UNL     1      21.264   1.211  48.581  1.00  0.00     0.295 C 
BRANCH  24  25
HETATM   25  N1  UNL     1      19.980   1.908  48.466  1.00  0.00     0.081 N 
HETATM   26  C1  UNL     1      20.058   3.019  47.553  1.00  0.00     0.306 C 
HETATM   27  H4  UNL     1      19.660   2.208  49.402  1.00  0.00     0.315 HD
ENDBRANCH  24  25
ENDBRANCH  23  24
ENDBRANCH  22  23
ENDBRANCH   1  22
TORSDOF 6
ENDMDL
MODEL 7
REMARK VINA RESULT:      -7.7      3.079      5.210
REMARK  6 active torsions:
REMARK  status: ('A' for Active; 'I' for Inactive)
REMARK    1  A    between atoms: N1_2  and  C2_3 
REMARK    2  A    between atoms: C2_3  and  C3_4 
REMARK    3  A    between atoms: C3_4  and  O1_5 
REMARK    4  A    between atoms: O1_5  and  C4_6 
REMARK    5  A    between atoms: C6_8  and  C8_11 
REMARK    6  A    between atoms: N3_12  and  C9_13 
ROOT
HETATM    1  C4  UNL     1      25.096   2.807  51.369  1.00  0.00     0.084 A 
HETATM    2  C5  UNL     1      23.725   2.570  51.552  1.00  0.00     0.069 A 
HETATM    3  C6  UNL     1      22.302   2.653  51.057  1.00  0.00     0.023 A 
HETATM    4  C7  UNL     1      21.329   2.427  50.195  1.00  0.00     0.065 A 
HETATM    5  N2  UNL     1      21.389   3.754  50.150  1.00  0.00    -0.229 NA
HETATM    6  C8  UNL     1      22.308   4.408  50.936  1.00  0.00     0.108 A 
HETATM    7  N3  UNL     1      22.205   2.976  50.946  1.00  0.00     0.000 N 
HETATM    8  C9  UNL     1      23.165   2.361  51.860  1.00  0.00     0.003 A 
HETATM    9  C10 UNL     1      24.075   2.066  52.681  1.00  0.00     0.070 A 
HETATM   10  C11 UNL     1      25.343   2.230  52.588  1.00  0.00     0.111 A 
HETATM   11  O2  UNL     1      25.755   1.631  53.881  1.00  0.00    -0.239 OA
HETATM   12  N4  UNL     1      25.273   0.210  53.822  1.00  0.00    -0.264 N 
HETATM   13  C12 UNL     1      24.000  -0.468  54.091  1.00  0.00     0.053 C 
HETATM   14  C13 UNL     1      24.428  -1.266  55.256  1.00  0.00     0.072 C 
HETATM   15  C14 UNL     1      22.758  -0.618  53.707  1.00  0.00     0.091 C 
HETATM   16 CL1  UNL     1      21.745  -1.709  54.643  1.00  0.00    -0.079 Cl
HETATM   17  C15 UNL     1      21.781  -0.290  52.651  1.00  0.00     0.107 A 
HETATM   18  F1  UNL     1      20.487  -0.469  52.399  1.00  0.00    -0.359 F 
HETATM   19  C16 UNL     1      21.573   0.299  51.477  1.00  0.00     0.197 A 
HETATM   20  C17 UNL     1      21.176   0.921  50.165  1.00  0.00     0.071 C 
HETATM   21  H12 UNL     1      26.154  -0.263  53.497  1.00  0.00     0.194 HD
ENDROOT
BRANCH   1  22
HETATM   22  O1  UNL     1      26.295   3.157  50.925  1.00  0.00    -0.351 OA
BRANCH  22  23
HETATM   23  C3  UNL     1      26.634   3.657  49.668  1.00  0.00     0.205 C 
BRANCH  23  24
HETATM   24  C2  UNL     1      25.857   4.888  49.281  1.00  0.00     0.295 C 
BRANCH  24  25
HETATM   25  N1  UNL     1      26.340   6.041  50.046  1.00  0.00     0.081 N 
HETATM   26  C1  UNL     1      25.274   6.956  50.359  1.00  0.00     0.306 C 
HETATM   27  H4  UNL     1      27.102   6.509  49.528  1.00  0.00     0.315 HD
ENDBRANCH  24  25
ENDBRANCH  23  24
ENDBRANCH  22  23
ENDBRANCH   1  22
TORSDOF 6
ENDMDL
MODEL 8
REMARK VINA RESULT:      -7.5      3.928      6.523
REMARK  6 active torsions:
REMARK  status: ('A' for Active; 'I' for Inactive)
REMARK    1  A    between atoms: N1_2  and  C2_3 
REMARK    2  A    between atoms: C2_3  and  C3_4 
REMARK    3  A    between atoms: C3_4  and  O1_5 
REMARK    4  A    between atoms: O1_5  and  C4_6 
REMARK    5  A    between atoms: C6_8  and  C8_11 
REMARK    6  A    between atoms: N3_12  and  C9_13 
ROOT
HETATM    1  C4  UNL     1      19.887   0.341  52.289  1.00  0.00     0.084 A 
HETATM    2  C5  UNL     1      21.075   0.671  52.959  1.00  0.00     0.069 A 
HETATM    3  C6  UNL     1      22.355   0.256  53.641  1.00  0.00     0.023 A 
HETATM    4  C7  UNL     1      23.523  -0.354  53.705  1.00  0.00     0.065 A 
HETATM    5  N2  UNL     1      22.848  -1.027  54.631  1.00  0.00    -0.229 NA
HETATM    6  C8  UNL     1      21.541  -0.685  54.884  1.00  0.00     0.108 A 
HETATM    7  N3  UNL     1      22.312   0.008  53.893  1.00  0.00     0.000 N 
HETATM    8  C9  UNL     1      21.545   1.064  53.236  1.00  0.00     0.003 A 
HETATM    9  C10 UNL     1      20.691   1.888  52.809  1.00  0.00     0.070 A 
HETATM   10  C11 UNL     1      19.596   1.676  52.178  1.00  0.00     0.111 A 
HETATM   11  O2  UNL     1      19.158   3.080  51.984  1.00  0.00    -0.239 OA
HETATM   12  N4  UNL     1      20.257   3.724  51.189  1.00  0.00    -0.264 N 
HETATM   13  C12 UNL     1      21.551   4.335  51.510  1.00  0.00     0.053 C 
HETATM   14  C13 UNL     1      21.235   5.721  51.114  1.00  0.00     0.072 C 
HETATM   15  C14 UNL     1      22.762   4.121  51.960  1.00  0.00     0.091 C 
HETATM   16 CL1  UNL     1      23.841   5.504  52.079  1.00  0.00    -0.079 Cl
HETATM   17  C15 UNL     1      23.724   3.078  52.361  1.00  0.00     0.107 A 
HETATM   18  F1  UNL     1      24.952   2.995  52.869  1.00  0.00    -0.359 F 
HETATM   19  C16 UNL     1      23.964   1.774  52.477  1.00  0.00     0.197 A 
HETATM   20  C17 UNL     1      24.384   0.342  52.672  1.00  0.00     0.071 C 
HETATM   21  H12 UNL     1      19.857   3.627  50.222  1.00  0.00     0.194 HD
ENDROOT
BRANCH   1  22
HETATM   22  O1  UNL     1      18.864  -0.266  51.703  1.00  0.00    -0.351 OA
BRANCH  22  23
HETATM   23  C3  UNL     1      17.632  -0.608  52.261  1.00  0.00     0.205 C 
BRANCH  23  24
HETATM   24  C2  UNL     1      17.729  -1.663  53.331  1.00  0.00     0.295 C 
BRANCH  24  25
HETATM   25  N1  UNL     1      16.562  -2.546  53.265  1.00  0.00     0.081 N 
HETATM   26  C1  UNL     1      15.633  -2.126  52.249  1.00  0.00     0.306 C 
HETATM   27  H4  UNL     1      16.110  -2.598  54.194  1.00  0.00     0.315 HD
ENDBRANCH  24  25
ENDBRANCH  23  24
ENDBRANCH  22  23
ENDBRANCH   1  22
TORSDOF 6
ENDMDL
MODEL 9
REMARK VINA RESULT:      -7.5      4.584      7.317
REMARK  6 active torsions:
REMARK  status: ('A' for Active; 'I' for Inactive)
REMARK    1  A    between atoms: N1_2  and  C2_3 
REMARK    2  A    between atoms: C2_3  and  C3_4 
REMARK    3  A    between atoms: C3_4  and  O1_5 
REMARK    4  A    between atoms: O1_5  and  C4_6 
REMARK    5  A    between atoms: C6_8  and  C8_11 
REMARK    6  A    between atoms: N3_12  and  C9_13 
ROOT
HETATM    1  C4  UNL     1      26.838   5.034  48.928  1.00  0.00     0.084 A 
HETATM    2  C5  UNL     1      26.701   6.401  48.642  1.00  0.00     0.069 A 
HETATM    3  C6  UNL     1      25.865   7.656  48.604  1.00  0.00     0.023 A 
HETATM    4  C7  UNL     1      25.101   8.591  49.136  1.00  0.00     0.065 A 
HETATM    5  N2  UNL     1      24.244   8.032  48.288  1.00  0.00    -0.229 NA
HETATM    6  C8  UNL     1      24.666   6.982  47.508  1.00  0.00     0.108 A 
HETATM    7  N3  UNL     1      25.551   7.618  48.442  1.00  0.00     0.000 N 
HETATM    8  C9  UNL     1      26.883   7.015  48.437  1.00  0.00     0.003 A 
HETATM    9  C10 UNL     1      27.929   6.332  48.270  1.00  0.00     0.070 A 
HETATM   10  C11 UNL     1      28.144   5.094  48.518  1.00  0.00     0.111 A 
HETATM   11  O2  UNL     1      29.568   5.013  48.108  1.00  0.00    -0.239 OA
HETATM   12  N4  UNL     1      30.283   5.992  48.996  1.00  0.00    -0.264 N 
HETATM   13  C12 UNL     1      30.517   7.439  48.970  1.00  0.00     0.053 C 
HETATM   14  C13 UNL     1      31.982   7.412  48.788  1.00  0.00     0.072 C 
HETATM   15  C14 UNL     1      29.964   8.622  49.053  1.00  0.00     0.091 C 
HETATM   16 CL1  UNL     1      31.013  10.024  48.896  1.00  0.00    -0.079 Cl
HETATM   17  C15 UNL     1      28.709   9.340  49.347  1.00  0.00     0.107 A 
HETATM   18  F1  UNL     1      28.250  10.590  49.345  1.00  0.00    -0.359 F 
HETATM   19  C16 UNL     1      27.437   9.243  49.727  1.00  0.00     0.197 A 
HETATM   20  C17 UNL     1      25.990   9.299  50.137  1.00  0.00     0.071 C 
HETATM   21  H12 UNL     1      30.620   5.337  49.746  1.00  0.00     0.194 HD
ENDROOT
BRANCH   1  22
HETATM   22  O1  UNL     1      26.664   3.768  49.281  1.00  0.00    -0.351 OA
BRANCH  22  23
HETATM   23  C3  UNL     1      25.633   3.221  50.045  1.00  0.00     0.205 C 
BRANCH  23  24
HETATM   24  C2  UNL     1      26.114   2.282  51.120  1.00  0.00     0.295 C 
BRANCH  24  25
HETATM   25  N1  UNL     1      27.238   2.886  51.840  1.00  0.00     0.081 N 
HETATM   26  C1  UNL     1      27.665   2.066  52.943  1.00  0.00     0.306 C 
HETATM   27  H4  UNL     1      26.983   3.838  52.151  1.00  0.00     0.315 HD
ENDBRANCH  24  25
ENDBRANCH  23  24
ENDBRANCH  22  23
ENDBRANCH   1  22
TORSDOF 6
ENDMDL
