MODEL 1
REMARK VINA RESULT:      -7.8      0.000      0.000
REMARK  5 active torsions:
REMARK  status: ('A' for Active; 'I' for Inactive)
REMARK    1  A    between atoms: N1_2  and  C3_4 
REMARK    2  A    between atoms: C3_4  and  C4_5 
REMARK    3  A    between atoms: C4_5  and  C5_6 
REMARK    4  A    between atoms: C6_7  and  C7_8 
REMARK    5  A    between atoms: C10_12  and  N2_13 
ROOT
HETATM    1  C5  UNL     1      25.006   0.240  53.420  1.00  0.00    -0.052 A 
HETATM    2  C6  UNL     1      25.041   1.564  53.430  1.00  0.00    -0.046 A 
HETATM    3  C8  UNL     1      23.969   2.482  53.065  1.00  0.00     0.094 A 
HETATM    4  C9  UNL     1      24.315   3.433  51.976  1.00  0.00     0.039 C 
HETATM    5  C10 UNL     1      23.547   4.367  51.409  1.00  0.00     0.128 C 
HETATM    6  N3  UNL     1      22.174   4.619  51.775  1.00  0.00    -0.225 NA
HETATM    7  C16 UNL     1      21.324   3.689  52.142  1.00  0.00     0.235 C 
HETATM    8  N4  UNL     1      21.586   2.267  52.249  1.00  0.00    -0.245 NA
HETATM    9  C17 UNL     1      22.723   1.756  52.644  1.00  0.00     0.048 A 
HETATM   10  C18 UNL     1      22.663   0.301  52.628  1.00  0.00     0.029 A 
HETATM   11  C19 UNL     1      23.746  -0.381  52.995  1.00  0.00     0.009 A 
ENDROOT
BRANCH   5  12
HETATM   12  N2  UNL     1      24.201   5.131  50.366  1.00  0.00    -0.337 N 
HETATM   13  C11 UNL     1      25.501   4.664  50.004  1.00  0.00     0.120 A 
HETATM   14  C12 UNL     1      26.165   5.324  49.073  1.00  0.00     0.087 A 
HETATM   15 CL2  UNL     1      27.766   4.719  48.653  1.00  0.00    -0.080 Cl
HETATM   16  C13 UNL     1      25.624   6.517  48.386  1.00  0.00     0.137 A 
HETATM   17  F1  UNL     1      26.376   7.133  47.446  1.00  0.00    -0.205 F 
HETATM   18  C14 UNL     1      24.405   6.918  48.746  1.00  0.00     0.037 A 
HETATM   19  C15 UNL     1      23.564   6.271  49.764  1.00  0.00     0.160 A 
ENDBRANCH   5  12
BRANCH   2  20
HETATM   20  C7  UNL     1      26.227   2.358  53.836  1.00  0.00     0.150 C 
HETATM   21 CL1  UNL     1      27.431   2.396  52.496  1.00  0.00    -0.126 Cl
ENDBRANCH   2  20
BRANCH   1  22
HETATM   22  C4  UNL     1      26.007  -0.763  53.764  1.00  0.00     0.069 C 
BRANCH  22  23
HETATM   23  C3  UNL     1      26.964  -1.032  52.628  1.00  0.00     0.276 C 
BRANCH  23  24
HETATM   24  N1  UNL     1      28.324  -1.148  53.033  1.00  0.00     0.080 N 
HETATM   25  C1  UNL     1      28.538  -0.413  54.245  1.00  0.00     0.309 C 
HETATM   26  C2  UNL     1      28.877  -2.455  53.085  1.00  0.00     0.309 C 
ENDBRANCH  23  24
ENDBRANCH  22  23
ENDBRANCH   1  22
TORSDOF 5
ENDMDL
MODEL 2
REMARK VINA RESULT:      -7.7      3.946      7.024
REMARK  5 active torsions:
REMARK  status: ('A' for Active; 'I' for Inactive)
REMARK    1  A    between atoms: N1_2  and  C3_4 
REMARK    2  A    between atoms: C3_4  and  C4_5 
REMARK    3  A    between atoms: C4_5  and  C5_6 
REMARK    4  A    between atoms: C6_7  and  C7_8 
REMARK    5  A    between atoms: C10_12  and  N2_13 
ROOT
HETATM    1  C5  UNL     1      20.153   0.158  52.326  1.00  0.00    -0.052 A 
HETATM    2  C6  UNL     1      21.142   0.602  53.085  1.00  0.00    -0.046 A 
HETATM    3  C8  UNL     1      22.198   1.535  52.711  1.00  0.00     0.094 A 
HETATM    4  C9  UNL     1      23.577   1.009  52.880  1.00  0.00     0.039 C 
HETATM    5  C10 UNL     1      24.739   1.607  52.602  1.00  0.00     0.128 C 
HETATM    6  N3  UNL     1      24.854   2.937  52.054  1.00  0.00    -0.225 NA
HETATM    7  C16 UNL     1      24.015   3.456  51.189  1.00  0.00     0.235 C 
HETATM    8  N4  UNL     1      22.841   2.817  50.628  1.00  0.00    -0.245 NA
HETATM    9  C17 UNL     1      22.066   1.993  51.286  1.00  0.00     0.048 A 
HETATM   10  C18 UNL     1      20.984   1.519  50.434  1.00  0.00     0.029 A 
HETATM   11  C19 UNL     1      20.106   0.661  50.947  1.00  0.00     0.009 A 
ENDROOT
BRANCH   5  12
HETATM   12  N2  UNL     1      25.911   0.806  52.890  1.00  0.00    -0.337 N 
HETATM   13  C11 UNL     1      27.003   1.522  53.465  1.00  0.00     0.120 A 
HETATM   14  C12 UNL     1      28.112   0.860  53.737  1.00  0.00     0.087 A 
HETATM   15 CL2  UNL     1      29.438   1.778  54.445  1.00  0.00    -0.080 Cl
HETATM   16  C13 UNL     1      28.272  -0.588  53.479  1.00  0.00     0.137 A 
HETATM   17  F1  UNL     1      29.447  -1.185  53.787  1.00  0.00    -0.205 F 
HETATM   18  C14 UNL     1      27.229  -1.224  52.948  1.00  0.00     0.037 A 
HETATM   19  C15 UNL     1      25.941  -0.604  52.603  1.00  0.00     0.160 A 
ENDBRANCH   5  12
BRANCH   2  20
HETATM   20  C7  UNL     1      21.342   0.206  54.501  1.00  0.00     0.150 C 
HETATM   21 CL1  UNL     1      21.799  -1.535  54.595  1.00  0.00    -0.126 Cl
ENDBRANCH   2  20
BRANCH   1  22
HETATM   22  C4  UNL     1      19.055  -0.764  52.597  1.00  0.00     0.069 C 
BRANCH  22  23
HETATM   23  C3  UNL     1      17.853  -0.499  51.722  1.00  0.00     0.276 C 
BRANCH  23  24
HETATM   24  N1  UNL     1      16.655  -1.110  52.187  1.00  0.00     0.080 N 
HETATM   25  C1  UNL     1      16.970  -2.202  53.062  1.00  0.00     0.309 C 
HETATM   26  C2  UNL     1      15.655  -0.254  52.723  1.00  0.00     0.309 C 
ENDBRANCH  23  24
ENDBRANCH  22  23
ENDBRANCH   1  22
TORSDOF 5
ENDMDL
MODEL 3
REMARK VINA RESULT:      -7.7      3.042      6.678
REMARK  5 active torsions:
REMARK  status: ('A' for Active; 'I' for Inactive)
REMARK    1  A    between atoms: N1_2  and  C3_4 
REMARK    2  A    between atoms: C3_4  and  C4_5 
REMARK    3  A    between atoms: C4_5  and  C5_6 
REMARK    4  A    between atoms: C6_7  and  C7_8 
REMARK    5  A    between atoms: C10_12  and  N2_13 
ROOT
HETATM    1  C5  UNL     1      21.189   3.317  50.993  1.00  0.00    -0.052 A 
HETATM    2  C6  UNL     1      22.167   2.457  50.757  1.00  0.00    -0.046 A 
HETATM    3  C8  UNL     1      22.523   1.281  51.542  1.00  0.00     0.094 A 
HETATM    4  C9  UNL     1      23.923   1.271  52.041  1.00  0.00     0.039 C 
HETATM    5  C10 UNL     1      24.532   0.356  52.800  1.00  0.00     0.128 C 
HETATM    6  N3  UNL     1      23.894  -0.841  53.295  1.00  0.00    -0.225 NA
HETATM    7  C16 UNL     1      22.636  -0.910  53.661  1.00  0.00     0.235 C 
HETATM    8  N4  UNL     1      21.666   0.167  53.644  1.00  0.00    -0.245 NA
HETATM    9  C17 UNL     1      21.623   1.105  52.732  1.00  0.00     0.048 A 
HETATM   10  C18 UNL     1      20.540   2.038  53.009  1.00  0.00     0.029 A 
HETATM   11  C19 UNL     1      20.363   3.064  52.179  1.00  0.00     0.009 A 
ENDROOT
BRANCH   5  12
HETATM   12  N2  UNL     1      25.915   0.655  53.107  1.00  0.00    -0.337 N 
HETATM   13  C11 UNL     1      26.795  -0.468  53.074  1.00  0.00     0.120 A 
HETATM   14  C12 UNL     1      28.069  -0.274  53.363  1.00  0.00     0.087 A 
HETATM   15 CL2  UNL     1      29.124  -1.683  53.313  1.00  0.00    -0.080 Cl
HETATM   16  C13 UNL     1      28.625   1.052  53.712  1.00  0.00     0.137 A 
HETATM   17  F1  UNL     1      29.943   1.158  53.996  1.00  0.00    -0.205 F 
HETATM   18  C14 UNL     1      27.774   2.077  53.725  1.00  0.00     0.037 A 
HETATM   19  C15 UNL     1      26.338   1.994  53.421  1.00  0.00     0.160 A 
ENDBRANCH   5  12
BRANCH   2  20
HETATM   20  C7  UNL     1      23.096   2.554  49.604  1.00  0.00     0.150 C 
HETATM   21 CL1  UNL     1      22.321   1.864  48.130  1.00  0.00    -0.126 Cl
ENDBRANCH   2  20
BRANCH   1  22
HETATM   22  C4  UNL     1      20.750   4.512  50.281  1.00  0.00     0.069 C 
BRANCH  22  23
HETATM   23  C3  UNL     1      21.228   5.783  50.941  1.00  0.00     0.276 C 
BRANCH  23  24
HETATM   24  N1  UNL     1      22.488   6.242  50.464  1.00  0.00     0.080 N 
HETATM   25  C1  UNL     1      22.389   7.615  50.060  1.00  0.00     0.309 C 
HETATM   26  C2  UNL     1      23.621   5.998  51.286  1.00  0.00     0.309 C 
ENDBRANCH  23  24
ENDBRANCH  22  23
ENDBRANCH   1  22
TORSDOF 5
ENDMDL
MODEL 4
REMARK VINA RESULT:      -7.6      3.791      7.564
REMARK  5 active torsions:
REMARK  status: ('A' for Active; 'I' for Inactive)
REMARK    1  A    between atoms: N1_2  and  C3_4 
REMARK    2  A    between atoms: C3_4  and  C4_5 
REMARK    3  A    between atoms: C4_5  and  C5_6 
REMARK    4  A    between atoms: C6_7  and  C7_8 
REMARK    5  A    between atoms: C10_12  and  N2_13 
ROOT
HETATM    1  C5  UNL     1      24.695   4.452  49.979  1.00  0.00    -0.052 A 
HETATM    2  C6  UNL     1      24.319   4.110  51.201  1.00  0.00    -0.046 A 
HETATM    3  C8  UNL     1      24.903   3.083  52.054  1.00  0.00     0.094 A 
HETATM    4  C9  UNL     1      23.949   2.032  52.498  1.00  0.00     0.039 C 
HETATM    5  C10 UNL     1      24.184   0.957  53.254  1.00  0.00     0.128 C 
HETATM    6  N3  UNL     1      25.479   0.613  53.793  1.00  0.00    -0.225 NA
HETATM    7  C16 UNL     1      26.616   0.820  53.173  1.00  0.00     0.235 C 
HETATM    8  N4  UNL     1      26.795   1.417  51.863  1.00  0.00    -0.245 NA
HETATM    9  C17 UNL     1      26.056   2.386  51.389  1.00  0.00     0.048 A 
HETATM   10  C18 UNL     1      26.487   2.748  50.046  1.00  0.00     0.029 A 
HETATM   11  C19 UNL     1      25.831   3.716  49.411  1.00  0.00     0.009 A 
ENDROOT
BRANCH   5  12
HETATM   12  N2  UNL     1      23.021   0.131  53.502  1.00  0.00    -0.337 N 
HETATM   13  C11 UNL     1      21.876   0.451  52.713  1.00  0.00     0.120 A 
HETATM   14  C12 UNL     1      20.772  -0.248  52.898  1.00  0.00     0.087 A 
HETATM   15 CL2  UNL     1      19.380   0.176  51.906  1.00  0.00    -0.080 Cl
HETATM   16  C13 UNL     1      20.669  -1.350  53.881  1.00  0.00     0.137 A 
HETATM   17  F1  UNL     1      19.496  -2.012  54.007  1.00  0.00    -0.205 F 
HETATM   18  C14 UNL     1      21.761  -1.624  54.594  1.00  0.00     0.037 A 
HETATM   19  C15 UNL     1      23.048  -0.923  54.481  1.00  0.00     0.160 A 
ENDBRANCH   5  12
BRANCH   2  20
HETATM   20  C7  UNL     1      23.196   4.750  51.931  1.00  0.00     0.150 C 
HETATM   21 CL1  UNL     1      21.626   4.274  51.186  1.00  0.00    -0.126 Cl
ENDBRANCH   2  20
BRANCH   1  22
HETATM   22  C4  UNL     1      24.188   5.455  49.048  1.00  0.00     0.069 C 
BRANCH  22  23
HETATM   23  C3  UNL     1      25.123   6.632  48.907  1.00  0.00     0.276 C 
BRANCH  23  24
HETATM   24  N1  UNL     1      25.281   7.390  50.102  1.00  0.00     0.080 N 
HETATM   25  C1  UNL     1      26.464   8.197  50.018  1.00  0.00     0.309 C 
HETATM   26  C2  UNL     1      24.154   8.124  50.558  1.00  0.00     0.309 C 
ENDBRANCH  23  24
ENDBRANCH  22  23
ENDBRANCH   1  22
TORSDOF 5
ENDMDL
MODEL 5
REMARK VINA RESULT:      -7.5      3.774      6.980
REMARK  5 active torsions:
REMARK  status: ('A' for Active; 'I' for Inactive)
REMARK    1  A    between atoms: N1_2  and  C3_4 
REMARK    2  A    between atoms: C3_4  and  C4_5 
REMARK    3  A    between atoms: C4_5  and  C5_6 
REMARK    4  A    between atoms: C6_7  and  C7_8 
REMARK    5  A    between atoms: C10_12  and  N2_13 
ROOT
HETATM    1  C5  UNL     1      21.073   0.952  50.823  1.00  0.00    -0.052 A 
HETATM    2  C6  UNL     1      21.953   1.491  51.652  1.00  0.00    -0.046 A 
HETATM    3  C8  UNL     1      23.123   2.289  51.308  1.00  0.00     0.094 A 
HETATM    4  C9  UNL     1      24.412   1.748  51.813  1.00  0.00     0.039 C 
HETATM    5  C10 UNL     1      25.645   2.231  51.642  1.00  0.00     0.128 C 
HETATM    6  N3  UNL     1      25.950   3.425  50.890  1.00  0.00    -0.225 NA
HETATM    7  C16 UNL     1      25.308   3.802  49.810  1.00  0.00     0.235 C 
HETATM    8  N4  UNL     1      24.200   3.116  49.175  1.00  0.00    -0.245 NA
HETATM    9  C17 UNL     1      23.266   2.468  49.823  1.00  0.00     0.048 A 
HETATM   10  C18 UNL     1      22.308   1.885  48.894  1.00  0.00     0.029 A 
HETATM   11  C19 UNL     1      21.295   1.180  49.390  1.00  0.00     0.009 A 
ENDROOT
BRANCH   5  12
HETATM   12  N2  UNL     1      26.688   1.452  52.276  1.00  0.00    -0.337 N 
HETATM   13  C11 UNL     1      26.551   0.038  52.140  1.00  0.00     0.120 A 
HETATM   14  C12 UNL     1      27.456  -0.737  52.710  1.00  0.00     0.087 A 
HETATM   15 CL2  UNL     1      27.252  -2.477  52.521  1.00  0.00    -0.080 Cl
HETATM   16  C13 UNL     1      28.606  -0.208  53.475  1.00  0.00     0.137 A 
HETATM   17  F1  UNL     1      29.484  -1.076  54.027  1.00  0.00    -0.205 F 
HETATM   18  C14 UNL     1      28.705   1.118  53.573  1.00  0.00     0.037 A 
HETATM   19  C15 UNL     1      27.768   2.086  52.985  1.00  0.00     0.160 A 
ENDBRANCH   5  12
BRANCH   2  20
HETATM   20  C7  UNL     1      21.883   1.368  53.130  1.00  0.00     0.150 C 
HETATM   21 CL1  UNL     1      22.245  -0.326  53.624  1.00  0.00    -0.126 Cl
ENDBRANCH   2  20
BRANCH   1  22
HETATM   22  C4  UNL     1      19.880   0.147  51.058  1.00  0.00     0.069 C 
BRANCH  22  23
HETATM   23  C3  UNL     1      18.628   0.987  51.148  1.00  0.00     0.276 C 
BRANCH  23  24
HETATM   24  N1  UNL     1      17.863   1.013  49.948  1.00  0.00     0.080 N 
HETATM   25  C1  UNL     1      16.864  -0.015  49.983  1.00  0.00     0.309 C 
HETATM   26  C2  UNL     1      17.337   2.269  49.541  1.00  0.00     0.309 C 
ENDBRANCH  23  24
ENDBRANCH  22  23
ENDBRANCH   1  22
TORSDOF 5
ENDMDL
MODEL 6
REMARK VINA RESULT:      -7.5      2.342      2.735
REMARK  5 active torsions:
REMARK  status: ('A' for Active; 'I' for Inactive)
REMARK    1  A    between atoms: N1_2  and  C3_4 
REMARK    2  A    between atoms: C3_4  and  C4_5 
REMARK    3  A    between atoms: C4_5  and  C5_6 
REMARK    4  A    between atoms: C6_7  and  C7_8 
REMARK    5  A    between atoms: C10_12  and  N2_13 
ROOT
HETATM    1  C5  UNL     1      25.137   0.203  53.343  1.00  0.00    -0.052 A 
HETATM    2  C6  UNL     1      24.785   1.414  52.942  1.00  0.00    -0.046 A 
HETATM    3  C8  UNL     1      23.434   1.938  52.782  1.00  0.00     0.094 A 
HETATM    4  C9  UNL     1      23.122   2.436  51.417  1.00  0.00     0.039 C 
HETATM    5  C10 UNL     1      21.976   2.944  50.955  1.00  0.00     0.128 C 
HETATM    6  N3  UNL     1      20.781   3.099  51.749  1.00  0.00    -0.225 NA
HETATM    7  C16 UNL     1      20.403   2.262  52.687  1.00  0.00     0.235 C 
HETATM    8  N4  UNL     1      21.088   1.052  53.098  1.00  0.00    -0.245 NA
HETATM    9  C17 UNL     1      22.388   0.920  53.136  1.00  0.00     0.048 A 
HETATM   10  C18 UNL     1      22.754  -0.418  53.582  1.00  0.00     0.029 A 
HETATM   11  C19 UNL     1      24.046  -0.725  53.667  1.00  0.00     0.009 A 
ENDROOT
BRANCH   5  12
HETATM   12  N2  UNL     1      22.011   3.337  49.562  1.00  0.00    -0.337 N 
HETATM   13  C11 UNL     1      22.737   4.537  49.293  1.00  0.00     0.120 A 
HETATM   14  C12 UNL     1      22.795   4.967  48.046  1.00  0.00     0.087 A 
HETATM   15 CL2  UNL     1      23.698   6.451  47.754  1.00  0.00    -0.080 Cl
HETATM   16  C13 UNL     1      22.150   4.262  46.917  1.00  0.00     0.137 A 
HETATM   17  F1  UNL     1      22.260   4.777  45.671  1.00  0.00    -0.205 F 
HETATM   18  C14 UNL     1      21.489   3.142  47.206  1.00  0.00     0.037 A 
HETATM   19  C15 UNL     1      21.352   2.558  48.548  1.00  0.00     0.160 A 
ENDBRANCH   5  12
BRANCH   2  20
HETATM   20  C7  UNL     1      25.752   2.480  52.579  1.00  0.00     0.150 C 
HETATM   21 CL1  UNL     1      26.624   2.031  51.067  1.00  0.00    -0.126 Cl
ENDBRANCH   2  20
BRANCH   1  22
HETATM   22  C4  UNL     1      26.442  -0.418  53.538  1.00  0.00     0.069 C 
BRANCH  22  23
HETATM   23  C3  UNL     1      27.154   0.112  54.759  1.00  0.00     0.276 C 
BRANCH  23  24
HETATM   24  N1  UNL     1      28.560   0.260  54.590  1.00  0.00     0.080 N 
HETATM   25  C1  UNL     1      29.073  -0.817  53.795  1.00  0.00     0.309 C 
HETATM   26  C2  UNL     1      29.030   1.529  54.156  1.00  0.00     0.309 C 
ENDBRANCH  23  24
ENDBRANCH  22  23
ENDBRANCH   1  22
TORSDOF 5
ENDMDL
MODEL 7
REMARK VINA RESULT:      -7.4      3.881      7.563
REMARK  5 active torsions:
REMARK  status: ('A' for Active; 'I' for Inactive)
REMARK    1  A    between atoms: N1_2  and  C3_4 
REMARK    2  A    between atoms: C3_4  and  C4_5 
REMARK    3  A    between atoms: C4_5  and  C5_6 
REMARK    4  A    between atoms: C6_7  and  C7_8 
REMARK    5  A    between atoms: C10_12  and  N2_13 
ROOT
HETATM    1  C5  UNL     1      24.476   4.769  50.173  1.00  0.00    -0.052 A 
HETATM    2  C6  UNL     1      24.214   4.318  51.389  1.00  0.00    -0.046 A 
HETATM    3  C8  UNL     1      24.855   3.206  52.080  1.00  0.00     0.094 A 
HETATM    4  C9  UNL     1      23.927   2.131  52.518  1.00  0.00     0.039 C 
HETATM    5  C10 UNL     1      24.211   0.986  53.143  1.00  0.00     0.128 C 
HETATM    6  N3  UNL     1      25.543   0.575  53.515  1.00  0.00    -0.225 NA
HETATM    7  C16 UNL     1      26.619   0.825  52.806  1.00  0.00     0.235 C 
HETATM    8  N4  UNL     1      26.682   1.541  51.547  1.00  0.00    -0.245 NA
HETATM    9  C17 UNL     1      25.922   2.561  51.242  1.00  0.00     0.048 A 
HETATM   10  C18 UNL     1      26.227   3.043  49.902  1.00  0.00     0.029 A 
HETATM   11  C19 UNL     1      25.534   4.076  49.428  1.00  0.00     0.009 A 
ENDROOT
BRANCH   5  12
HETATM   12  N2  UNL     1      23.059   0.155  53.428  1.00  0.00    -0.337 N 
HETATM   13  C11 UNL     1      21.893   0.459  52.662  1.00  0.00     0.120 A 
HETATM   14  C12 UNL     1      20.799  -0.245  52.881  1.00  0.00     0.087 A 
HETATM   15 CL2  UNL     1      19.381   0.159  51.917  1.00  0.00    -0.080 Cl
HETATM   16  C13 UNL     1      20.726  -1.336  53.879  1.00  0.00     0.137 A 
HETATM   17  F1  UNL     1      19.561  -2.003  54.040  1.00  0.00    -0.205 F 
HETATM   18  C14 UNL     1      21.836  -1.594  54.569  1.00  0.00     0.037 A 
HETATM   19  C15 UNL     1      23.116  -0.887  54.418  1.00  0.00     0.160 A 
ENDBRANCH   5  12
BRANCH   2  20
HETATM   20  C7  UNL     1      23.183   4.900  52.285  1.00  0.00     0.150 C 
HETATM   21 CL1  UNL     1      21.538   4.440  51.710  1.00  0.00    -0.126 Cl
ENDBRANCH   2  20
BRANCH   1  22
HETATM   22  C4  UNL     1      23.903   5.862  49.395  1.00  0.00     0.069 C 
BRANCH  22  23
HETATM   23  C3  UNL     1      23.277   5.384  48.107  1.00  0.00     0.276 C 
BRANCH  23  24
HETATM   24  N1  UNL     1      22.160   4.521  48.293  1.00  0.00     0.080 N 
HETATM   25  C1  UNL     1      20.940   5.263  48.160  1.00  0.00     0.309 C 
HETATM   26  C2  UNL     1      22.145   3.311  47.549  1.00  0.00     0.309 C 
ENDBRANCH  23  24
ENDBRANCH  22  23
ENDBRANCH   1  22
TORSDOF 5
ENDMDL
MODEL 8
REMARK VINA RESULT:      -7.3      4.185      6.841
REMARK  5 active torsions:
REMARK  status: ('A' for Active; 'I' for Inactive)
REMARK    1  A    between atoms: N1_2  and  C3_4 
REMARK    2  A    between atoms: C3_4  and  C4_5 
REMARK    3  A    between atoms: C4_5  and  C5_6 
REMARK    4  A    between atoms: C6_7  and  C7_8 
REMARK    5  A    between atoms: C10_12  and  N2_13 
ROOT
HETATM    1  C5  UNL     1      25.953   1.998  52.035  1.00  0.00    -0.052 A 
HETATM    2  C6  UNL     1      24.769   2.221  52.583  1.00  0.00    -0.046 A 
HETATM    3  C8  UNL     1      23.977   1.299  53.388  1.00  0.00     0.094 A 
HETATM    4  C9  UNL     1      22.616   1.027  52.857  1.00  0.00     0.039 C 
HETATM    5  C10 UNL     1      21.675   0.217  53.347  1.00  0.00     0.128 C 
HETATM    6  N3  UNL     1      21.833  -0.580  54.541  1.00  0.00    -0.225 NA
HETATM    7  C16 UNL     1      22.961  -1.141  54.910  1.00  0.00     0.235 C 
HETATM    8  N4  UNL     1      24.231  -1.077  54.215  1.00  0.00    -0.245 NA
HETATM    9  C17 UNL     1      24.661  -0.027  53.563  1.00  0.00     0.048 A 
HETATM   10  C18 UNL     1      25.965  -0.292  52.970  1.00  0.00     0.029 A 
HETATM   11  C19 UNL     1      26.544   0.673  52.260  1.00  0.00     0.009 A 
ENDROOT
BRANCH   5  12
HETATM   12  N2  UNL     1      20.448   0.185  52.577  1.00  0.00    -0.337 N 
HETATM   13  C11 UNL     1      19.415  -0.634  53.125  1.00  0.00     0.120 A 
HETATM   14  C12 UNL     1      18.274  -0.726  52.467  1.00  0.00     0.087 A 
HETATM   15 CL2  UNL     1      17.024  -1.746  53.172  1.00  0.00    -0.080 Cl
HETATM   16  C13 UNL     1      18.017  -0.017  51.193  1.00  0.00     0.137 A 
HETATM   17  F1  UNL     1      16.819  -0.172  50.585  1.00  0.00    -0.205 F 
HETATM   18  C14 UNL     1      19.003   0.743  50.718  1.00  0.00     0.037 A 
HETATM   19  C15 UNL     1      20.314   0.931  51.355  1.00  0.00     0.160 A 
ENDBRANCH   5  12
BRANCH   2  20
HETATM   20  C7  UNL     1      24.029   3.501  52.464  1.00  0.00     0.150 C 
HETATM   21 CL1  UNL     1      22.976   3.471  51.001  1.00  0.00    -0.126 Cl
ENDBRANCH   2  20
BRANCH   1  22
HETATM   22  C4  UNL     1      26.825   2.841  51.222  1.00  0.00     0.069 C 
BRANCH  22  23
HETATM   23  C3  UNL     1      26.209   3.184  49.887  1.00  0.00     0.276 C 
BRANCH  23  24
HETATM   24  N1  UNL     1      26.350   4.552  49.520  1.00  0.00     0.080 N 
HETATM   25  C1  UNL     1      27.525   4.725  48.717  1.00  0.00     0.309 C 
HETATM   26  C2  UNL     1      25.212   5.195  48.965  1.00  0.00     0.309 C 
ENDBRANCH  23  24
ENDBRANCH  22  23
ENDBRANCH   1  22
TORSDOF 5
ENDMDL
MODEL 9
REMARK VINA RESULT:      -7.3      3.231      7.440
REMARK  5 active torsions:
REMARK  status: ('A' for Active; 'I' for Inactive)
REMARK    1  A    between atoms: N1_2  and  C3_4 
REMARK    2  A    between atoms: C3_4  and  C4_5 
REMARK    3  A    between atoms: C4_5  and  C5_6 
REMARK    4  A    between atoms: C6_7  and  C7_8 
REMARK    5  A    between atoms: C10_12  and  N2_13 
ROOT
HETATM    1  C5  UNL     1      26.266   6.528  49.591  1.00  0.00    -0.052 A 
HETATM    2  C6  UNL     1      26.359   5.219  49.417  1.00  0.00    -0.046 A 
HETATM    3  C8  UNL     1      25.482   4.188  49.957  1.00  0.00     0.094 A 
HETATM    4  C9  UNL     1      26.169   3.163  50.785  1.00  0.00     0.039 C 
HETATM    5  C10 UNL     1      25.641   2.120  51.431  1.00  0.00     0.128 C 
HETATM    6  N3  UNL     1      24.233   1.799  51.436  1.00  0.00    -0.225 NA
HETATM    7  C16 UNL     1      23.271   2.692  51.434  1.00  0.00     0.235 C 
HETATM    8  N4  UNL     1      23.425   4.133  51.427  1.00  0.00    -0.245 NA
HETATM    9  C17 UNL     1      24.376   4.769  50.792  1.00  0.00     0.048 A 
HETATM   10  C18 UNL     1      24.255   6.206  50.994  1.00  0.00     0.029 A 
HETATM   11  C19 UNL     1      25.154   7.003  50.422  1.00  0.00     0.009 A 
ENDROOT
BRANCH   5  12
HETATM   12  N2  UNL     1      26.601   1.310  52.151  1.00  0.00    -0.337 N 
HETATM   13  C11 UNL     1      27.569   2.047  52.899  1.00  0.00     0.120 A 
HETATM   14  C12 UNL     1      28.489   1.374  53.566  1.00  0.00     0.087 A 
HETATM   15 CL2  UNL     1      29.667   2.317  54.475  1.00  0.00    -0.080 Cl
HETATM   16  C13 UNL     1      28.559  -0.104  53.578  1.00  0.00     0.137 A 
HETATM   17  F1  UNL     1      29.538  -0.710  54.288  1.00  0.00    -0.205 F 
HETATM   18  C14 UNL     1      27.634  -0.756  52.875  1.00  0.00     0.037 A 
HETATM   19  C15 UNL     1      26.559  -0.127  52.095  1.00  0.00     0.160 A 
ENDBRANCH   5  12
BRANCH   2  20
HETATM   20  C7  UNL     1      27.414   4.564  48.604  1.00  0.00     0.150 C 
HETATM   21 CL1  UNL     1      28.891   5.597  48.565  1.00  0.00    -0.126 Cl
ENDBRANCH   2  20
BRANCH   1  22
HETATM   22  C4  UNL     1      27.079   7.636  49.101  1.00  0.00     0.069 C 
BRANCH  22  23
HETATM   23  C3  UNL     1      27.174   8.764  50.100  1.00  0.00     0.276 C 
BRANCH  23  24
HETATM   24  N1  UNL     1      27.798   9.937  49.589  1.00  0.00     0.080 N 
HETATM   25  C1  UNL     1      29.197   9.697  49.382  1.00  0.00     0.309 C 
HETATM   26  C2  UNL     1      27.183  10.565  48.473  1.00  0.00     0.309 C 
ENDBRANCH  23  24
ENDBRANCH  22  23
ENDBRANCH   1  22
TORSDOF 5
ENDMDL
