MODEL 1
REMARK VINA RESULT:      -8.2      0.000      0.000
REMARK  5 active torsions:
REMARK  status: ('A' for Active; 'I' for Inactive)
REMARK    1  A    between atoms: C2_2  and  C3_3 
REMARK       I    between atoms: C3_3  and  N1_5 
REMARK    2  A    between atoms: N1_5  and  C4_6 
REMARK    3  A    between atoms: C4_6  and  C5_7 
REMARK    4  A    between atoms: C5_7  and  C6_8 
REMARK    5  A    between atoms: C6_8  and  C7_9 
ROOT
HETATM    1  C7  UNL     1      26.523   1.912  52.964  1.00  0.00     0.124 C 
HETATM    2  N2  UNL     1      25.633   0.908  53.031  1.00  0.00    -0.225 NA
HETATM    3  C8  UNL     1      25.459  -0.309  53.085  1.00  0.00     0.234 C 
HETATM    4  N3  UNL     1      24.093  -0.232  53.110  1.00  0.00    -0.254 NA
HETATM    5  C9  UNL     1      23.031  -0.242  53.657  1.00  0.00     0.120 C 
HETATM    6  C10 UNL     1      21.608  -0.129  53.469  1.00  0.00     0.044 C 
HETATM    7  C11 UNL     1      20.699   0.043  52.446  1.00  0.00     0.142 C 
HETATM    8  O2  UNL     1      21.562   0.116  51.332  1.00  0.00    -0.335 OA
HETATM    9  C12 UNL     1      21.427   0.844  50.190  1.00  0.00     0.139 C 
HETATM   10  C13 UNL     1      22.035   1.859  49.527  1.00  0.00     0.024 C 
HETATM   11  C14 UNL     1      23.262   2.631  49.935  1.00  0.00     0.157 A 
HETATM   12  C15 UNL     1      24.324   3.164  50.475  1.00  0.00     0.074 A 
HETATM   13 CL1  UNL     1      23.340   1.899  51.056  1.00  0.00    -0.154 Cl
HETATM   14  N4  UNL     1      25.105   4.219  49.971  1.00  0.00    -0.400 NA
HETATM   15  C16 UNL     1      26.406   4.018  49.770  1.00  0.00     0.319 C 
HETATM   16  C17 UNL     1      26.496   2.609  50.224  1.00  0.00     0.150 C 
HETATM   17  N5  UNL     1      26.589   2.253  51.568  1.00  0.00    -0.373 N 
HETATM   18  H20 UNL     1      27.639   2.031  51.719  1.00  0.00     0.161 HD
ENDROOT
BRANCH   1  19
HETATM   19  C6  UNL     1      27.268   2.405  53.975  1.00  0.00     0.051 C 
BRANCH  19  20
HETATM   20  C5  UNL     1      28.614   2.587  53.495  1.00  0.00     0.021 C 
BRANCH  20  21
HETATM   21  C4  UNL     1      29.098   1.560  54.102  1.00  0.00     0.091 C 
BRANCH  21  22
HETATM   22  N1  UNL     1      29.887   0.612  53.419  1.00  0.00    -0.337 N 
HETATM   23  C3  UNL     1      29.300  -0.525  54.023  1.00  0.00     0.221 C 
HETATM   24  O1  UNL     1      28.360  -0.545  54.903  1.00  0.00    -0.273 OA
HETATM   25  H6  UNL     1      30.727   0.549  52.747  1.00  0.00     0.168 HD
BRANCH  23  26
HETATM   26  C2  UNL     1      29.840  -1.866  53.597  1.00  0.00     0.098 C 
HETATM   27  C1  UNL     1      28.626  -2.653  53.003  1.00  0.00     0.014 C 
ENDBRANCH  23  26
ENDBRANCH  21  22
ENDBRANCH  20  21
ENDBRANCH  19  20
ENDBRANCH   1  19
TORSDOF 5
ENDMDL
MODEL 2
REMARK VINA RESULT:      -7.8      2.647      5.556
REMARK  5 active torsions:
REMARK  status: ('A' for Active; 'I' for Inactive)
REMARK    1  A    between atoms: C2_2  and  C3_3 
REMARK       I    between atoms: C3_3  and  N1_5 
REMARK    2  A    between atoms: N1_5  and  C4_6 
REMARK    3  A    between atoms: C4_6  and  C5_7 
REMARK    4  A    between atoms: C5_7  and  C6_8 
REMARK    5  A    between atoms: C6_8  and  C7_9 
ROOT
HETATM    1  C7  UNL     1      25.700   2.505  51.850  1.00  0.00     0.124 C 
HETATM    2  N2  UNL     1      24.408   2.764  52.112  1.00  0.00    -0.225 NA
HETATM    3  C8  UNL     1      23.582   3.599  52.480  1.00  0.00     0.234 C 
HETATM    4  N3  UNL     1      22.510   2.751  52.392  1.00  0.00    -0.254 NA
HETATM    5  C9  UNL     1      21.544   2.301  51.854  1.00  0.00     0.120 C 
HETATM    6  C10 UNL     1      20.486   1.330  51.952  1.00  0.00     0.044 C 
HETATM    7  C11 UNL     1      20.030   0.365  52.826  1.00  0.00     0.142 C 
HETATM    8  O2  UNL     1      20.974   0.482  53.868  1.00  0.00    -0.335 OA
HETATM    9  C12 UNL     1      21.476  -0.487  54.681  1.00  0.00     0.139 C 
HETATM   10  C13 UNL     1      22.654  -1.096  54.966  1.00  0.00     0.024 C 
HETATM   11  C14 UNL     1      24.004  -0.842  54.349  1.00  0.00     0.157 A 
HETATM   12  C15 UNL     1      25.063  -0.465  53.687  1.00  0.00     0.074 A 
HETATM   13 CL1  UNL     1      23.457   0.090  53.556  1.00  0.00    -0.154 Cl
HETATM   14  N4  UNL     1      26.375  -0.956  53.813  1.00  0.00    -0.400 NA
HETATM   15  C16 UNL     1      27.356  -0.105  54.107  1.00  0.00     0.319 C 
HETATM   16  C17 UNL     1      26.564   1.148  54.174  1.00  0.00     0.150 C 
HETATM   17  N5  UNL     1      26.196   1.871  53.041  1.00  0.00    -0.373 N 
HETATM   18  H20 UNL     1      26.899   2.696  53.006  1.00  0.00     0.161 HD
ENDROOT
BRANCH   1  19
HETATM   19  C6  UNL     1      26.395   2.868  50.752  1.00  0.00     0.051 C 
BRANCH  19  20
HETATM   20  C5  UNL     1      25.454   3.229  49.723  1.00  0.00     0.021 C 
BRANCH  20  21
HETATM   21  C4  UNL     1      25.905   4.424  49.562  1.00  0.00     0.091 C 
BRANCH  21  22
HETATM   22  N1  UNL     1      27.277   4.663  49.335  1.00  0.00    -0.337 N 
HETATM   23  C3  UNL     1      27.096   5.864  48.612  1.00  0.00     0.221 C 
HETATM   24  O1  UNL     1      25.981   6.441  48.320  1.00  0.00    -0.273 OA
HETATM   25  H6  UNL     1      28.241   4.201  49.471  1.00  0.00     0.168 HD
BRANCH  23  26
HETATM   26  C2  UNL     1      28.346   6.546  48.118  1.00  0.00     0.098 C 
HETATM   27  C1  UNL     1      29.458   5.446  48.094  1.00  0.00     0.014 C 
ENDBRANCH  23  26
ENDBRANCH  21  22
ENDBRANCH  20  21
ENDBRANCH  19  20
ENDBRANCH   1  19
TORSDOF 5
ENDMDL
MODEL 3
REMARK VINA RESULT:      -7.5      2.405      4.602
REMARK  5 active torsions:
REMARK  status: ('A' for Active; 'I' for Inactive)
REMARK    1  A    between atoms: C2_2  and  C3_3 
REMARK       I    between atoms: C3_3  and  N1_5 
REMARK    2  A    between atoms: N1_5  and  C4_6 
REMARK    3  A    between atoms: C4_6  and  C5_7 
REMARK    4  A    between atoms: C5_7  and  C6_8 
REMARK    5  A    between atoms: C6_8  and  C7_9 
ROOT
HETATM    1  C7  UNL     1      23.689   0.639  53.157  1.00  0.00     0.124 C 
HETATM    2  N2  UNL     1      23.834   1.936  52.838  1.00  0.00    -0.225 NA
HETATM    3  C8  UNL     1      24.261   3.037  53.184  1.00  0.00     0.234 C 
HETATM    4  N3  UNL     1      23.841   3.687  52.054  1.00  0.00    -0.254 NA
HETATM    5  C9  UNL     1      24.004   4.168  50.974  1.00  0.00     0.120 C 
HETATM    6  C10 UNL     1      23.365   4.849  49.878  1.00  0.00     0.044 C 
HETATM    7  C11 UNL     1      22.123   5.342  49.535  1.00  0.00     0.142 C 
HETATM    8  O2  UNL     1      21.375   5.000  50.682  1.00  0.00    -0.335 OA
HETATM    9  C12 UNL     1      20.066   4.640  50.775  1.00  0.00     0.139 C 
HETATM   10  C13 UNL     1      19.305   3.574  51.128  1.00  0.00     0.024 C 
HETATM   11  C14 UNL     1      19.765   2.221  51.601  1.00  0.00     0.157 A 
HETATM   12  C15 UNL     1      20.375   1.133  51.985  1.00  0.00     0.074 A 
HETATM   13 CL1  UNL     1      21.039   2.618  51.474  1.00  0.00    -0.154 Cl
HETATM   14  N4  UNL     1      19.793  -0.082  52.388  1.00  0.00    -0.400 NA
HETATM   15  C16 UNL     1      20.083  -0.566  53.594  1.00  0.00     0.319 C 
HETATM   16  C17 UNL     1      21.012   0.496  54.053  1.00  0.00     0.150 C 
HETATM   17  N5  UNL     1      22.355   0.536  53.682  1.00  0.00    -0.373 N 
HETATM   18  H20 UNL     1      22.886   0.147  54.543  1.00  0.00     0.161 HD
ENDROOT
BRANCH   1  19
HETATM   19  C6  UNL     1      24.634  -0.322  53.098  1.00  0.00     0.051 C 
BRANCH  19  20
HETATM   20  C5  UNL     1      24.947  -0.730  54.443  1.00  0.00     0.021 C 
BRANCH  20  21
HETATM   21  C4  UNL     1      26.052  -0.075  54.513  1.00  0.00     0.091 C 
BRANCH  21  22
HETATM   22  N1  UNL     1      27.282  -0.676  54.171  1.00  0.00    -0.337 N 
HETATM   23  C3  UNL     1      28.026   0.526  54.143  1.00  0.00     0.221 C 
HETATM   24  O1  UNL     1      27.596   1.719  54.371  1.00  0.00    -0.273 OA
HETATM   25  H6  UNL     1      27.699  -1.629  53.889  1.00  0.00     0.168 HD
BRANCH  23  26
HETATM   26  C2  UNL     1      29.489   0.402  53.799  1.00  0.00     0.098 C 
HETATM   27  C1  UNL     1      29.748  -1.120  53.551  1.00  0.00     0.014 C 
ENDBRANCH  23  26
ENDBRANCH  21  22
ENDBRANCH  20  21
ENDBRANCH  19  20
ENDBRANCH   1  19
TORSDOF 5
ENDMDL
MODEL 4
REMARK VINA RESULT:      -7.2      2.613      5.969
REMARK  5 active torsions:
REMARK  status: ('A' for Active; 'I' for Inactive)
REMARK    1  A    between atoms: C2_2  and  C3_3 
REMARK       I    between atoms: C3_3  and  N1_5 
REMARK    2  A    between atoms: N1_5  and  C4_6 
REMARK    3  A    between atoms: C4_6  and  C5_7 
REMARK    4  A    between atoms: C5_7  and  C6_8 
REMARK    5  A    between atoms: C6_8  and  C7_9 
ROOT
HETATM    1  C7  UNL     1      24.789   2.504  51.140  1.00  0.00     0.124 C 
HETATM    2  N2  UNL     1      23.527   2.608  51.591  1.00  0.00    -0.225 NA
HETATM    3  C8  UNL     1      22.650   3.354  52.026  1.00  0.00     0.234 C 
HETATM    4  N3  UNL     1      21.718   2.363  52.179  1.00  0.00    -0.254 NA
HETATM    5  C9  UNL     1      20.760   1.735  51.843  1.00  0.00     0.120 C 
HETATM    6  C10 UNL     1      19.887   0.642  52.186  1.00  0.00     0.044 C 
HETATM    7  C11 UNL     1      19.720  -0.286  53.193  1.00  0.00     0.142 C 
HETATM    8  O2  UNL     1      20.783   0.062  54.054  1.00  0.00    -0.335 OA
HETATM    9  C12 UNL     1      21.543  -0.744  54.845  1.00  0.00     0.139 C 
HETATM   10  C13 UNL     1      22.829  -1.156  54.977  1.00  0.00     0.024 C 
HETATM   11  C14 UNL     1      24.015  -0.781  54.129  1.00  0.00     0.157 A 
HETATM   12  C15 UNL     1      24.893  -0.329  53.275  1.00  0.00     0.074 A 
HETATM   13 CL1  UNL     1      23.220  -0.016  53.368  1.00  0.00    -0.154 Cl
HETATM   14  N4  UNL     1      26.268  -0.622  53.220  1.00  0.00    -0.400 NA
HETATM   15  C16 UNL     1      27.142   0.380  53.284  1.00  0.00     0.319 C 
HETATM   16  C17 UNL     1      26.190   1.513  53.386  1.00  0.00     0.150 C 
HETATM   17  N5  UNL     1      25.550   2.064  52.278  1.00  0.00    -0.373 N 
HETATM   18  H20 UNL     1      26.106   2.970  52.066  1.00  0.00     0.161 HD
ENDROOT
BRANCH   1  19
HETATM   19  C6  UNL     1      25.246   2.849  49.918  1.00  0.00     0.051 C 
BRANCH  19  20
HETATM   20  C5  UNL     1      26.320   3.793  50.089  1.00  0.00     0.021 C 
BRANCH  20  21
HETATM   21  C4  UNL     1      25.636   4.820  49.720  1.00  0.00     0.091 C 
BRANCH  21  22
HETATM   22  N1  UNL     1      25.667   6.021  50.458  1.00  0.00    -0.337 N 
HETATM   23  C3  UNL     1      24.321   6.376  50.211  1.00  0.00     0.221 C 
HETATM   24  O1  UNL     1      23.455   5.725  49.515  1.00  0.00    -0.273 OA
HETATM   25  H6  UNL     1      26.353   6.662  50.988  1.00  0.00     0.168 HD
BRANCH  23  26
HETATM   26  C2  UNL     1      23.843   7.668  50.824  1.00  0.00     0.098 C 
HETATM   27  C1  UNL     1      23.719   8.688  49.645  1.00  0.00     0.014 C 
ENDBRANCH  23  26
ENDBRANCH  21  22
ENDBRANCH  20  21
ENDBRANCH  19  20
ENDBRANCH   1  19
TORSDOF 5
ENDMDL
MODEL 5
REMARK VINA RESULT:      -7.2      3.127      5.978
REMARK  5 active torsions:
REMARK  status: ('A' for Active; 'I' for Inactive)
REMARK    1  A    between atoms: C2_2  and  C3_3 
REMARK       I    between atoms: C3_3  and  N1_5 
REMARK    2  A    between atoms: N1_5  and  C4_6 
REMARK    3  A    between atoms: C4_6  and  C5_7 
REMARK    4  A    between atoms: C5_7  and  C6_8 
REMARK    5  A    between atoms: C6_8  and  C7_9 
ROOT
HETATM    1  C7  UNL     1      23.549   4.638  51.443  1.00  0.00     0.124 C 
HETATM    2  N2  UNL     1      24.355   3.566  51.531  1.00  0.00    -0.225 NA
HETATM    3  C8  UNL     1      25.229   2.890  50.989  1.00  0.00     0.234 C 
HETATM    4  N3  UNL     1      25.319   1.978  52.005  1.00  0.00    -0.254 NA
HETATM    5  C9  UNL     1      25.823   1.511  52.982  1.00  0.00     0.120 C 
HETATM    6  C10 UNL     1      25.738   0.464  53.967  1.00  0.00     0.044 C 
HETATM    7  C11 UNL     1      24.953  -0.631  54.263  1.00  0.00     0.142 C 
HETATM    8  O2  UNL     1      24.008  -0.572  53.217  1.00  0.00    -0.335 OA
HETATM    9  C12 UNL     1      22.692  -0.919  53.231  1.00  0.00     0.139 C 
HETATM   10  C13 UNL     1      21.467  -0.352  53.090  1.00  0.00     0.024 C 
HETATM   11  C14 UNL     1      21.137   1.095  52.839  1.00  0.00     0.157 A 
HETATM   12  C15 UNL     1      21.078   2.381  52.625  1.00  0.00     0.074 A 
HETATM   13 CL1  UNL     1      22.445   1.388  52.853  1.00  0.00    -0.154 Cl
HETATM   14  N4  UNL     1      19.928   3.172  52.454  1.00  0.00    -0.400 NA
HETATM   15  C16 UNL     1      19.798   3.887  51.339  1.00  0.00     0.319 C 
HETATM   16  C17 UNL     1      21.072   3.515  50.675  1.00  0.00     0.150 C 
HETATM   17  N5  UNL     1      22.290   4.115  50.988  1.00  0.00    -0.373 N 
HETATM   18  H20 UNL     1      22.455   4.828  50.187  1.00  0.00     0.161 HD
ENDROOT
BRANCH   1  19
HETATM   19  C6  UNL     1      23.892   5.929  51.632  1.00  0.00     0.051 C 
BRANCH  19  20
HETATM   20  C5  UNL     1      23.847   6.599  50.358  1.00  0.00     0.021 C 
BRANCH  20  21
HETATM   21  C4  UNL     1      25.048   7.059  50.422  1.00  0.00     0.091 C 
BRANCH  21  22
HETATM   22  N1  UNL     1      26.161   6.238  50.147  1.00  0.00    -0.337 N 
HETATM   23  C3  UNL     1      26.602   6.966  49.018  1.00  0.00     0.221 C 
HETATM   24  O1  UNL     1      26.064   8.019  48.508  1.00  0.00    -0.273 OA
HETATM   25  H6  UNL     1      26.622   5.317  50.467  1.00  0.00     0.168 HD
BRANCH  23  26
HETATM   26  C2  UNL     1      27.837   6.449  48.326  1.00  0.00     0.098 C 
HETATM   27  C1  UNL     1      27.852   4.903  48.564  1.00  0.00     0.014 C 
ENDBRANCH  23  26
ENDBRANCH  21  22
ENDBRANCH  20  21
ENDBRANCH  19  20
ENDBRANCH   1  19
TORSDOF 5
ENDMDL
MODEL 6
REMARK VINA RESULT:      -6.9      3.334      6.110
REMARK  5 active torsions:
REMARK  status: ('A' for Active; 'I' for Inactive)
REMARK    1  A    between atoms: C2_2  and  C3_3 
REMARK       I    between atoms: C3_3  and  N1_5 
REMARK    2  A    between atoms: N1_5  and  C4_6 
REMARK    3  A    between atoms: C4_6  and  C5_7 
REMARK    4  A    between atoms: C5_7  and  C6_8 
REMARK    5  A    between atoms: C6_8  and  C7_9 
ROOT
HETATM    1  C7  UNL     1      24.879   4.673  50.349  1.00  0.00     0.124 C 
HETATM    2  N2  UNL     1      25.703   3.661  50.669  1.00  0.00    -0.225 NA
HETATM    3  C8  UNL     1      26.554   2.864  50.273  1.00  0.00     0.234 C 
HETATM    4  N3  UNL     1      26.715   2.251  51.486  1.00  0.00    -0.254 NA
HETATM    5  C9  UNL     1      27.280   2.057  52.520  1.00  0.00     0.120 C 
HETATM    6  C10 UNL     1      27.265   1.307  53.749  1.00  0.00     0.044 C 
HETATM    7  C11 UNL     1      26.513   0.329  54.368  1.00  0.00     0.142 C 
HETATM    8  O2  UNL     1      25.509   0.113  53.400  1.00  0.00    -0.335 OA
HETATM    9  C12 UNL     1      24.201  -0.216  53.581  1.00  0.00     0.139 C 
HETATM   10  C13 UNL     1      22.962   0.296  53.369  1.00  0.00     0.024 C 
HETATM   11  C14 UNL     1      22.599   1.626  52.766  1.00  0.00     0.157 A 
HETATM   12  C15 UNL     1      22.511   2.811  52.225  1.00  0.00     0.074 A 
HETATM   13 CL1  UNL     1      23.901   1.911  52.626  1.00  0.00    -0.154 Cl
HETATM   14  N4  UNL     1      21.342   3.531  51.920  1.00  0.00    -0.400 NA
HETATM   15  C16 UNL     1      21.139   3.928  50.665  1.00  0.00     0.319 C 
HETATM   16  C17 UNL     1      22.378   3.392  50.049  1.00  0.00     0.150 C 
HETATM   17  N5  UNL     1      23.603   4.051  50.122  1.00  0.00    -0.373 N 
HETATM   18  H20 UNL     1      23.713   4.528  49.154  1.00  0.00     0.161 HD
ENDROOT
BRANCH   1  19
HETATM   19  C6  UNL     1      25.215   5.968  50.172  1.00  0.00     0.051 C 
BRANCH  19  20
HETATM   20  C5  UNL     1      25.553   6.160  48.786  1.00  0.00     0.021 C 
BRANCH  20  21
HETATM   21  C4  UNL     1      26.697   6.704  49.015  1.00  0.00     0.091 C 
BRANCH  21  22
HETATM   22  N1  UNL     1      27.897   5.986  48.834  1.00  0.00    -0.337 N 
HETATM   23  C3  UNL     1      28.513   6.943  47.995  1.00  0.00     0.221 C 
HETATM   24  O1  UNL     1      28.021   8.066  47.597  1.00  0.00    -0.273 OA
HETATM   25  H6  UNL     1      28.344   5.031  49.058  1.00  0.00     0.168 HD
BRANCH  23  26
HETATM   26  C2  UNL     1      29.898   6.612  47.501  1.00  0.00     0.098 C 
HETATM   27  C1  UNL     1      30.693   6.105  48.749  1.00  0.00     0.014 C 
ENDBRANCH  23  26
ENDBRANCH  21  22
ENDBRANCH  20  21
ENDBRANCH  19  20
ENDBRANCH   1  19
TORSDOF 5
ENDMDL
MODEL 7
REMARK VINA RESULT:      -6.8      3.002      5.820
REMARK  5 active torsions:
REMARK  status: ('A' for Active; 'I' for Inactive)
REMARK    1  A    between atoms: C2_2  and  C3_3 
REMARK       I    between atoms: C3_3  and  N1_5 
REMARK    2  A    between atoms: N1_5  and  C4_6 
REMARK    3  A    between atoms: C4_6  and  C5_7 
REMARK    4  A    between atoms: C5_7  and  C6_8 
REMARK    5  A    between atoms: C6_8  and  C7_9 
ROOT
HETATM    1  C7  UNL     1      25.133   2.439  51.083  1.00  0.00     0.124 C 
HETATM    2  N2  UNL     1      25.643   1.426  51.804  1.00  0.00    -0.225 NA
HETATM    3  C8  UNL     1      26.364   0.428  51.806  1.00  0.00     0.234 C 
HETATM    4  N3  UNL     1      26.154   0.135  53.127  1.00  0.00    -0.254 NA
HETATM    5  C9  UNL     1      26.455   0.129  54.282  1.00  0.00     0.120 C 
HETATM    6  C10 UNL     1      26.044  -0.263  55.605  1.00  0.00     0.044 C 
HETATM    7  C11 UNL     1      24.996  -0.910  56.226  1.00  0.00     0.142 C 
HETATM    8  O2  UNL     1      24.174  -1.207  55.118  1.00  0.00    -0.335 OA
HETATM    9  C12 UNL     1      22.816  -1.263  55.050  1.00  0.00     0.139 C 
HETATM   10  C13 UNL     1      21.780  -0.632  54.442  1.00  0.00     0.024 C 
HETATM   11  C14 UNL     1      21.832   0.536  53.493  1.00  0.00     0.157 A 
HETATM   12  C15 UNL     1      22.106   1.537  52.702  1.00  0.00     0.074 A 
HETATM   13 CL1  UNL     1      23.167   0.561  53.609  1.00  0.00    -0.154 Cl
HETATM   14  N4  UNL     1      21.199   2.331  51.977  1.00  0.00    -0.400 NA
HETATM   15  C16 UNL     1      21.330   2.414  50.654  1.00  0.00     0.319 C 
HETATM   16  C17 UNL     1      22.520   1.544  50.484  1.00  0.00     0.150 C 
HETATM   17  N5  UNL     1      23.821   1.993  50.700  1.00  0.00    -0.373 N 
HETATM   18  H20 UNL     1      24.213   2.177  49.706  1.00  0.00     0.161 HD
ENDROOT
BRANCH   1  19
HETATM   19  C6  UNL     1      25.766   3.571  50.712  1.00  0.00     0.051 C 
BRANCH  19  20
HETATM   20  C5  UNL     1      26.556   3.284  49.543  1.00  0.00     0.021 C 
BRANCH  20  21
HETATM   21  C4  UNL     1      26.625   4.505  49.142  1.00  0.00     0.091 C 
BRANCH  21  22
HETATM   22  N1  UNL     1      27.834   5.051  48.664  1.00  0.00    -0.337 N 
HETATM   23  C3  UNL     1      27.409   6.398  48.700  1.00  0.00     0.221 C 
HETATM   24  O1  UNL     1      26.259   6.846  49.067  1.00  0.00    -0.273 OA
HETATM   25  H6  UNL     1      28.791   4.749  48.267  1.00  0.00     0.168 HD
BRANCH  23  26
HETATM   26  C2  UNL     1      28.411   7.431  48.250  1.00  0.00     0.098 C 
HETATM   27  C1  UNL     1      27.912   7.941  46.858  1.00  0.00     0.014 C 
ENDBRANCH  23  26
ENDBRANCH  21  22
ENDBRANCH  20  21
ENDBRANCH  19  20
ENDBRANCH   1  19
TORSDOF 5
ENDMDL
MODEL 8
REMARK VINA RESULT:      -6.8      2.715      6.824
REMARK  5 active torsions:
REMARK  status: ('A' for Active; 'I' for Inactive)
REMARK    1  A    between atoms: C2_2  and  C3_3 
REMARK       I    between atoms: C3_3  and  N1_5 
REMARK    2  A    between atoms: N1_5  and  C4_6 
REMARK    3  A    between atoms: C4_6  and  C5_7 
REMARK    4  A    between atoms: C5_7  and  C6_8 
REMARK    5  A    between atoms: C6_8  and  C7_9 
ROOT
HETATM    1  C7  UNL     1      23.090   3.506  49.398  1.00  0.00     0.124 C 
HETATM    2  N2  UNL     1      22.800   2.951  50.587  1.00  0.00    -0.225 NA
HETATM    3  C8  UNL     1      22.120   3.013  51.611  1.00  0.00     0.234 C 
HETATM    4  N3  UNL     1      22.673   1.901  52.187  1.00  0.00    -0.254 NA
HETATM    5  C9  UNL     1      22.685   0.745  52.485  1.00  0.00     0.120 C 
HETATM    6  C10 UNL     1      23.433  -0.296  53.141  1.00  0.00     0.044 C 
HETATM    7  C11 UNL     1      24.617  -0.455  53.833  1.00  0.00     0.142 C 
HETATM    8  O2  UNL     1      25.124   0.861  53.799  1.00  0.00    -0.335 OA
HETATM    9  C12 UNL     1      26.417   1.279  53.731  1.00  0.00     0.139 C 
HETATM   10  C13 UNL     1      27.249   1.953  52.897  1.00  0.00     0.024 C 
HETATM   11  C14 UNL     1      26.933   2.542  51.548  1.00  0.00     0.157 A 
HETATM   12  C15 UNL     1      26.448   2.970  50.415  1.00  0.00     0.074 A 
HETATM   13 CL1  UNL     1      25.675   2.093  51.655  1.00  0.00    -0.154 Cl
HETATM   14  N4  UNL     1      27.121   3.682  49.406  1.00  0.00    -0.400 NA
HETATM   15  C16 UNL     1      26.647   4.867  49.028  1.00  0.00     0.319 C 
HETATM   16  C17 UNL     1      25.467   4.941  49.924  1.00  0.00     0.150 C 
HETATM   17  N5  UNL     1      24.262   4.303  49.640  1.00  0.00    -0.373 N 
HETATM   18  H20 UNL     1      23.620   5.090  49.260  1.00  0.00     0.161 HD
ENDROOT
BRANCH   1  19
HETATM   19  C6  UNL     1      22.366   3.417  48.263  1.00  0.00     0.051 C 
BRANCH  19  20
HETATM   20  C5  UNL     1      22.101   2.025  48.006  1.00  0.00     0.021 C 
BRANCH  20  21
HETATM   21  C4  UNL     1      20.826   2.114  48.163  1.00  0.00     0.091 C 
BRANCH  21  22
HETATM   22  N1  UNL     1      20.152   1.333  49.124  1.00  0.00    -0.337 N 
HETATM   23  C3  UNL     1      19.095   2.248  49.336  1.00  0.00     0.221 C 
HETATM   24  O1  UNL     1      18.926   3.393  48.772  1.00  0.00    -0.273 OA
HETATM   25  H6  UNL     1      20.265   0.426  49.695  1.00  0.00     0.168 HD
BRANCH  23  26
HETATM   26  C2  UNL     1      18.049   1.843  50.344  1.00  0.00     0.098 C 
HETATM   27  C1  UNL     1      18.022   0.279  50.335  1.00  0.00     0.014 C 
ENDBRANCH  23  26
ENDBRANCH  21  22
ENDBRANCH  20  21
ENDBRANCH  19  20
ENDBRANCH   1  19
TORSDOF 5
ENDMDL
MODEL 9
REMARK VINA RESULT:      -6.7      7.556      9.982
REMARK  5 active torsions:
REMARK  status: ('A' for Active; 'I' for Inactive)
REMARK    1  A    between atoms: C2_2  and  C3_3 
REMARK       I    between atoms: C3_3  and  N1_5 
REMARK    2  A    between atoms: N1_5  and  C4_6 
REMARK    3  A    between atoms: C4_6  and  C5_7 
REMARK    4  A    between atoms: C5_7  and  C6_8 
REMARK    5  A    between atoms: C6_8  and  C7_9 
ROOT
HETATM    1  C7  UNL     1      32.014   8.543  48.189  1.00  0.00     0.124 C 
HETATM    2  N2  UNL     1      30.844   9.062  48.598  1.00  0.00    -0.225 NA
HETATM    3  C8  UNL     1      30.267   9.773  49.420  1.00  0.00     0.234 C 
HETATM    4  N3  UNL     1      29.022   9.591  48.880  1.00  0.00    -0.254 NA
HETATM    5  C9  UNL     1      28.087   9.918  48.215  1.00  0.00     0.120 C 
HETATM    6  C10 UNL     1      26.779   9.534  47.749  1.00  0.00     0.044 C 
HETATM    7  C11 UNL     1      25.883   8.495  47.890  1.00  0.00     0.142 C 
HETATM    8  O2  UNL     1      26.595   7.646  48.763  1.00  0.00    -0.335 OA
HETATM    9  C12 UNL     1      26.600   6.286  48.820  1.00  0.00     0.139 C 
HETATM   10  C13 UNL     1      27.448   5.242  48.644  1.00  0.00     0.024 C 
HETATM   11  C14 UNL     1      28.902   5.283  48.254  1.00  0.00     0.157 A 
HETATM   12  C15 UNL     1      30.133   5.546  47.912  1.00  0.00     0.074 A 
HETATM   13 CL1  UNL     1      28.840   6.620  48.193  1.00  0.00    -0.154 Cl
HETATM   14  N4  UNL     1      31.174   4.630  47.675  1.00  0.00    -0.400 NA
HETATM   15  C16 UNL     1      32.295   4.731  48.385  1.00  0.00     0.319 C 
HETATM   16  C17 UNL     1      31.940   5.910  49.213  1.00  0.00     0.150 C 
HETATM   17  N5  UNL     1      32.045   7.219  48.749  1.00  0.00    -0.373 N 
HETATM   18  H20 UNL     1      32.964   7.591  49.189  1.00  0.00     0.161 HD
ENDROOT
BRANCH   1  19
HETATM   19  C6  UNL     1      32.986   9.177  47.501  1.00  0.00     0.051 C 
BRANCH  19  20
HETATM   20  C5  UNL     1      34.154   8.335  47.492  1.00  0.00     0.021 C 
BRANCH  20  21
HETATM   21  C4  UNL     1      33.942   7.848  46.319  1.00  0.00     0.091 C 
BRANCH  21  22
HETATM   22  N1  UNL     1      34.412   6.567  45.963  1.00  0.00    -0.337 N 
HETATM   23  C3  UNL     1      33.275   6.202  45.206  1.00  0.00     0.221 C 
HETATM   24  O1  UNL     1      32.217   6.906  44.994  1.00  0.00    -0.273 OA
HETATM   25  H6  UNL     1      35.226   5.889  46.160  1.00  0.00     0.168 HD
BRANCH  23  26
HETATM   26  C2  UNL     1      33.296   4.831  44.581  1.00  0.00     0.098 C 
HETATM   27  C1  UNL     1      34.743   4.278  44.798  1.00  0.00     0.014 C 
ENDBRANCH  23  26
ENDBRANCH  21  22
ENDBRANCH  20  21
ENDBRANCH  19  20
ENDBRANCH   1  19
TORSDOF 5
ENDMDL
