MODEL 1
REMARK VINA RESULT:      -8.7      0.000      0.000
REMARK  3 active torsions:
REMARK  status: ('A' for Active; 'I' for Inactive)
REMARK    1  A    between atoms: C1_2  and  C2_3 
REMARK       I    between atoms: C1_2  and  N1_7 
REMARK    2  A    between atoms: C2_3  and  C3_4 
REMARK    3  A    between atoms: N1_7  and  C5_8 
ROOT
HETATM    1  C5  UNL     1      26.260   1.558  52.604  1.00  0.00     0.005 C 
HETATM    2  C6  UNL     1      25.748   2.501  51.755  1.00  0.00     0.067 C 
HETATM    3  C7  UNL     1      26.330   3.406  50.696  1.00  0.00    -0.018 C 
HETATM    4  C8  UNL     1      25.505   4.272  50.052  1.00  0.00    -0.001 C 
HETATM    5  C9  UNL     1      24.144   4.806  49.904  1.00  0.00     0.298 C 
HETATM    6  N2  UNL     1      23.497   4.477  48.623  1.00  0.00     0.101 N 
HETATM    7  C10 UNL     1      23.184   3.059  48.722  1.00  0.00     0.301 C 
HETATM    8  C11 UNL     1      22.309   2.932  49.989  1.00  0.00     0.049 C 
HETATM    9  C12 UNL     1      22.011   1.644  49.910  1.00  0.00     0.083 C 
HETATM   10  N3  UNL     1      21.596   0.908  48.716  1.00  0.00    -0.250 NA
HETATM   11  P1  UNL     1      21.728   2.455  47.628  1.00  0.00     0.101 P 
HETATM   12  C13 UNL     1      22.241   1.117  51.250  1.00  0.00     0.088 A 
HETATM   13  C14 UNL     1      21.184   0.622  51.962  1.00  0.00     0.053 A 
HETATM   14  C15 UNL     1      21.625   0.210  53.230  1.00  0.00     0.121 A 
HETATM   15  N4  UNL     1      22.906   0.311  53.622  1.00  0.00    -0.245 NA
HETATM   16  C16 UNL     1      23.887   0.810  52.856  1.00  0.00     0.131 A 
HETATM   17  N5  UNL     1      23.561   1.234  51.625  1.00  0.00    -0.231 NA
HETATM   18  C17 UNL     1      25.269   0.806  53.345  1.00  0.00     0.133 C 
HETATM   19  H11 UNL     1      24.205   4.614  47.887  1.00  0.00     0.317 HD
ENDROOT
BRANCH   1  20
HETATM   20  N1  UNL     1      27.552   0.928  52.971  1.00  0.00    -0.333 N 
HETATM   21  C1  UNL     1      28.687   1.408  53.669  1.00  0.00     0.225 C 
HETATM   22  O1  UNL     1      28.750   2.573  54.123  1.00  0.00    -0.273 OA
HETATM   23  H5  UNL     1      27.417  -0.041  52.547  1.00  0.00     0.168 HD
BRANCH  21  24
HETATM   24  C2  UNL     1      29.700   0.303  53.736  1.00  0.00     0.132 C 
BRANCH  24  25
HETATM   25  C3  UNL     1      28.955  -0.936  53.398  1.00  0.00     0.012 C 
HETATM   26  C4  UNL     1      29.147  -2.233  53.136  1.00  0.00     0.184 C 
HETATM   27  F1  UNL     1      28.285  -3.236  52.838  1.00  0.00    -0.220 F 
ENDBRANCH  24  25
ENDBRANCH  21  24
ENDBRANCH   1  20
TORSDOF 3
ENDMDL
MODEL 2
REMARK VINA RESULT:      -8.2      2.370      4.427
REMARK  3 active torsions:
REMARK  status: ('A' for Active; 'I' for Inactive)
REMARK    1  A    between atoms: C1_2  and  C2_3 
REMARK       I    between atoms: C1_2  and  N1_7 
REMARK    2  A    between atoms: C2_3  and  C3_4 
REMARK    3  A    between atoms: N1_7  and  C5_8 
ROOT
HETATM    1  C5  UNL     1      25.388   1.843  51.778  1.00  0.00     0.005 C 
HETATM    2  C6  UNL     1      24.170   2.324  51.382  1.00  0.00     0.067 C 
HETATM    3  C7  UNL     1      22.761   2.222  51.918  1.00  0.00    -0.018 C 
HETATM    4  C8  UNL     1      21.755   2.816  51.227  1.00  0.00    -0.001 C 
HETATM    5  C9  UNL     1      21.357   3.597  50.047  1.00  0.00     0.298 C 
HETATM    6  N2  UNL     1      20.888   4.960  50.349  1.00  0.00     0.101 N 
HETATM    7  C10 UNL     1      22.091   5.689  50.720  1.00  0.00     0.301 C 
HETATM    8  C11 UNL     1      23.038   5.539  49.508  1.00  0.00     0.049 C 
HETATM    9  C12 UNL     1      24.029   6.317  49.918  1.00  0.00     0.083 C 
HETATM   10  N3  UNL     1      23.914   7.637  50.536  1.00  0.00    -0.250 NA
HETATM   11  P1  UNL     1      22.020   7.590  50.457  1.00  0.00     0.101 P 
HETATM   12  C13 UNL     1      25.243   5.547  49.672  1.00  0.00     0.088 A 
HETATM   13  C14 UNL     1      26.156   6.014  48.767  1.00  0.00     0.053 A 
HETATM   14  C15 UNL     1      27.218   5.102  48.660  1.00  0.00     0.121 A 
HETATM   15  N4  UNL     1      27.271   3.962  49.369  1.00  0.00    -0.245 NA
HETATM   16  C16 UNL     1      26.329   3.578  50.242  1.00  0.00     0.131 A 
HETATM   17  N5  UNL     1      25.270   4.386  50.411  1.00  0.00    -0.231 NA
HETATM   18  C17 UNL     1      26.515   2.353  51.026  1.00  0.00     0.133 C 
HETATM   19  H11 UNL     1      20.272   4.887  51.171  1.00  0.00     0.317 HD
ENDROOT
BRANCH   1  20
HETATM   20  N1  UNL     1      26.001   1.012  52.843  1.00  0.00    -0.333 N 
HETATM   21  C1  UNL     1      26.824   1.330  53.951  1.00  0.00     0.225 C 
HETATM   22  O1  UNL     1      27.181   2.502  54.204  1.00  0.00    -0.273 OA
HETATM   23  H5  UNL     1      25.657   0.046  52.551  1.00  0.00     0.168 HD
BRANCH  21  24
HETATM   24  C2  UNL     1      27.137   0.058  54.684  1.00  0.00     0.132 C 
BRANCH  24  25
HETATM   25  C3  UNL     1      28.599  -0.142  54.520  1.00  0.00     0.012 C 
HETATM   26  C4  UNL     1      29.485  -0.864  53.826  1.00  0.00     0.184 C 
HETATM   27  F1  UNL     1      30.840  -0.890  53.832  1.00  0.00    -0.220 F 
ENDBRANCH  24  25
ENDBRANCH  21  24
ENDBRANCH   1  20
TORSDOF 3
ENDMDL
MODEL 3
REMARK VINA RESULT:      -8.1      2.409      2.862
REMARK  3 active torsions:
REMARK  status: ('A' for Active; 'I' for Inactive)
REMARK    1  A    between atoms: C1_2  and  C2_3 
REMARK       I    between atoms: C1_2  and  N1_7 
REMARK    2  A    between atoms: C2_3  and  C3_4 
REMARK    3  A    between atoms: N1_7  and  C5_8 
ROOT
HETATM    1  C5  UNL     1      24.391   0.561  53.450  1.00  0.00     0.005 C 
HETATM    2  C6  UNL     1      23.778   1.716  53.050  1.00  0.00     0.067 C 
HETATM    3  C7  UNL     1      24.242   2.987  52.379  1.00  0.00    -0.018 C 
HETATM    4  C8  UNL     1      23.337   3.975  52.156  1.00  0.00    -0.001 C 
HETATM    5  C9  UNL     1      21.948   4.436  52.296  1.00  0.00     0.298 C 
HETATM    6  N2  UNL     1      21.220   4.567  51.023  1.00  0.00     0.101 N 
HETATM    7  C10 UNL     1      20.972   3.198  50.598  1.00  0.00     0.301 C 
HETATM    8  C11 UNL     1      20.201   2.550  51.770  1.00  0.00     0.049 C 
HETATM    9  C12 UNL     1      19.949   1.368  51.228  1.00  0.00     0.083 C 
HETATM   10  N3  UNL     1      19.475   1.106  49.870  1.00  0.00    -0.250 NA
HETATM   11  P1  UNL     1      19.462   2.952  49.439  1.00  0.00     0.101 P 
HETATM   12  C13 UNL     1      20.302   0.395  52.256  1.00  0.00     0.088 A 
HETATM   13  C14 UNL     1      19.322  -0.398  52.786  1.00  0.00     0.053 A 
HETATM   14  C15 UNL     1      19.874  -1.224  53.778  1.00  0.00     0.121 A 
HETATM   15  N4  UNL     1      21.176  -1.193  54.108  1.00  0.00    -0.245 NA
HETATM   16  C16 UNL     1      22.075  -0.381  53.533  1.00  0.00     0.131 A 
HETATM   17  N5  UNL     1      21.640   0.450  52.573  1.00  0.00    -0.231 NA
HETATM   18  C17 UNL     1      23.490  -0.477  53.908  1.00  0.00     0.133 C 
HETATM   19  H11 UNL     1      21.864   5.015  50.356  1.00  0.00     0.317 HD
ENDROOT
BRANCH   1  20
HETATM   20  N1  UNL     1      25.731  -0.076  53.481  1.00  0.00    -0.333 N 
HETATM   21  C1  UNL     1      26.795  -0.113  52.547  1.00  0.00     0.225 C 
HETATM   22  O1  UNL     1      26.730   0.462  51.437  1.00  0.00    -0.273 OA
HETATM   23  H5  UNL     1      25.698  -0.540  54.440  1.00  0.00     0.168 HD
BRANCH  21  24
HETATM   24  C2  UNL     1      27.912  -0.920  53.139  1.00  0.00     0.132 C 
BRANCH  24  25
HETATM   25  C3  UNL     1      28.704   0.038  53.951  1.00  0.00     0.012 C 
HETATM   26  C4  UNL     1      29.032   1.332  54.017  1.00  0.00     0.184 C 
HETATM   27  F1  UNL     1      29.806   2.029  54.884  1.00  0.00    -0.220 F 
ENDBRANCH  24  25
ENDBRANCH  21  24
ENDBRANCH   1  20
TORSDOF 3
ENDMDL
MODEL 4
REMARK VINA RESULT:      -7.7      3.700      6.207
REMARK  3 active torsions:
REMARK  status: ('A' for Active; 'I' for Inactive)
REMARK    1  A    between atoms: C1_2  and  C2_3 
REMARK       I    between atoms: C1_2  and  N1_7 
REMARK    2  A    between atoms: C2_3  and  C3_4 
REMARK    3  A    between atoms: N1_7  and  C5_8 
ROOT
HETATM    1  C5  UNL     1      25.173   3.359  50.575  1.00  0.00     0.005 C 
HETATM    2  C6  UNL     1      25.630   2.270  51.266  1.00  0.00     0.067 C 
HETATM    3  C7  UNL     1      26.803   2.009  52.181  1.00  0.00    -0.018 C 
HETATM    4  C8  UNL     1      26.975   0.758  52.680  1.00  0.00    -0.001 C 
HETATM    5  C9  UNL     1      26.492  -0.630  52.736  1.00  0.00     0.298 C 
HETATM    6  N2  UNL     1      25.961  -1.037  54.047  1.00  0.00     0.101 N 
HETATM    7  C10 UNL     1      24.690  -0.340  54.162  1.00  0.00     0.301 C 
HETATM    8  C11 UNL     1      23.879  -0.782  52.922  1.00  0.00     0.049 C 
HETATM    9  C12 UNL     1      22.733  -0.178  53.194  1.00  0.00     0.083 C 
HETATM   10  N3  UNL     1      22.043  -0.136  54.483  1.00  0.00    -0.250 NA
HETATM   11  P1  UNL     1      23.400  -1.158  55.325  1.00  0.00     0.101 P 
HETATM   12  C13 UNL     1      22.346   0.479  51.951  1.00  0.00     0.088 A 
HETATM   13  C14 UNL     1      21.203   0.081  51.315  1.00  0.00     0.053 A 
HETATM   14  C15 UNL     1      21.048   0.814  50.128  1.00  0.00     0.121 A 
HETATM   15  N4  UNL     1      21.924   1.753  49.733  1.00  0.00    -0.245 NA
HETATM   16  C16 UNL     1      23.025   2.086  50.422  1.00  0.00     0.131 A 
HETATM   17  N5  UNL     1      23.261   1.436  51.572  1.00  0.00    -0.231 NA
HETATM   18  C17 UNL     1      23.879   3.180  49.948  1.00  0.00     0.133 C 
HETATM   19  H11 UNL     1      26.611  -0.671  54.758  1.00  0.00     0.317 HD
ENDROOT
BRANCH   1  20
HETATM   20  N1  UNL     1      25.514   4.779  50.316  1.00  0.00    -0.333 N 
HETATM   21  C1  UNL     1      26.419   5.398  49.419  1.00  0.00     0.225 C 
HETATM   22  O1  UNL     1      27.133   4.740  48.629  1.00  0.00    -0.273 OA
HETATM   23  H5  UNL     1      24.877   5.259  51.023  1.00  0.00     0.168 HD
BRANCH  21  24
HETATM   24  C2  UNL     1      26.329   6.883  49.611  1.00  0.00     0.132 C 
BRANCH  24  25
HETATM   25  C3  UNL     1      24.943   7.138  50.078  1.00  0.00     0.012 C 
HETATM   26  C4  UNL     1      24.137   8.131  50.469  1.00  0.00     0.184 C 
HETATM   27  F1  UNL     1      22.843   8.143  50.873  1.00  0.00    -0.220 F 
ENDBRANCH  24  25
ENDBRANCH  21  24
ENDBRANCH   1  20
TORSDOF 3
ENDMDL
MODEL 5
REMARK VINA RESULT:      -7.7      4.055      6.740
REMARK  3 active torsions:
REMARK  status: ('A' for Active; 'I' for Inactive)
REMARK    1  A    between atoms: C1_2  and  C2_3 
REMARK       I    between atoms: C1_2  and  N1_7 
REMARK    2  A    between atoms: C2_3  and  C3_4 
REMARK    3  A    between atoms: N1_7  and  C5_8 
ROOT
HETATM    1  C5  UNL     1      20.797   0.074  51.863  1.00  0.00     0.005 C 
HETATM    2  C6  UNL     1      21.122   0.696  50.689  1.00  0.00     0.067 C 
HETATM    3  C7  UNL     1      20.337   1.210  49.506  1.00  0.00    -0.018 C 
HETATM    4  C8  UNL     1      21.012   1.760  48.463  1.00  0.00    -0.001 C 
HETATM    5  C9  UNL     1      22.314   2.115  47.882  1.00  0.00     0.298 C 
HETATM    6  N2  UNL     1      22.556   3.563  47.773  1.00  0.00     0.101 N 
HETATM    7  C10 UNL     1      22.781   4.002  49.141  1.00  0.00     0.301 C 
HETATM    8  C11 UNL     1      23.961   3.142  49.647  1.00  0.00     0.049 C 
HETATM    9  C12 UNL     1      24.132   3.699  50.837  1.00  0.00     0.083 C 
HETATM   10  N3  UNL     1      24.147   5.128  51.146  1.00  0.00    -0.250 NA
HETATM   11  P1  UNL     1      23.832   5.598  49.336  1.00  0.00     0.101 P 
HETATM   12  C13 UNL     1      24.244   2.582  51.767  1.00  0.00     0.088 A 
HETATM   13  C14 UNL     1      25.418   2.391  52.441  1.00  0.00     0.053 A 
HETATM   14  C15 UNL     1      25.316   1.244  53.244  1.00  0.00     0.121 A 
HETATM   15  N4  UNL     1      24.204   0.492  53.300  1.00  0.00    -0.245 NA
HETATM   16  C16 UNL     1      23.088   0.753  52.604  1.00  0.00     0.131 A 
HETATM   17  N5  UNL     1      23.091   1.830  51.803  1.00  0.00    -0.231 NA
HETATM   18  C17 UNL     1      21.898  -0.083  52.791  1.00  0.00     0.133 C 
HETATM   19  H11 UNL     1      21.685   3.986  47.423  1.00  0.00     0.317 HD
ENDROOT
BRANCH   1  20
HETATM   20  N1  UNL     1      19.616  -0.431  52.604  1.00  0.00    -0.333 N 
HETATM   21  C1  UNL     1      18.265  -0.633  52.229  1.00  0.00     0.225 C 
HETATM   22  O1  UNL     1      17.846  -0.380  51.077  1.00  0.00    -0.273 OA
HETATM   23  H5  UNL     1      20.054  -0.612  53.559  1.00  0.00     0.168 HD
BRANCH  21  24
HETATM   24  C2  UNL     1      17.522  -1.172  53.416  1.00  0.00     0.132 C 
BRANCH  24  25
HETATM   25  C3  UNL     1      17.684  -2.646  53.348  1.00  0.00     0.012 C 
HETATM   26  C4  UNL     1      17.018  -3.783  53.570  1.00  0.00     0.184 C 
HETATM   27  F1  UNL     1      17.372  -5.085  53.436  1.00  0.00    -0.220 F 
ENDBRANCH  24  25
ENDBRANCH  21  24
ENDBRANCH   1  20
TORSDOF 3
ENDMDL
MODEL 6
REMARK VINA RESULT:      -7.6      2.826      4.889
REMARK  3 active torsions:
REMARK  status: ('A' for Active; 'I' for Inactive)
REMARK    1  A    between atoms: C1_2  and  C2_3 
REMARK       I    between atoms: C1_2  and  N1_7 
REMARK    2  A    between atoms: C2_3  and  C3_4 
REMARK    3  A    between atoms: N1_7  and  C5_8 
ROOT
HETATM    1  C5  UNL     1      25.250   1.937  51.341  1.00  0.00     0.005 C 
HETATM    2  C6  UNL     1      24.106   2.507  50.854  1.00  0.00     0.067 C 
HETATM    3  C7  UNL     1      22.648   2.465  51.246  1.00  0.00    -0.018 C 
HETATM    4  C8  UNL     1      21.750   3.148  50.490  1.00  0.00    -0.001 C 
HETATM    5  C9  UNL     1      21.515   4.002  49.317  1.00  0.00     0.298 C 
HETATM    6  N2  UNL     1      21.094   5.376  49.639  1.00  0.00     0.101 N 
HETATM    7  C10 UNL     1      22.292   6.015  50.160  1.00  0.00     0.301 C 
HETATM    8  C11 UNL     1      23.345   5.862  49.039  1.00  0.00     0.049 C 
HETATM    9  C12 UNL     1      24.331   6.561  49.581  1.00  0.00     0.083 C 
HETATM   10  N3  UNL     1      24.229   7.857  50.249  1.00  0.00    -0.250 NA
HETATM   11  P1  UNL     1      22.352   7.926  49.986  1.00  0.00     0.101 P 
HETATM   12  C13 UNL     1      25.520   5.731  49.416  1.00  0.00     0.088 A 
HETATM   13  C14 UNL     1      26.542   6.182  48.628  1.00  0.00     0.053 A 
HETATM   14  C15 UNL     1      27.558   5.214  48.579  1.00  0.00     0.121 A 
HETATM   15  N4  UNL     1      27.478   4.043  49.232  1.00  0.00    -0.245 NA
HETATM   16  C16 UNL     1      26.434   3.678  49.990  1.00  0.00     0.131 A 
HETATM   17  N5  UNL     1      25.409   4.539  50.096  1.00  0.00    -0.231 NA
HETATM   18  C17 UNL     1      26.473   2.411  50.727  1.00  0.00     0.133 C 
HETATM   19  H11 UNL     1      20.396   5.305  50.393  1.00  0.00     0.317 HD
ENDROOT
BRANCH   1  20
HETATM   20  N1  UNL     1      25.708   1.025  52.418  1.00  0.00    -0.333 N 
HETATM   21  C1  UNL     1      26.184   1.257  53.731  1.00  0.00     0.225 C 
HETATM   22  O1  UNL     1      26.290   2.409  54.210  1.00  0.00    -0.273 OA
HETATM   23  H5  UNL     1      25.594   0.084  51.930  1.00  0.00     0.168 HD
BRANCH  21  24
HETATM   24  C2  UNL     1      26.500  -0.069  54.359  1.00  0.00     0.132 C 
BRANCH  24  25
HETATM   25  C3  UNL     1      25.185  -0.708  54.614  1.00  0.00     0.012 C 
HETATM   26  C4  UNL     1      24.439  -1.208  55.604  1.00  0.00     0.184 C 
HETATM   27  F1  UNL     1      23.206  -1.771  55.617  1.00  0.00    -0.220 F 
ENDBRANCH  24  25
ENDBRANCH  21  24
ENDBRANCH   1  20
TORSDOF 3
ENDMDL
MODEL 7
REMARK VINA RESULT:      -7.6      3.726      6.375
REMARK  3 active torsions:
REMARK  status: ('A' for Active; 'I' for Inactive)
REMARK    1  A    between atoms: C1_2  and  C2_3 
REMARK       I    between atoms: C1_2  and  N1_7 
REMARK    2  A    between atoms: C2_3  and  C3_4 
REMARK    3  A    between atoms: N1_7  and  C5_8 
ROOT
HETATM    1  C5  UNL     1      24.914   3.695  49.791  1.00  0.00     0.005 C 
HETATM    2  C6  UNL     1      24.272   4.589  48.978  1.00  0.00     0.067 C 
HETATM    3  C7  UNL     1      22.854   5.095  48.867  1.00  0.00    -0.018 C 
HETATM    4  C8  UNL     1      22.554   5.986  47.886  1.00  0.00    -0.001 C 
HETATM    5  C9  UNL     1      23.031   6.768  46.737  1.00  0.00     0.298 C 
HETATM    6  N2  UNL     1      23.052   8.224  46.958  1.00  0.00     0.101 N 
HETATM    7  C10 UNL     1      24.164   8.441  47.870  1.00  0.00     0.301 C 
HETATM    8  C11 UNL     1      25.392   7.836  47.152  1.00  0.00     0.049 C 
HETATM    9  C12 UNL     1      26.333   8.185  48.016  1.00  0.00     0.083 C 
HETATM   10  N3  UNL     1      26.494   9.485  48.665  1.00  0.00    -0.250 NA
HETATM   11  P1  UNL     1      24.959  10.188  47.803  1.00  0.00     0.101 P 
HETATM   12  C13 UNL     1      27.130   6.980  48.217  1.00  0.00     0.088 A 
HETATM   13  C14 UNL     1      28.441   6.976  47.827  1.00  0.00     0.053 A 
HETATM   14  C15 UNL     1      28.999   5.712  48.076  1.00  0.00     0.121 A 
HETATM   15  N4  UNL     1      28.299   4.702  48.618  1.00  0.00    -0.245 NA
HETATM   16  C16 UNL     1      27.010   4.791  48.975  1.00  0.00     0.131 A 
HETATM   17  N5  UNL     1      26.387   5.963  48.773  1.00  0.00    -0.231 NA
HETATM   18  C17 UNL     1      26.353   3.656  49.633  1.00  0.00     0.133 C 
HETATM   19  H11 UNL     1      22.172   8.465  47.438  1.00  0.00     0.317 HD
ENDROOT
BRANCH   1  20
HETATM   20  N1  UNL     1      24.643   2.772  50.920  1.00  0.00    -0.333 N 
HETATM   21  C1  UNL     1      24.021   2.957  52.179  1.00  0.00     0.225 C 
HETATM   22  O1  UNL     1      23.561   4.063  52.542  1.00  0.00    -0.273 OA
HETATM   23  H5  UNL     1      25.066   1.872  50.535  1.00  0.00     0.168 HD
BRANCH  21  24
HETATM   24  C2  UNL     1      24.035   1.645  52.907  1.00  0.00     0.132 C 
BRANCH  24  25
HETATM   25  C3  UNL     1      25.172   0.885  52.330  1.00  0.00     0.012 C 
HETATM   26  C4  UNL     1      25.973  -0.154  52.586  1.00  0.00     0.184 C 
HETATM   27  F1  UNL     1      26.998  -0.704  51.890  1.00  0.00    -0.220 F 
ENDBRANCH  24  25
ENDBRANCH  21  24
ENDBRANCH   1  20
TORSDOF 3
ENDMDL
MODEL 8
REMARK VINA RESULT:      -7.6      4.970      8.321
REMARK  3 active torsions:
REMARK  status: ('A' for Active; 'I' for Inactive)
REMARK    1  A    between atoms: C1_2  and  C2_3 
REMARK       I    between atoms: C1_2  and  N1_7 
REMARK    2  A    between atoms: C2_3  and  C3_4 
REMARK    3  A    between atoms: N1_7  and  C5_8 
ROOT
HETATM    1  C5  UNL     1      20.079   0.312  53.050  1.00  0.00     0.005 C 
HETATM    2  C6  UNL     1      21.136  -0.168  53.775  1.00  0.00     0.067 C 
HETATM    3  C7  UNL     1      21.505  -1.515  54.351  1.00  0.00    -0.018 C 
HETATM    4  C8  UNL     1      22.652  -1.624  55.069  1.00  0.00    -0.001 C 
HETATM    5  C9  UNL     1      23.836  -0.950  55.622  1.00  0.00     0.298 C 
HETATM    6  N2  UNL     1      25.111  -1.366  55.016  1.00  0.00     0.101 N 
HETATM    7  C10 UNL     1      25.099  -0.771  53.689  1.00  0.00     0.301 C 
HETATM    8  C11 UNL     1      24.913   0.744  53.932  1.00  0.00     0.049 C 
HETATM    9  C12 UNL     1      25.023   1.173  52.684  1.00  0.00     0.083 C 
HETATM   10  N3  UNL     1      26.016   0.757  51.695  1.00  0.00    -0.250 NA
HETATM   11  P1  UNL     1      26.824  -0.456  52.907  1.00  0.00     0.101 P 
HETATM   12  C13 UNL     1      23.911   2.098  52.501  1.00  0.00     0.088 A 
HETATM   13  C14 UNL     1      24.175   3.418  52.260  1.00  0.00     0.053 A 
HETATM   14  C15 UNL     1      22.968   4.126  52.157  1.00  0.00     0.121 A 
HETATM   15  N4  UNL     1      21.767   3.538  52.284  1.00  0.00    -0.245 NA
HETATM   16  C16 UNL     1      21.595   2.229  52.520  1.00  0.00     0.131 A 
HETATM   17  N5  UNL     1      22.694   1.468  52.637  1.00  0.00    -0.231 NA
HETATM   18  C17 UNL     1      20.242   1.666  52.565  1.00  0.00     0.133 C 
HETATM   19  H11 UNL     1      25.078  -2.391  54.925  1.00  0.00     0.317 HD
ENDROOT
BRANCH   1  20
HETATM   20  N1  UNL     1      18.793  -0.138  52.464  1.00  0.00    -0.333 N 
HETATM   21  C1  UNL     1      17.904  -1.189  52.797  1.00  0.00     0.225 C 
HETATM   22  O1  UNL     1      18.120  -1.970  53.752  1.00  0.00    -0.273 OA
HETATM   23  H5  UNL     1      18.691   0.564  51.668  1.00  0.00     0.168 HD
BRANCH  21  24
HETATM   24  C2  UNL     1      16.752  -1.154  51.836  1.00  0.00     0.132 C 
BRANCH  24  25
HETATM   25  C3  UNL     1      15.629  -0.540  52.588  1.00  0.00     0.012 C 
HETATM   26  C4  UNL     1      15.032   0.638  52.800  1.00  0.00     0.184 C 
HETATM   27  F1  UNL     1      13.969   0.992  53.562  1.00  0.00    -0.220 F 
ENDBRANCH  24  25
ENDBRANCH  21  24
ENDBRANCH   1  20
TORSDOF 3
ENDMDL
MODEL 9
REMARK VINA RESULT:      -7.4      3.527      6.161
REMARK  3 active torsions:
REMARK  status: ('A' for Active; 'I' for Inactive)
REMARK    1  A    between atoms: C1_2  and  C2_3 
REMARK       I    between atoms: C1_2  and  N1_7 
REMARK    2  A    between atoms: C2_3  and  C3_4 
REMARK    3  A    between atoms: N1_7  and  C5_8 
ROOT
HETATM    1  C5  UNL     1      25.027   3.172  50.054  1.00  0.00     0.005 C 
HETATM    2  C6  UNL     1      24.200   3.923  49.264  1.00  0.00     0.067 C 
HETATM    3  C7  UNL     1      22.710   4.167  49.216  1.00  0.00    -0.018 C 
HETATM    4  C8  UNL     1      22.213   4.972  48.242  1.00  0.00    -0.001 C 
HETATM    5  C9  UNL     1      22.490   5.807  47.064  1.00  0.00     0.298 C 
HETATM    6  N2  UNL     1      22.261   7.246  47.271  1.00  0.00     0.101 N 
HETATM    7  C10 UNL     1      23.357   7.674  48.126  1.00  0.00     0.301 C 
HETATM    8  C11 UNL     1      24.639   7.284  47.357  1.00  0.00     0.049 C 
HETATM    9  C12 UNL     1      25.541   7.810  48.172  1.00  0.00     0.083 C 
HETATM   10  N3  UNL     1      25.496   9.129  48.801  1.00  0.00    -0.250 NA
HETATM   11  P1  UNL     1      23.823   9.533  48.006  1.00  0.00     0.101 P 
HETATM   12  C13 UNL     1      26.548   6.770  48.346  1.00  0.00     0.088 A 
HETATM   13  C14 UNL     1      27.820   6.992  47.896  1.00  0.00     0.053 A 
HETATM   14  C15 UNL     1      28.605   5.852  48.129  1.00  0.00     0.121 A 
HETATM   15  N4  UNL     1      28.122   4.743  48.714  1.00  0.00    -0.245 NA
HETATM   16  C16 UNL     1      26.855   4.608  49.131  1.00  0.00     0.131 A 
HETATM   17  N5  UNL     1      26.025   5.647  48.947  1.00  0.00    -0.231 NA
HETATM   18  C17 UNL     1      26.441   3.387  49.829  1.00  0.00     0.133 C 
HETATM   19  H11 UNL     1      21.375   7.336  47.788  1.00  0.00     0.317 HD
ENDROOT
BRANCH   1  20
HETATM   20  N1  UNL     1      24.975   2.236  51.204  1.00  0.00    -0.333 N 
HETATM   21  C1  UNL     1      24.569   2.395  52.551  1.00  0.00     0.225 C 
HETATM   22  O1  UNL     1      24.146   3.486  52.997  1.00  0.00    -0.273 OA
HETATM   23  H5  UNL     1      25.353   1.351  50.745  1.00  0.00     0.168 HD
BRANCH  21  24
HETATM   24  C2  UNL     1      24.742   1.081  53.254  1.00  0.00     0.132 C 
BRANCH  24  25
HETATM   25  C3  UNL     1      23.449   0.370  53.086  1.00  0.00     0.012 C 
HETATM   26  C4  UNL     1      22.822  -0.758  53.436  1.00  0.00     0.184 C 
HETATM   27  F1  UNL     1      21.582  -1.230  53.160  1.00  0.00    -0.220 F 
ENDBRANCH  24  25
ENDBRANCH  21  24
ENDBRANCH   1  20
TORSDOF 3
ENDMDL
