MODEL 1
REMARK VINA RESULT:      -8.3      0.000      0.000
REMARK  6 active torsions:
REMARK  status: ('A' for Active; 'I' for Inactive)
REMARK    1  A    between atoms: C6_6  and  N1_7 
REMARK    2  A    between atoms: N1_7  and  C7_8 
REMARK    3  A    between atoms: C10_13  and  C11_14 
REMARK    4  A    between atoms: C11_14  and  O1_15 
REMARK    5  A    between atoms: O1_15  and  C12_16 
REMARK    6  A    between atoms: C12_16  and  C13_17 
REMARK       I    between atoms: C13_17  and  N4_19 
ROOT
HETATM    1  C7  UNL     1      25.202   3.355  50.589  1.00  0.00     0.111 A 
HETATM    2  N2  UNL     1      24.430   4.384  50.840  1.00  0.00    -0.228 NA
HETATM    3  C8  UNL     1      24.812   5.645  50.304  1.00  0.00     0.235 A 
HETATM    4  N3  UNL     1      25.877   5.851  49.579  1.00  0.00    -0.246 NA
HETATM    5  C9  UNL     1      26.705   4.722  49.317  1.00  0.00     0.041 A 
HETATM    6  C10 UNL     1      27.790   4.968  48.570  1.00  0.00     0.026 C 
HETATM    7  C20 UNL     1      26.459   3.336  49.794  1.00  0.00     0.137 A 
ENDROOT
BRANCH   6   8
HETATM    8  C11 UNL     1      28.049   6.348  48.085  1.00  0.00     0.197 C 
BRANCH   8   9
HETATM    9  O1  UNL     1      29.359   6.507  47.620  1.00  0.00    -0.378 OA
BRANCH   9  10
HETATM   10  C12 UNL     1      30.062   5.409  48.039  1.00  0.00     0.270 C 
BRANCH  10  11
HETATM   11  C13 UNL     1      31.452   5.630  48.419  1.00  0.00     0.243 C 
HETATM   12  O2  UNL     1      31.558   6.070  49.607  1.00  0.00    -0.271 OA
HETATM   13  N4  UNL     1      32.723   5.482  47.808  1.00  0.00    -0.346 N 
HETATM   14  C14 UNL     1      33.725   5.909  48.799  1.00  0.00     0.127 C 
HETATM   15  C18 UNL     1      33.379   5.076  46.600  1.00  0.00     0.087 C 
HETATM   16  C15 UNL     1      35.053   5.748  48.086  1.00  0.00     0.026 C 
HETATM   17  C16 UNL     1      34.741   4.652  47.088  1.00  0.00     0.005 C 
HETATM   18  C17 UNL     1      34.697   3.354  47.853  1.00  0.00     0.012 C 
HETATM   19  C19 UNL     1      32.675   3.991  45.835  1.00  0.00     0.033 C 
ENDBRANCH  10  11
ENDBRANCH   9  10
ENDBRANCH   8   9
ENDBRANCH   6   8
BRANCH   1  20
HETATM   20  N1  UNL     1      24.758   2.111  51.160  1.00  0.00    -0.344 N 
HETATM   21  H7  UNL     1      23.830   1.696  50.884  1.00  0.00     0.167 HD
BRANCH  20  22
HETATM   22  C6  UNL     1      25.567   1.405  52.120  1.00  0.00     0.033 A 
HETATM   23  C5  UNL     1      25.718   2.103  53.323  1.00  0.00     0.029 A 
HETATM   24  C4  UNL     1      26.463   1.569  54.352  1.00  0.00     0.003 A 
HETATM   25  C3  UNL     1      27.054   0.341  54.179  1.00  0.00     0.007 A 
HETATM   26  C2  UNL     1      26.907  -0.359  52.982  1.00  0.00    -0.060 A 
HETATM   27  C1  UNL     1      27.543  -1.689  52.788  1.00  0.00     0.048 C 
HETATM   28  C21 UNL     1      26.165   0.174  51.960  1.00  0.00     0.036 A 
ENDBRANCH  20  22
ENDBRANCH   1  20
TORSDOF 6
ENDMDL
MODEL 2
REMARK VINA RESULT:      -8.1      4.620      8.174
REMARK  6 active torsions:
REMARK  status: ('A' for Active; 'I' for Inactive)
REMARK    1  A    between atoms: C6_6  and  N1_7 
REMARK    2  A    between atoms: N1_7  and  C7_8 
REMARK    3  A    between atoms: C10_13  and  C11_14 
REMARK    4  A    between atoms: C11_14  and  O1_15 
REMARK    5  A    between atoms: O1_15  and  C12_16 
REMARK    6  A    between atoms: C12_16  and  C13_17 
REMARK       I    between atoms: C13_17  and  N4_19 
ROOT
HETATM    1  C7  UNL     1      23.547   4.057  50.436  1.00  0.00     0.111 A 
HETATM    2  N2  UNL     1      23.926   4.630  51.552  1.00  0.00    -0.228 NA
HETATM    3  C8  UNL     1      23.890   3.850  52.741  1.00  0.00     0.235 A 
HETATM    4  N3  UNL     1      23.507   2.604  52.800  1.00  0.00    -0.246 NA
HETATM    5  C9  UNL     1      23.099   1.999  51.577  1.00  0.00     0.041 A 
HETATM    6  C10 UNL     1      22.711   0.719  51.673  1.00  0.00     0.026 C 
HETATM    7  C20 UNL     1      23.072   2.661  50.247  1.00  0.00     0.137 A 
ENDROOT
BRANCH   6   8
HETATM    8  C11 UNL     1      22.732   0.044  52.996  1.00  0.00     0.197 C 
BRANCH   8   9
HETATM    9  O1  UNL     1      23.848  -0.788  53.145  1.00  0.00    -0.378 OA
BRANCH   9  10
HETATM   10  C12 UNL     1      24.100  -0.873  54.488  1.00  0.00     0.270 C 
BRANCH  10  11
HETATM   11  C13 UNL     1      25.454  -0.553  54.920  1.00  0.00     0.243 C 
HETATM   12  O2  UNL     1      25.634  -0.802  56.155  1.00  0.00    -0.271 OA
HETATM   13  N4  UNL     1      26.630  -0.033  54.323  1.00  0.00    -0.346 N 
HETATM   14  C14 UNL     1      27.653   0.034  55.381  1.00  0.00     0.127 C 
HETATM   15  C18 UNL     1      27.180   0.443  53.088  1.00  0.00     0.087 C 
HETATM   16  C15 UNL     1      28.873   0.611  54.690  1.00  0.00     0.026 C 
HETATM   17  C16 UNL     1      28.654   0.178  53.255  1.00  0.00     0.005 C 
HETATM   18  C17 UNL     1      28.984  -1.291  53.180  1.00  0.00     0.012 C 
HETATM   19  C19 UNL     1      26.612  -0.202  51.855  1.00  0.00     0.033 C 
ENDBRANCH  10  11
ENDBRANCH   9  10
ENDBRANCH   8   9
ENDBRANCH   6   8
BRANCH   1  20
HETATM   20  N1  UNL     1      23.608   4.902  49.272  1.00  0.00    -0.344 N 
HETATM   21  H7  UNL     1      22.753   5.054  48.674  1.00  0.00     0.167 HD
BRANCH  20  22
HETATM   22  C6  UNL     1      24.834   5.558  48.895  1.00  0.00     0.033 A 
HETATM   23  C5  UNL     1      24.642   6.888  48.505  1.00  0.00     0.029 A 
HETATM   24  C4  UNL     1      25.712   7.663  48.114  1.00  0.00     0.003 A 
HETATM   25  C3  UNL     1      26.970   7.110  48.112  1.00  0.00     0.007 A 
HETATM   26  C2  UNL     1      27.167   5.785  48.500  1.00  0.00    -0.060 A 
HETATM   27  C1  UNL     1      28.525   5.180  48.502  1.00  0.00     0.048 C 
HETATM   28  C21 UNL     1      26.101   5.017  48.889  1.00  0.00     0.036 A 
ENDBRANCH  20  22
ENDBRANCH   1  20
TORSDOF 6
ENDMDL
MODEL 3
REMARK VINA RESULT:      -7.9      6.515      8.627
REMARK  6 active torsions:
REMARK  status: ('A' for Active; 'I' for Inactive)
REMARK    1  A    between atoms: C6_6  and  N1_7 
REMARK    2  A    between atoms: N1_7  and  C7_8 
REMARK    3  A    between atoms: C10_13  and  C11_14 
REMARK    4  A    between atoms: C11_14  and  O1_15 
REMARK    5  A    between atoms: O1_15  and  C12_16 
REMARK    6  A    between atoms: C12_16  and  C13_17 
REMARK       I    between atoms: C13_17  and  N4_19 
ROOT
HETATM    1  C7  UNL     1      22.923  -0.478  54.041  1.00  0.00     0.111 A 
HETATM    2  N2  UNL     1      21.967  -0.278  54.914  1.00  0.00    -0.228 NA
HETATM    3  C8  UNL     1      20.696   0.131  54.421  1.00  0.00     0.235 A 
HETATM    4  N3  UNL     1      20.415   0.321  53.161  1.00  0.00    -0.246 NA
HETATM    5  C9  UNL     1      21.467   0.098  52.227  1.00  0.00     0.041 A 
HETATM    6  C10 UNL     1      21.145   0.302  50.942  1.00  0.00     0.026 C 
HETATM    7  C20 UNL     1      22.850  -0.329  52.563  1.00  0.00     0.137 A 
ENDROOT
BRANCH   6   8
HETATM    8  C11 UNL     1      19.766   0.729  50.591  1.00  0.00     0.197 C 
BRANCH   8   9
HETATM    9  O1  UNL     1      19.759   1.757  49.641  1.00  0.00    -0.378 OA
BRANCH   9  10
HETATM   10  C12 UNL     1      19.368   2.896  50.294  1.00  0.00     0.270 C 
BRANCH  10  11
HETATM   11  C13 UNL     1      20.365   3.536  51.143  1.00  0.00     0.243 C 
HETATM   12  O2  UNL     1      19.936   3.724  52.326  1.00  0.00    -0.271 OA
HETATM   13  N4  UNL     1      21.695   4.006  50.996  1.00  0.00    -0.346 N 
HETATM   14  C14 UNL     1      22.098   4.559  52.300  1.00  0.00     0.127 C 
HETATM   15  C18 UNL     1      22.771   4.139  50.059  1.00  0.00     0.087 C 
HETATM   16  C15 UNL     1      23.512   5.061  52.075  1.00  0.00     0.026 C 
HETATM   17  C16 UNL     1      23.987   4.164  50.950  1.00  0.00     0.005 C 
HETATM   18  C17 UNL     1      24.282   2.815  51.554  1.00  0.00     0.012 C 
HETATM   19  C19 UNL     1      22.838   3.057  49.019  1.00  0.00     0.033 C 
ENDBRANCH  10  11
ENDBRANCH   9  10
ENDBRANCH   8   9
ENDBRANCH   6   8
BRANCH   1  20
HETATM   20  N1  UNL     1      24.181  -0.889  54.606  1.00  0.00    -0.344 N 
HETATM   21  H7  UNL     1      24.210  -1.507  55.459  1.00  0.00     0.167 HD
BRANCH  20  22
HETATM   22  C6  UNL     1      25.430  -0.469  54.021  1.00  0.00     0.033 A 
HETATM   23  C5  UNL     1      26.040  -1.472  53.260  1.00  0.00     0.029 A 
HETATM   24  C4  UNL     1      27.242  -1.238  52.630  1.00  0.00     0.003 A 
HETATM   25  C3  UNL     1      27.833  -0.004  52.760  1.00  0.00     0.007 A 
HETATM   26  C2  UNL     1      27.230   1.000  53.517  1.00  0.00    -0.060 A 
HETATM   27  C1  UNL     1      27.862   2.337  53.661  1.00  0.00     0.048 C 
HETATM   28  C21 UNL     1      26.033   0.763  54.143  1.00  0.00     0.036 A 
ENDBRANCH  20  22
ENDBRANCH   1  20
TORSDOF 6
ENDMDL
MODEL 4
REMARK VINA RESULT:      -7.9      2.014      2.992
REMARK  6 active torsions:
REMARK  status: ('A' for Active; 'I' for Inactive)
REMARK    1  A    between atoms: C6_6  and  N1_7 
REMARK    2  A    between atoms: N1_7  and  C7_8 
REMARK    3  A    between atoms: C10_13  and  C11_14 
REMARK    4  A    between atoms: C11_14  and  O1_15 
REMARK    5  A    between atoms: O1_15  and  C12_16 
REMARK    6  A    between atoms: C12_16  and  C13_17 
REMARK       I    between atoms: C13_17  and  N4_19 
ROOT
HETATM    1  C7  UNL     1      25.116   2.000  52.256  1.00  0.00     0.111 A 
HETATM    2  N2  UNL     1      24.112   2.732  52.673  1.00  0.00    -0.228 NA
HETATM    3  C8  UNL     1      23.865   3.961  52.002  1.00  0.00     0.235 A 
HETATM    4  N3  UNL     1      24.567   4.413  50.999  1.00  0.00    -0.246 NA
HETATM    5  C9  UNL     1      25.654   3.604  50.559  1.00  0.00     0.041 A 
HETATM    6  C10 UNL     1      26.354   4.097  49.528  1.00  0.00     0.026 C 
HETATM    7  C20 UNL     1      26.055   2.297  51.142  1.00  0.00     0.137 A 
ENDROOT
BRANCH   6   8
HETATM    8  C11 UNL     1      25.966   5.402  48.935  1.00  0.00     0.197 C 
BRANCH   8   9
HETATM    9  O1  UNL     1      26.911   6.401  49.194  1.00  0.00    -0.378 OA
BRANCH   9  10
HETATM   10  C12 UNL     1      27.712   6.484  48.087  1.00  0.00     0.270 C 
BRANCH  10  11
HETATM   11  C13 UNL     1      29.130   6.212  48.285  1.00  0.00     0.243 C 
HETATM   12  O2  UNL     1      29.415   4.989  48.084  1.00  0.00    -0.271 OA
HETATM   13  N4  UNL     1      30.281   6.957  48.646  1.00  0.00    -0.346 N 
HETATM   14  C14 UNL     1      31.413   6.015  48.660  1.00  0.00     0.127 C 
HETATM   15  C18 UNL     1      30.740   8.269  48.997  1.00  0.00     0.087 C 
HETATM   16  C15 UNL     1      32.603   6.860  49.069  1.00  0.00     0.026 C 
HETATM   17  C16 UNL     1      32.190   8.236  48.587  1.00  0.00     0.005 C 
HETATM   18  C17 UNL     1      32.362   8.251  47.090  1.00  0.00     0.012 C 
HETATM   19  C19 UNL     1      29.982   9.395  48.351  1.00  0.00     0.033 C 
ENDBRANCH  10  11
ENDBRANCH   9  10
ENDBRANCH   8   9
ENDBRANCH   6   8
BRANCH   1  20
HETATM   20  N1  UNL     1      25.310   0.771  52.978  1.00  0.00    -0.344 N 
HETATM   21  H7  UNL     1      24.483   0.190  53.281  1.00  0.00     0.167 HD
BRANCH  20  22
HETATM   22  C6  UNL     1      26.633   0.303  53.306  1.00  0.00     0.033 A 
HETATM   23  C5  UNL     1      27.383   1.246  54.016  1.00  0.00     0.029 A 
HETATM   24  C4  UNL     1      28.672   0.960  54.410  1.00  0.00     0.003 A 
HETATM   25  C3  UNL     1      29.209  -0.265  54.095  1.00  0.00     0.007 A 
HETATM   26  C2  UNL     1      28.465  -1.209  53.388  1.00  0.00    -0.060 A 
HETATM   27  C1  UNL     1      29.039  -2.537  53.044  1.00  0.00     0.048 C 
HETATM   28  C21 UNL     1      27.183  -0.922  52.997  1.00  0.00     0.036 A 
ENDBRANCH  20  22
ENDBRANCH   1  20
TORSDOF 6
ENDMDL
MODEL 5
REMARK VINA RESULT:      -7.8      5.691      7.778
REMARK  6 active torsions:
REMARK  status: ('A' for Active; 'I' for Inactive)
REMARK    1  A    between atoms: C6_6  and  N1_7 
REMARK    2  A    between atoms: N1_7  and  C7_8 
REMARK    3  A    between atoms: C10_13  and  C11_14 
REMARK    4  A    between atoms: C11_14  and  O1_15 
REMARK    5  A    between atoms: O1_15  and  C12_16 
REMARK    6  A    between atoms: C12_16  and  C13_17 
REMARK       I    between atoms: C13_17  and  N4_19 
ROOT
HETATM    1  C7  UNL     1      23.837  -0.528  53.841  1.00  0.00     0.111 A 
HETATM    2  N2  UNL     1      23.052  -0.978  54.788  1.00  0.00    -0.228 NA
HETATM    3  C8  UNL     1      21.720  -0.483  54.835  1.00  0.00     0.235 A 
HETATM    4  N3  UNL     1      21.223   0.389  54.000  1.00  0.00    -0.246 NA
HETATM    5  C9  UNL     1      22.091   0.866  52.977  1.00  0.00     0.041 A 
HETATM    6  C10 UNL     1      21.549   1.760  52.137  1.00  0.00     0.026 C 
HETATM    7  C20 UNL     1      23.506   0.459  52.779  1.00  0.00     0.137 A 
ENDROOT
BRANCH   6   8
HETATM    8  C11 UNL     1      20.135   2.176  52.321  1.00  0.00     0.197 C 
BRANCH   8   9
HETATM    9  O1  UNL     1      20.000   3.568  52.385  1.00  0.00    -0.378 OA
BRANCH   9  10
HETATM   10  C12 UNL     1      20.452   4.063  51.191  1.00  0.00     0.270 C 
BRANCH  10  11
HETATM   11  C13 UNL     1      21.782   4.659  51.192  1.00  0.00     0.243 C 
HETATM   12  O2  UNL     1      21.961   5.426  52.192  1.00  0.00    -0.271 OA
HETATM   13  N4  UNL     1      22.934   4.609  50.368  1.00  0.00    -0.346 N 
HETATM   14  C14 UNL     1      23.939   5.491  50.986  1.00  0.00     0.127 C 
HETATM   15  C18 UNL     1      23.471   4.026  49.174  1.00  0.00     0.087 C 
HETATM   16  C15 UNL     1      25.134   5.411  50.055  1.00  0.00     0.026 C 
HETATM   17  C16 UNL     1      24.955   4.041  49.434  1.00  0.00     0.005 C 
HETATM   18  C17 UNL     1      25.366   3.027  50.470  1.00  0.00     0.012 C 
HETATM   19  C19 UNL     1      22.953   2.651  48.857  1.00  0.00     0.033 C 
ENDBRANCH  10  11
ENDBRANCH   9  10
ENDBRANCH   8   9
ENDBRANCH   6   8
BRANCH   1  20
HETATM   20  N1  UNL     1      25.170  -1.071  53.852  1.00  0.00    -0.344 N 
HETATM   21  H7  UNL     1      25.326  -2.111  53.919  1.00  0.00     0.167 HD
BRANCH  20  22
HETATM   22  C6  UNL     1      26.323  -0.209  53.771  1.00  0.00     0.033 A 
HETATM   23  C5  UNL     1      25.994   1.149  53.844  1.00  0.00     0.029 A 
HETATM   24  C4  UNL     1      26.978   2.110  53.783  1.00  0.00     0.003 A 
HETATM   25  C3  UNL     1      28.287   1.716  53.649  1.00  0.00     0.007 A 
HETATM   26  C2  UNL     1      28.621   0.364  53.575  1.00  0.00    -0.060 A 
HETATM   27  C1  UNL     1      30.035  -0.071  53.431  1.00  0.00     0.048 C 
HETATM   28  C21 UNL     1      27.639  -0.591  53.636  1.00  0.00     0.036 A 
ENDBRANCH  20  22
ENDBRANCH   1  20
TORSDOF 6
ENDMDL
MODEL 6
REMARK VINA RESULT:      -7.7      2.970      8.442
REMARK  6 active torsions:
REMARK  status: ('A' for Active; 'I' for Inactive)
REMARK    1  A    between atoms: C6_6  and  N1_7 
REMARK    2  A    between atoms: N1_7  and  C7_8 
REMARK    3  A    between atoms: C10_13  and  C11_14 
REMARK    4  A    between atoms: C11_14  and  O1_15 
REMARK    5  A    between atoms: O1_15  and  C12_16 
REMARK    6  A    between atoms: C12_16  and  C13_17 
REMARK       I    between atoms: C13_17  and  N4_19 
ROOT
HETATM    1  C7  UNL     1      27.679   7.009  48.631  1.00  0.00     0.111 A 
HETATM    2  N2  UNL     1      27.123   7.971  49.326  1.00  0.00    -0.228 NA
HETATM    3  C8  UNL     1      25.969   7.652  50.094  1.00  0.00     0.235 A 
HETATM    4  N3  UNL     1      25.424   6.468  50.156  1.00  0.00    -0.246 NA
HETATM    5  C9  UNL     1      26.041   5.435  49.395  1.00  0.00     0.041 A 
HETATM    6  C10 UNL     1      25.457   4.232  49.481  1.00  0.00     0.026 C 
HETATM    7  C20 UNL     1      27.248   5.589  48.540  1.00  0.00     0.137 A 
ENDROOT
BRANCH   6   8
HETATM    8  C11 UNL     1      24.251   4.062  50.331  1.00  0.00     0.197 C 
BRANCH   8   9
HETATM    9  O1  UNL     1      23.793   2.739  50.338  1.00  0.00    -0.378 OA
BRANCH   9  10
HETATM   10  C12 UNL     1      23.073   2.577  51.491  1.00  0.00     0.270 C 
BRANCH  10  11
HETATM   11  C13 UNL     1      23.404   1.418  52.310  1.00  0.00     0.243 C 
HETATM   12  O2  UNL     1      22.432   0.602  52.399  1.00  0.00    -0.271 OA
HETATM   13  N4  UNL     1      24.531   0.959  53.038  1.00  0.00    -0.346 N 
HETATM   14  C14 UNL     1      24.150  -0.325  53.650  1.00  0.00     0.127 C 
HETATM   15  C18 UNL     1      25.882   1.282  53.391  1.00  0.00     0.087 C 
HETATM   16  C15 UNL     1      25.380  -0.753  54.425  1.00  0.00     0.026 C 
HETATM   17  C16 UNL     1      26.490  -0.073  53.651  1.00  0.00     0.005 C 
HETATM   18  C17 UNL     1      26.695  -0.862  52.383  1.00  0.00     0.012 C 
HETATM   19  C19 UNL     1      26.635   2.065  52.353  1.00  0.00     0.033 C 
ENDBRANCH  10  11
ENDBRANCH   9  10
ENDBRANCH   8   9
ENDBRANCH   6   8
BRANCH   1  20
HETATM   20  N1  UNL     1      28.841   7.401  47.879  1.00  0.00    -0.344 N 
HETATM   21  H7  UNL     1      28.759   8.084  47.080  1.00  0.00     0.167 HD
BRANCH  20  22
HETATM   22  C6  UNL     1      30.144   6.871  48.196  1.00  0.00     0.033 A 
HETATM   23  C5  UNL     1      30.900   7.730  49.000  1.00  0.00     0.029 A 
HETATM   24  C4  UNL     1      32.171   7.377  49.397  1.00  0.00     0.003 A 
HETATM   25  C3  UNL     1      32.684   6.168  48.992  1.00  0.00     0.007 A 
HETATM   26  C2  UNL     1      31.934   5.307  48.191  1.00  0.00    -0.060 A 
HETATM   27  C1  UNL     1      32.482   3.997  47.750  1.00  0.00     0.048 C 
HETATM   28  C21 UNL     1      30.670   5.661  47.798  1.00  0.00     0.036 A 
ENDBRANCH  20  22
ENDBRANCH   1  20
TORSDOF 6
ENDMDL
MODEL 7
REMARK VINA RESULT:      -7.7      5.165      8.247
REMARK  6 active torsions:
REMARK  status: ('A' for Active; 'I' for Inactive)
REMARK    1  A    between atoms: C6_6  and  N1_7 
REMARK    2  A    between atoms: N1_7  and  C7_8 
REMARK    3  A    between atoms: C10_13  and  C11_14 
REMARK    4  A    between atoms: C11_14  and  O1_15 
REMARK    5  A    between atoms: O1_15  and  C12_16 
REMARK    6  A    between atoms: C12_16  and  C13_17 
REMARK       I    between atoms: C13_17  and  N4_19 
ROOT
HETATM    1  C7  UNL     1      21.958   3.618  50.539  1.00  0.00     0.111 A 
HETATM    2  N2  UNL     1      21.101   4.097  51.406  1.00  0.00    -0.228 NA
HETATM    3  C8  UNL     1      20.670   3.239  52.455  1.00  0.00     0.235 A 
HETATM    4  N3  UNL     1      21.068   2.007  52.616  1.00  0.00    -0.246 NA
HETATM    5  C9  UNL     1      22.000   1.503  51.665  1.00  0.00     0.041 A 
HETATM    6  C10 UNL     1      22.389   0.235  51.860  1.00  0.00     0.026 C 
HETATM    7  C20 UNL     1      22.556   2.256  50.510  1.00  0.00     0.137 A 
ENDROOT
BRANCH   6   8
HETATM    8  C11 UNL     1      21.843  -0.531  53.010  1.00  0.00     0.197 C 
BRANCH   8   9
HETATM    9  O1  UNL     1      22.809  -1.354  53.600  1.00  0.00    -0.378 OA
BRANCH   9  10
HETATM   10  C12 UNL     1      23.587  -0.548  54.388  1.00  0.00     0.270 C 
BRANCH  10  11
HETATM   11  C13 UNL     1      24.985  -0.411  54.001  1.00  0.00     0.243 C 
HETATM   12  O2  UNL     1      25.547  -1.540  53.832  1.00  0.00    -0.271 OA
HETATM   13  N4  UNL     1      25.889   0.655  53.762  1.00  0.00    -0.346 N 
HETATM   14  C14 UNL     1      27.181   0.047  53.402  1.00  0.00     0.127 C 
HETATM   15  C18 UNL     1      26.003   2.084  53.742  1.00  0.00     0.087 C 
HETATM   16  C15 UNL     1      28.104   1.229  53.179  1.00  0.00     0.026 C 
HETATM   17  C16 UNL     1      27.130   2.314  52.768  1.00  0.00     0.005 C 
HETATM   18  C17 UNL     1      26.724   2.029  51.345  1.00  0.00     0.012 C 
HETATM   19  C19 UNL     1      24.747   2.812  53.356  1.00  0.00     0.033 C 
ENDBRANCH  10  11
ENDBRANCH   9  10
ENDBRANCH   8   9
ENDBRANCH   6   8
BRANCH   1  20
HETATM   20  N1  UNL     1      22.352   4.538  49.504  1.00  0.00    -0.344 N 
HETATM   21  H7  UNL     1      21.705   4.749  48.699  1.00  0.00     0.167 HD
BRANCH  20  22
HETATM   22  C6  UNL     1      23.636   5.192  49.542  1.00  0.00     0.033 A 
HETATM   23  C5  UNL     1      23.574   6.480  50.085  1.00  0.00     0.029 A 
HETATM   24  C4  UNL     1      24.714   7.246  50.196  1.00  0.00     0.003 A 
HETATM   25  C3  UNL     1      25.911   6.726  49.766  1.00  0.00     0.007 A 
HETATM   26  C2  UNL     1      25.978   5.443  49.224  1.00  0.00    -0.060 A 
HETATM   27  C1  UNL     1      27.269   4.873  48.758  1.00  0.00     0.048 C 
HETATM   28  C21 UNL     1      24.842   4.683  49.116  1.00  0.00     0.036 A 
ENDBRANCH  20  22
ENDBRANCH   1  20
TORSDOF 6
ENDMDL
MODEL 8
REMARK VINA RESULT:      -7.7      1.569      2.252
REMARK  6 active torsions:
REMARK  status: ('A' for Active; 'I' for Inactive)
REMARK    1  A    between atoms: C6_6  and  N1_7 
REMARK    2  A    between atoms: N1_7  and  C7_8 
REMARK    3  A    between atoms: C10_13  and  C11_14 
REMARK    4  A    between atoms: C11_14  and  O1_15 
REMARK    5  A    between atoms: O1_15  and  C12_16 
REMARK    6  A    between atoms: C12_16  and  C13_17 
REMARK       I    between atoms: C13_17  and  N4_19 
ROOT
HETATM    1  C7  UNL     1      25.462   3.056  50.822  1.00  0.00     0.111 A 
HETATM    2  N2  UNL     1      24.567   3.944  51.181  1.00  0.00    -0.228 NA
HETATM    3  C8  UNL     1      24.677   5.252  50.636  1.00  0.00     0.235 A 
HETATM    4  N3  UNL     1      25.605   5.633  49.801  1.00  0.00    -0.246 NA
HETATM    5  C9  UNL     1      26.568   4.655  49.421  1.00  0.00     0.041 A 
HETATM    6  C10 UNL     1      27.507   5.078  48.563  1.00  0.00     0.026 C 
HETATM    7  C20 UNL     1      26.606   3.246  49.891  1.00  0.00     0.137 A 
ENDROOT
BRANCH   6   8
HETATM    8  C11 UNL     1      27.481   6.484  48.083  1.00  0.00     0.197 C 
BRANCH   8   9
HETATM    9  O1  UNL     1      28.696   6.865  47.503  1.00  0.00    -0.378 OA
BRANCH   9  10
HETATM   10  C12 UNL     1      29.474   7.371  48.510  1.00  0.00     0.270 C 
BRANCH  10  11
HETATM   11  C13 UNL     1      30.828   6.842  48.619  1.00  0.00     0.243 C 
HETATM   12  O2  UNL     1      30.836   5.621  48.974  1.00  0.00    -0.271 OA
HETATM   13  N4  UNL     1      32.144   7.334  48.432  1.00  0.00    -0.346 N 
HETATM   14  C14 UNL     1      33.062   6.222  48.730  1.00  0.00     0.127 C 
HETATM   15  C18 UNL     1      32.897   8.498  48.065  1.00  0.00     0.087 C 
HETATM   16  C15 UNL     1      34.445   6.811  48.533  1.00  0.00     0.026 C 
HETATM   17  C16 UNL     1      34.176   7.910  47.526  1.00  0.00     0.005 C 
HETATM   18  C17 UNL     1      33.983   7.247  46.187  1.00  0.00     0.012 C 
HETATM   19  C19 UNL     1      32.215   9.403  47.078  1.00  0.00     0.033 C 
ENDBRANCH  10  11
ENDBRANCH   9  10
ENDBRANCH   8   9
ENDBRANCH   6   8
BRANCH   1  20
HETATM   20  N1  UNL     1      25.293   1.754  51.410  1.00  0.00    -0.344 N 
HETATM   21  H7  UNL     1      24.394   1.218  51.278  1.00  0.00     0.167 HD
BRANCH  20  22
HETATM   22  C6  UNL     1      26.343   1.150  52.192  1.00  0.00     0.033 A 
HETATM   23  C5  UNL     1      26.283  -0.247  52.196  1.00  0.00     0.029 A 
HETATM   24  C4  UNL     1      27.214  -0.984  52.895  1.00  0.00     0.003 A 
HETATM   25  C3  UNL     1      28.202  -0.325  53.587  1.00  0.00     0.007 A 
HETATM   26  C2  UNL     1      28.265   1.068  53.586  1.00  0.00    -0.060 A 
HETATM   27  C1  UNL     1      29.331   1.788  54.332  1.00  0.00     0.048 C 
HETATM   28  C21 UNL     1      27.338   1.798  52.890  1.00  0.00     0.036 A 
ENDBRANCH  20  22
ENDBRANCH   1  20
TORSDOF 6
ENDMDL
MODEL 9
REMARK VINA RESULT:      -7.7      3.783      4.810
REMARK  6 active torsions:
REMARK  status: ('A' for Active; 'I' for Inactive)
REMARK    1  A    between atoms: C6_6  and  N1_7 
REMARK    2  A    between atoms: N1_7  and  C7_8 
REMARK    3  A    between atoms: C10_13  and  C11_14 
REMARK    4  A    between atoms: C11_14  and  O1_15 
REMARK    5  A    between atoms: O1_15  and  C12_16 
REMARK    6  A    between atoms: C12_16  and  C13_17 
REMARK       I    between atoms: C13_17  and  N4_19 
ROOT
HETATM    1  C7  UNL     1      25.324   2.720  51.042  1.00  0.00     0.111 A 
HETATM    2  N2  UNL     1      24.365   3.508  51.462  1.00  0.00    -0.228 NA
HETATM    3  C8  UNL     1      24.335   4.839  50.961  1.00  0.00     0.235 A 
HETATM    4  N3  UNL     1      25.195   5.332  50.112  1.00  0.00    -0.246 NA
HETATM    5  C9  UNL     1      26.230   4.461  49.667  1.00  0.00     0.041 A 
HETATM    6  C10 UNL     1      27.096   4.998  48.796  1.00  0.00     0.026 C 
HETATM    7  C20 UNL     1      26.413   3.046  50.083  1.00  0.00     0.137 A 
ENDROOT
BRANCH   6   8
HETATM    8  C11 UNL     1      26.926   6.411  48.370  1.00  0.00     0.197 C 
BRANCH   8   9
HETATM    9  O1  UNL     1      28.133   7.118  48.397  1.00  0.00    -0.378 OA
BRANCH   9  10
HETATM   10  C12 UNL     1      27.851   8.361  48.898  1.00  0.00     0.270 C 
BRANCH  10  11
HETATM   11  C13 UNL     1      28.969   9.290  49.006  1.00  0.00     0.243 C 
HETATM   12  O2  UNL     1      30.079   8.687  49.156  1.00  0.00    -0.271 OA
HETATM   13  N4  UNL     1      29.145  10.697  48.989  1.00  0.00    -0.346 N 
HETATM   14  C14 UNL     1      30.585  10.949  49.160  1.00  0.00     0.127 C 
HETATM   15  C18 UNL     1      28.446  11.943  48.868  1.00  0.00     0.087 C 
HETATM   16  C15 UNL     1      30.707  12.461  49.153  1.00  0.00     0.026 C 
HETATM   17  C16 UNL     1      29.506  12.867  48.325  1.00  0.00     0.005 C 
HETATM   18  C17 UNL     1      29.839  12.573  46.885  1.00  0.00     0.012 C 
HETATM   19  C19 UNL     1      27.219  11.896  48.001  1.00  0.00     0.033 C 
ENDBRANCH  10  11
ENDBRANCH   9  10
ENDBRANCH   8   9
ENDBRANCH   6   8
BRANCH   1  20
HETATM   20  N1  UNL     1      25.294   1.388  51.587  1.00  0.00    -0.344 N 
HETATM   21  H7  UNL     1      24.449   0.773  51.455  1.00  0.00     0.167 HD
BRANCH  20  22
HETATM   22  C6  UNL     1      26.416   0.864  52.324  1.00  0.00     0.033 A 
HETATM   23  C5  UNL     1      26.491  -0.533  52.280  1.00  0.00     0.029 A 
HETATM   24  C4  UNL     1      27.505  -1.199  52.932  1.00  0.00     0.003 A 
HETATM   25  C3  UNL     1      28.442  -0.471  53.626  1.00  0.00     0.007 A 
HETATM   26  C2  UNL     1      28.372   0.921  53.673  1.00  0.00    -0.060 A 
HETATM   27  C1  UNL     1      29.382   1.715  54.421  1.00  0.00     0.048 C 
HETATM   28  C21 UNL     1      27.362   1.581  53.023  1.00  0.00     0.036 A 
ENDBRANCH  20  22
ENDBRANCH   1  20
TORSDOF 6
ENDMDL
