MODEL 1
REMARK VINA RESULT:      -8.5      0.000      0.000
REMARK  2 active torsions:
REMARK  status: ('A' for Active; 'I' for Inactive)
REMARK    1  A    between atoms: O1_2  and  C2_3 
REMARK    2  A    between atoms: C17_23  and  N4_24 
REMARK       I    between atoms: N4_24  and  C18_25 
ROOT
HETATM    1  C2  UNL     1      25.653   2.878  51.233  1.00  0.00     0.094 C 
HETATM    2  C3  UNL     1      24.544   3.254  50.587  1.00  0.00     0.047 C 
HETATM    3  C4  UNL     1      23.090   3.246  50.808  1.00  0.00     0.074 A 
HETATM    4  C5  UNL     1      22.331   3.731  49.625  1.00  0.00     0.035 A 
HETATM    5  C6  UNL     1      21.500   4.719  49.340  1.00  0.00     0.071 A 
HETATM    6 CL1  UNL     1      20.747   5.036  47.807  1.00  0.00    -0.081 Cl
HETATM    7  C7  UNL     1      21.234   5.595  50.467  1.00  0.00     0.134 A 
HETATM    8  F1  UNL     1      20.424   6.663  50.426  1.00  0.00    -0.205 F 
HETATM    9  C8  UNL     1      21.864   5.260  51.577  1.00  0.00     0.020 A 
HETATM   10  C9  UNL     1      22.802   4.178  51.962  1.00  0.00     0.070 A 
HETATM   11  N1  UNL     1      22.550   1.954  51.146  1.00  0.00    -0.371 N 
HETATM   12  C10 UNL     1      22.772   0.973  52.182  1.00  0.00     0.063 A 
HETATM   13  C11 UNL     1      21.644   0.150  52.211  1.00  0.00     0.089 A 
HETATM   14  C12 UNL     1      20.559   0.383  51.306  1.00  0.00     0.103 C 
HETATM   15  N2  UNL     1      19.662   0.561  50.580  1.00  0.00    -0.191 NA
HETATM   16  C13 UNL     1      21.680  -0.855  53.152  1.00  0.00     0.141 A 
HETATM   17  N3  UNL     1      22.697  -1.075  54.000  1.00  0.00    -0.271 NA
HETATM   18  C14 UNL     1      23.805  -0.283  53.987  1.00  0.00     0.130 A 
HETATM   19  C15 UNL     1      23.805   0.726  53.067  1.00  0.00     0.012 A 
HETATM   20  C16 UNL     1      25.093   1.402  53.269  1.00  0.00     0.047 C 
HETATM   21  C17 UNL     1      25.818   2.254  52.534  1.00  0.00     0.071 C 
HETATM   22  H9  UNL     1      21.790   1.580  50.502  1.00  0.00     0.161 HD
ENDROOT
BRANCH  21  23
HETATM   23  N4  UNL     1      27.061   2.682  53.131  1.00  0.00    -0.296 N 
HETATM   24  C18 UNL     1      28.294   1.999  53.368  1.00  0.00     0.403 C 
HETATM   25  O2  UNL     1      28.277   0.789  52.976  1.00  0.00    -0.233 OA
HETATM   26  F2  UNL     1      29.263   2.735  53.961  1.00  0.00    -0.141 F 
HETATM   27  H13 UNL     1      26.815   3.693  53.354  1.00  0.00     0.171 HD
ENDBRANCH  21  23
BRANCH   1  28
HETATM   28  O1  UNL     1      26.775   3.141  50.517  1.00  0.00    -0.354 OA
HETATM   29  C1  UNL     1      27.023   3.862  49.384  1.00  0.00     0.210 C 
ENDBRANCH   1  28
TORSDOF 2
ENDMDL
MODEL 2
REMARK VINA RESULT:      -8.4      3.670      5.589
REMARK  2 active torsions:
REMARK  status: ('A' for Active; 'I' for Inactive)
REMARK    1  A    between atoms: O1_2  and  C2_3 
REMARK    2  A    between atoms: C17_23  and  N4_24 
REMARK       I    between atoms: N4_24  and  C18_25 
ROOT
HETATM    1  C2  UNL     1      20.812   2.427  51.989  1.00  0.00     0.094 C 
HETATM    2  C3  UNL     1      21.349   3.094  50.961  1.00  0.00     0.047 C 
HETATM    3  C4  UNL     1      22.478   2.949  50.031  1.00  0.00     0.074 A 
HETATM    4  C5  UNL     1      22.628   4.123  49.130  1.00  0.00     0.035 A 
HETATM    5  C6  UNL     1      22.595   4.362  47.830  1.00  0.00     0.071 A 
HETATM    6 CL1  UNL     1      22.815   5.898  47.049  1.00  0.00    -0.081 Cl
HETATM    7  C7  UNL     1      22.341   3.177  47.030  1.00  0.00     0.134 A 
HETATM    8  F1  UNL     1      22.264   3.166  45.690  1.00  0.00    -0.205 F 
HETATM    9  C8  UNL     1      22.185   2.070  47.730  1.00  0.00     0.020 A 
HETATM   10  C9  UNL     1      22.207   1.735  49.175  1.00  0.00     0.070 A 
HETATM   11  N1  UNL     1      23.753   2.755  50.673  1.00  0.00    -0.371 N 
HETATM   12  C10 UNL     1      24.316   1.799  51.598  1.00  0.00     0.063 A 
HETATM   13  C11 UNL     1      25.705   1.900  51.492  1.00  0.00     0.089 A 
HETATM   14  C12 UNL     1      26.291   2.836  50.580  1.00  0.00     0.103 C 
HETATM   15  N2  UNL     1      26.787   3.589  49.838  1.00  0.00    -0.191 NA
HETATM   16  C13 UNL     1      26.415   1.051  52.310  1.00  0.00     0.141 A 
HETATM   17  N3  UNL     1      25.867   0.174  53.166  1.00  0.00    -0.271 NA
HETATM   18  C14 UNL     1      24.515   0.061  53.283  1.00  0.00     0.130 A 
HETATM   19  C15 UNL     1      23.776   0.887  52.486  1.00  0.00     0.012 A 
HETATM   20  C16 UNL     1      22.383   0.561  52.815  1.00  0.00     0.047 C 
HETATM   21  C17 UNL     1      21.213   1.179  52.613  1.00  0.00     0.071 C 
HETATM   22  H9  UNL     1      24.508   3.467  50.442  1.00  0.00     0.161 HD
ENDROOT
BRANCH  21  23
HETATM   23  N4  UNL     1      20.051   0.484  53.116  1.00  0.00    -0.296 N 
HETATM   24  C18 UNL     1      18.974  -0.181  52.454  1.00  0.00     0.403 C 
HETATM   25  O2  UNL     1      19.069  -0.145  51.186  1.00  0.00    -0.233 OA
HETATM   26  F2  UNL     1      18.043  -0.732  53.267  1.00  0.00    -0.141 F 
HETATM   27  H13 UNL     1      20.215   0.593  54.162  1.00  0.00     0.171 HD
ENDBRANCH  21  23
BRANCH   1  28
HETATM   28  O1  UNL     1      19.722   3.059  52.494  1.00  0.00    -0.354 OA
HETATM   29  C1  UNL     1      18.585   3.569  51.934  1.00  0.00     0.210 C 
ENDBRANCH   1  28
TORSDOF 2
ENDMDL
MODEL 3
REMARK VINA RESULT:      -8.1      2.786      3.801
REMARK  2 active torsions:
REMARK  status: ('A' for Active; 'I' for Inactive)
REMARK    1  A    between atoms: O1_2  and  C2_3 
REMARK    2  A    between atoms: C17_23  and  N4_24 
REMARK       I    between atoms: N4_24  and  C18_25 
ROOT
HETATM    1  C2  UNL     1      25.765   2.172  51.671  1.00  0.00     0.094 C 
HETATM    2  C3  UNL     1      25.816   3.218  50.840  1.00  0.00     0.047 C 
HETATM    3  C4  UNL     1      24.878   4.122  50.158  1.00  0.00     0.074 A 
HETATM    4  C5  UNL     1      25.566   5.070  49.241  1.00  0.00     0.035 A 
HETATM    5  C6  UNL     1      25.703   6.379  49.120  1.00  0.00     0.071 A 
HETATM    6 CL1  UNL     1      26.603   7.222  47.896  1.00  0.00    -0.081 Cl
HETATM    7  C7  UNL     1      25.009   7.132  50.150  1.00  0.00     0.134 A 
HETATM    8  F1  UNL     1      24.998   8.471  50.237  1.00  0.00    -0.205 F 
HETATM    9  C8  UNL     1      24.365   6.387  51.027  1.00  0.00     0.020 A 
HETATM   10  C9  UNL     1      24.172   4.930  51.221  1.00  0.00     0.070 A 
HETATM   11  N1  UNL     1      23.869   3.451  49.379  1.00  0.00    -0.371 N 
HETATM   12  C10 UNL     1      22.835   2.477  49.635  1.00  0.00     0.063 A 
HETATM   13  C11 UNL     1      21.923   2.564  48.581  1.00  0.00     0.089 A 
HETATM   14  C12 UNL     1      22.134   3.505  47.523  1.00  0.00     0.103 C 
HETATM   15  N2  UNL     1      22.286   4.271  46.654  1.00  0.00    -0.191 NA
HETATM   16  C13 UNL     1      20.856   1.697  48.660  1.00  0.00     0.141 A 
HETATM   17  N3  UNL     1      20.657   0.814  49.651  1.00  0.00    -0.271 NA
HETATM   18  C14 UNL     1      21.535   0.714  50.688  1.00  0.00     0.130 A 
HETATM   19  C15 UNL     1      22.607   1.559  50.644  1.00  0.00     0.012 A 
HETATM   20  C16 UNL     1      23.371   1.239  51.857  1.00  0.00     0.047 C 
HETATM   21  C17 UNL     1      24.625   1.487  52.254  1.00  0.00     0.071 C 
HETATM   22  H9  UNL     1      23.831   3.700  48.345  1.00  0.00     0.161 HD
ENDROOT
BRANCH  21  23
HETATM   23  N4  UNL     1      24.973   0.975  53.559  1.00  0.00    -0.296 N 
HETATM   24  C18 UNL     1      25.461  -0.297  53.989  1.00  0.00     0.403 C 
HETATM   25  O2  UNL     1      25.611  -1.123  53.032  1.00  0.00    -0.233 OA
HETATM   26  F2  UNL     1      25.680  -0.418  55.318  1.00  0.00    -0.141 F 
HETATM   27  H13 UNL     1      24.769   1.836  54.150  1.00  0.00     0.171 HD
ENDBRANCH  21  23
BRANCH   1  28
HETATM   28  O1  UNL     1      27.002   1.713  51.990  1.00  0.00    -0.354 OA
HETATM   29  C1  UNL     1      28.016   2.197  52.767  1.00  0.00     0.210 C 
ENDBRANCH   1  28
TORSDOF 2
ENDMDL
MODEL 4
REMARK VINA RESULT:      -8.1      3.240      6.156
REMARK  2 active torsions:
REMARK  status: ('A' for Active; 'I' for Inactive)
REMARK    1  A    between atoms: O1_2  and  C2_3 
REMARK    2  A    between atoms: C17_23  and  N4_24 
REMARK       I    between atoms: N4_24  and  C18_25 
ROOT
HETATM    1  C2  UNL     1      24.231   2.869  51.458  1.00  0.00     0.094 C 
HETATM    2  C3  UNL     1      25.042   2.243  52.318  1.00  0.00     0.047 C 
HETATM    3  C4  UNL     1      25.185   0.909  52.918  1.00  0.00     0.074 A 
HETATM    4  C5  UNL     1      26.274   0.852  53.929  1.00  0.00     0.035 A 
HETATM    5  C6  UNL     1      27.409   0.197  54.100  1.00  0.00     0.071 A 
HETATM    6 CL1  UNL     1      28.508   0.351  55.437  1.00  0.00    -0.081 Cl
HETATM    7  C7  UNL     1      27.713  -0.726  53.021  1.00  0.00     0.134 A 
HETATM    8  F1  UNL     1      28.806  -1.503  52.970  1.00  0.00    -0.205 F 
HETATM    9  C8  UNL     1      26.812  -0.755  52.059  1.00  0.00     0.020 A 
HETATM   10  C9  UNL     1      25.529  -0.054  51.806  1.00  0.00     0.070 A 
HETATM   11  N1  UNL     1      23.993   0.420  53.564  1.00  0.00    -0.371 N 
HETATM   12  C10 UNL     1      22.629   0.162  53.170  1.00  0.00     0.063 A 
HETATM   13  C11 UNL     1      22.088  -0.707  54.121  1.00  0.00     0.089 A 
HETATM   14  C12 UNL     1      22.886  -1.158  55.221  1.00  0.00     0.103 C 
HETATM   15  N2  UNL     1      23.524  -1.540  56.121  1.00  0.00    -0.191 NA
HETATM   16  C13 UNL     1      20.777  -1.067  53.902  1.00  0.00     0.141 A 
HETATM   17  N3  UNL     1      20.027  -0.645  52.872  1.00  0.00    -0.271 NA
HETATM   18  C14 UNL     1      20.537   0.202  51.935  1.00  0.00     0.130 A 
HETATM   19  C15 UNL     1      21.836   0.581  52.118  1.00  0.00     0.012 A 
HETATM   20  C16 UNL     1      22.116   1.476  50.987  1.00  0.00     0.047 C 
HETATM   21  C17 UNL     1      23.070   2.381  50.736  1.00  0.00     0.071 C 
HETATM   22  H9  UNL     1      24.087   0.169  54.594  1.00  0.00     0.161 HD
ENDROOT
BRANCH  21  23
HETATM   23  N4  UNL     1      22.962   3.055  49.463  1.00  0.00    -0.296 N 
HETATM   24  C18 UNL     1      22.063   4.056  48.984  1.00  0.00     0.403 C 
HETATM   25  O2  UNL     1      21.200   4.408  49.851  1.00  0.00    -0.233 OA
HETATM   26  F2  UNL     1      22.268   4.461  47.709  1.00  0.00    -0.141 F 
HETATM   27  H13 UNL     1      23.773   2.596  48.948  1.00  0.00     0.171 HD
ENDBRANCH  21  23
BRANCH   1  28
HETATM   28  O1  UNL     1      24.593   4.162  51.264  1.00  0.00    -0.354 OA
HETATM   29  C1  UNL     1      24.103   5.355  51.712  1.00  0.00     0.210 C 
ENDBRANCH   1  28
TORSDOF 2
ENDMDL
MODEL 5
REMARK VINA RESULT:      -8.0      3.467      5.748
REMARK  2 active torsions:
REMARK  status: ('A' for Active; 'I' for Inactive)
REMARK    1  A    between atoms: O1_2  and  C2_3 
REMARK    2  A    between atoms: C17_23  and  N4_24 
REMARK       I    between atoms: N4_24  and  C18_25 
ROOT
HETATM    1  C2  UNL     1      20.657   2.289  52.074  1.00  0.00     0.094 C 
HETATM    2  C3  UNL     1      21.645   3.170  51.889  1.00  0.00     0.047 C 
HETATM    3  C4  UNL     1      23.098   3.157  51.661  1.00  0.00     0.074 A 
HETATM    4  C5  UNL     1      23.683   4.524  51.633  1.00  0.00     0.035 A 
HETATM    5  C6  UNL     1      24.338   5.284  50.773  1.00  0.00     0.071 A 
HETATM    6 CL1  UNL     1      24.913   6.901  51.041  1.00  0.00    -0.081 Cl
HETATM    7  C7  UNL     1      24.564   4.644  49.489  1.00  0.00     0.134 A 
HETATM    8  F1  UNL     1      25.207   5.212  48.457  1.00  0.00    -0.205 F 
HETATM    9  C8  UNL     1      24.079   3.420  49.399  1.00  0.00     0.020 A 
HETATM   10  C9  UNL     1      23.340   2.518  50.314  1.00  0.00     0.070 A 
HETATM   11  N1  UNL     1      23.843   2.408  52.640  1.00  0.00    -0.371 N 
HETATM   12  C10 UNL     1      23.848   1.048  53.126  1.00  0.00     0.063 A 
HETATM   13  C11 UNL     1      25.081   0.842  53.748  1.00  0.00     0.089 A 
HETATM   14  C12 UNL     1      26.046   1.899  53.801  1.00  0.00     0.103 C 
HETATM   15  N2  UNL     1      26.847   2.747  53.850  1.00  0.00    -0.191 NA
HETATM   16  C13 UNL     1      25.264  -0.416  54.276  1.00  0.00     0.141 A 
HETATM   17  N3  UNL     1      24.361  -1.408  54.227  1.00  0.00    -0.271 NA
HETATM   18  C14 UNL     1      23.152  -1.226  53.625  1.00  0.00     0.130 A 
HETATM   19  C15 UNL     1      22.934   0.011  53.088  1.00  0.00     0.012 A 
HETATM   20  C16 UNL     1      21.583  -0.073  52.520  1.00  0.00     0.047 C 
HETATM   21  C17 UNL     1      20.687   0.838  52.121  1.00  0.00     0.071 C 
HETATM   22  H9  UNL     1      24.596   2.943  53.168  1.00  0.00     0.161 HD
ENDROOT
BRANCH  21  23
HETATM   23  N4  UNL     1      19.446   0.303  51.611  1.00  0.00    -0.296 N 
HETATM   24  C18 UNL     1      18.425  -0.490  52.218  1.00  0.00     0.403 C 
HETATM   25  O2  UNL     1      18.668  -0.770  53.435  1.00  0.00    -0.233 OA
HETATM   26  F2  UNL     1      17.382  -0.810  51.417  1.00  0.00    -0.141 F 
HETATM   27  H13 UNL     1      19.486   0.677  50.615  1.00  0.00     0.171 HD
ENDBRANCH  21  23
BRANCH   1  28
HETATM   28  O1  UNL     1      19.455   2.897  52.241  1.00  0.00    -0.354 OA
HETATM   29  C1  UNL     1      18.694   3.712  51.453  1.00  0.00     0.210 C 
ENDBRANCH   1  28
TORSDOF 2
ENDMDL
MODEL 6
REMARK VINA RESULT:      -8.0      2.110      2.554
REMARK  2 active torsions:
REMARK  status: ('A' for Active; 'I' for Inactive)
REMARK    1  A    between atoms: O1_2  and  C2_3 
REMARK    2  A    between atoms: C17_23  and  N4_24 
REMARK       I    between atoms: N4_24  and  C18_25 
ROOT
HETATM    1  C2  UNL     1      25.244   0.310  52.383  1.00  0.00     0.094 C 
HETATM    2  C3  UNL     1      24.655   1.199  51.576  1.00  0.00     0.047 C 
HETATM    3  C4  UNL     1      23.404   1.970  51.523  1.00  0.00     0.074 A 
HETATM    4  C5  UNL     1      23.269   2.750  50.263  1.00  0.00     0.035 A 
HETATM    5  C6  UNL     1      23.158   4.019  49.912  1.00  0.00     0.071 A 
HETATM    6 CL1  UNL     1      23.009   4.642  48.297  1.00  0.00    -0.081 Cl
HETATM    7  C7  UNL     1      23.172   4.935  51.038  1.00  0.00     0.134 A 
HETATM    8  F1  UNL     1      23.071   6.269  50.936  1.00  0.00    -0.205 F 
HETATM    9  C8  UNL     1      23.294   4.350  52.214  1.00  0.00     0.020 A 
HETATM   10  C9  UNL     1      23.424   2.946  52.676  1.00  0.00     0.070 A 
HETATM   11  N1  UNL     1      22.211   1.173  51.647  1.00  0.00    -0.371 N 
HETATM   12  C10 UNL     1      21.671   0.255  52.622  1.00  0.00     0.063 A 
HETATM   13  C11 UNL     1      20.300   0.158  52.374  1.00  0.00     0.089 A 
HETATM   14  C12 UNL     1      19.707   0.905  51.306  1.00  0.00     0.103 C 
HETATM   15  N2  UNL     1      19.204   1.510  50.443  1.00  0.00    -0.191 NA
HETATM   16  C13 UNL     1      19.613  -0.685  53.219  1.00  0.00     0.141 A 
HETATM   17  N3  UNL     1      20.168  -1.386  54.220  1.00  0.00    -0.271 NA
HETATM   18  C14 UNL     1      21.503  -1.305  54.477  1.00  0.00     0.130 A 
HETATM   19  C15 UNL     1      22.218  -0.477  53.659  1.00  0.00     0.012 A 
HETATM   20  C16 UNL     1      23.598  -0.583  54.152  1.00  0.00     0.047 C 
HETATM   21  C17 UNL     1      24.792  -0.267  53.637  1.00  0.00     0.071 C 
HETATM   22  H9  UNL     1      21.515   1.242  50.845  1.00  0.00     0.161 HD
ENDROOT
BRANCH  21  23
HETATM   23  N4  UNL     1      25.925  -0.547  54.486  1.00  0.00    -0.296 N 
HETATM   24  C18 UNL     1      26.900   0.303  55.094  1.00  0.00     0.403 C 
HETATM   25  O2  UNL     1      26.725   1.534  54.825  1.00  0.00    -0.233 OA
HETATM   26  F2  UNL     1      27.836  -0.326  55.842  1.00  0.00    -0.141 F 
HETATM   27  H13 UNL     1      25.840  -1.606  54.555  1.00  0.00     0.171 HD
ENDBRANCH  21  23
BRANCH   1  28
HETATM   28  O1  UNL     1      26.454  -0.084  51.912  1.00  0.00    -0.354 OA
HETATM   29  C1  UNL     1      27.055  -1.300  51.758  1.00  0.00     0.210 C 
ENDBRANCH   1  28
TORSDOF 2
ENDMDL
MODEL 7
REMARK VINA RESULT:      -7.9      4.131      6.657
REMARK  2 active torsions:
REMARK  status: ('A' for Active; 'I' for Inactive)
REMARK    1  A    between atoms: O1_2  and  C2_3 
REMARK    2  A    between atoms: C17_23  and  N4_24 
REMARK       I    between atoms: N4_24  and  C18_25 
ROOT
HETATM    1  C2  UNL     1      18.596   1.744  51.660  1.00  0.00     0.094 C 
HETATM    2  C3  UNL     1      19.691   2.248  51.080  1.00  0.00     0.047 C 
HETATM    3  C4  UNL     1      21.064   1.821  50.773  1.00  0.00     0.074 A 
HETATM    4  C5  UNL     1      21.882   2.913  50.180  1.00  0.00     0.035 A 
HETATM    5  C6  UNL     1      22.528   3.140  49.050  1.00  0.00     0.071 A 
HETATM    6 CL1  UNL     1      23.428   4.567  48.634  1.00  0.00    -0.081 Cl
HETATM    7  C7  UNL     1      22.433   2.047  48.098  1.00  0.00     0.134 A 
HETATM    8  F1  UNL     1      23.005   2.042  46.885  1.00  0.00    -0.205 F 
HETATM    9  C8  UNL     1      21.721   1.019  48.519  1.00  0.00     0.020 A 
HETATM   10  C9  UNL     1      20.975   0.702  49.762  1.00  0.00     0.070 A 
HETATM   11  N1  UNL     1      21.798   1.324  51.909  1.00  0.00    -0.371 N 
HETATM   12  C10 UNL     1      21.624   0.268  52.878  1.00  0.00     0.063 A 
HETATM   13  C11 UNL     1      22.877   0.023  53.443  1.00  0.00     0.089 A 
HETATM   14  C12 UNL     1      24.018   0.776  53.017  1.00  0.00     0.103 C 
HETATM   15  N2  UNL     1      24.961   1.376  52.679  1.00  0.00    -0.191 NA
HETATM   16  C13 UNL     1      22.902  -0.967  54.399  1.00  0.00     0.141 A 
HETATM   17  N3  UNL     1      21.833  -1.674  54.799  1.00  0.00    -0.271 NA
HETATM   18  C14 UNL     1      20.602  -1.449  54.260  1.00  0.00     0.130 A 
HETATM   19  C15 UNL     1      20.538  -0.474  53.307  1.00  0.00     0.012 A 
HETATM   20  C16 UNL     1      19.124  -0.444  52.912  1.00  0.00     0.047 C 
HETATM   21  C17 UNL     1      18.363   0.442  52.258  1.00  0.00     0.071 C 
HETATM   22  H9  UNL     1      22.708   1.826  52.136  1.00  0.00     0.161 HD
ENDROOT
BRANCH  21  23
HETATM   23  N4  UNL     1      16.982   0.060  52.082  1.00  0.00    -0.296 N 
HETATM   24  C18 UNL     1      16.261  -0.428  50.949  1.00  0.00     0.403 C 
HETATM   25  O2  UNL     1      16.983  -0.540  49.908  1.00  0.00    -0.233 OA
HETATM   26  F2  UNL     1      14.950  -0.688  51.161  1.00  0.00    -0.141 F 
HETATM   27  H13 UNL     1      16.620   0.236  53.067  1.00  0.00     0.171 HD
ENDBRANCH  21  23
BRANCH   1  28
HETATM   28  O1  UNL     1      17.568   2.630  51.665  1.00  0.00    -0.354 OA
HETATM   29  C1  UNL     1      17.362   3.838  51.062  1.00  0.00     0.210 C 
ENDBRANCH   1  28
TORSDOF 2
ENDMDL
MODEL 8
REMARK VINA RESULT:      -7.9      7.047      9.441
REMARK  2 active torsions:
REMARK  status: ('A' for Active; 'I' for Inactive)
REMARK    1  A    between atoms: O1_2  and  C2_3 
REMARK    2  A    between atoms: C17_23  and  N4_24 
REMARK       I    between atoms: N4_24  and  C18_25 
ROOT
HETATM    1  C2  UNL     1      31.432   6.844  46.853  1.00  0.00     0.094 C 
HETATM    2  C3  UNL     1      31.003   8.110  46.838  1.00  0.00     0.047 C 
HETATM    3  C4  UNL     1      30.016   8.942  47.542  1.00  0.00     0.074 A 
HETATM    4  C5  UNL     1      29.928  10.318  46.984  1.00  0.00     0.035 A 
HETATM    5  C6  UNL     1      30.120  11.554  47.409  1.00  0.00     0.071 A 
HETATM    6 CL1  UNL     1      29.929  13.013  46.487  1.00  0.00    -0.081 Cl
HETATM    7  C7  UNL     1      30.539  11.630  48.798  1.00  0.00     0.134 A 
HETATM    8  F1  UNL     1      30.793  12.772  49.455  1.00  0.00    -0.205 F 
HETATM    9  C8  UNL     1      30.656  10.460  49.396  1.00  0.00     0.020 A 
HETATM   10  C9  UNL     1      30.459   9.050  48.982  1.00  0.00     0.070 A 
HETATM   11  N1  UNL     1      28.679   8.406  47.536  1.00  0.00    -0.371 N 
HETATM   12  C10 UNL     1      28.047   7.183  47.973  1.00  0.00     0.063 A 
HETATM   13  C11 UNL     1      26.682   7.449  48.089  1.00  0.00     0.089 A 
HETATM   14  C12 UNL     1      26.175   8.755  47.791  1.00  0.00     0.103 C 
HETATM   15  N2  UNL     1      25.744   9.815  47.557  1.00  0.00    -0.191 NA
HETATM   16  C13 UNL     1      25.913   6.384  48.501  1.00  0.00     0.141 A 
HETATM   17  N3  UNL     1      26.386   5.159  48.782  1.00  0.00    -0.271 NA
HETATM   18  C14 UNL     1      27.715   4.880  48.673  1.00  0.00     0.130 A 
HETATM   19  C15 UNL     1      28.510   5.913  48.267  1.00  0.00     0.012 A 
HETATM   20  C16 UNL     1      29.862   5.341  48.236  1.00  0.00     0.047 C 
HETATM   21  C17 UNL     1      31.016   5.719  47.671  1.00  0.00     0.071 C 
HETATM   22  H9  UNL     1      27.926   9.028  47.116  1.00  0.00     0.161 HD
ENDROOT
BRANCH  21  23
HETATM   23  N4  UNL     1      32.134   4.835  47.899  1.00  0.00    -0.296 N 
HETATM   24  C18 UNL     1      32.487   3.572  47.331  1.00  0.00     0.403 C 
HETATM   25  O2  UNL     1      31.650   3.163  46.465  1.00  0.00    -0.233 OA
HETATM   26  F2  UNL     1      33.634   3.024  47.796  1.00  0.00    -0.141 F 
HETATM   27  H13 UNL     1      32.661   5.398  48.633  1.00  0.00     0.171 HD
ENDBRANCH  21  23
BRANCH   1  28
HETATM   28  O1  UNL     1      32.412   6.626  45.939  1.00  0.00    -0.354 OA
HETATM   29  C1  UNL     1      32.432   6.561  44.575  1.00  0.00     0.210 C 
ENDBRANCH   1  28
TORSDOF 2
ENDMDL
MODEL 9
REMARK VINA RESULT:      -7.8      2.719      4.770
REMARK  2 active torsions:
REMARK  status: ('A' for Active; 'I' for Inactive)
REMARK    1  A    between atoms: O1_2  and  C2_3 
REMARK    2  A    between atoms: C17_23  and  N4_24 
REMARK       I    between atoms: N4_24  and  C18_25 
ROOT
HETATM    1  C2  UNL     1      24.567   1.241  52.496  1.00  0.00     0.094 C 
HETATM    2  C3  UNL     1      23.333   1.698  52.255  1.00  0.00     0.047 C 
HETATM    3  C4  UNL     1      22.611   2.388  51.176  1.00  0.00     0.074 A 
HETATM    4  C5  UNL     1      21.216   2.735  51.555  1.00  0.00     0.035 A 
HETATM    5  C6  UNL     1      19.995   2.451  51.136  1.00  0.00     0.071 A 
HETATM    6 CL1  UNL     1      18.503   3.033  51.809  1.00  0.00    -0.081 Cl
HETATM    7  C7  UNL     1      19.968   1.552  49.997  1.00  0.00     0.134 A 
HETATM    8  F1  UNL     1      18.849   1.121  49.394  1.00  0.00    -0.205 F 
HETATM    9  C8  UNL     1      21.158   1.171  49.575  1.00  0.00     0.020 A 
HETATM   10  C9  UNL     1      22.554   1.447  49.995  1.00  0.00     0.070 A 
HETATM   11  N1  UNL     1      23.236   3.608  50.731  1.00  0.00    -0.371 N 
HETATM   12  C10 UNL     1      24.521   3.980  50.189  1.00  0.00     0.063 A 
HETATM   13  C11 UNL     1      24.354   5.215  49.558  1.00  0.00     0.089 A 
HETATM   14  C12 UNL     1      23.071   5.852  49.549  1.00  0.00     0.103 C 
HETATM   15  N2  UNL     1      22.032   6.383  49.526  1.00  0.00    -0.191 NA
HETATM   16  C13 UNL     1      25.491   5.731  48.976  1.00  0.00     0.141 A 
HETATM   17  N3  UNL     1      26.694   5.135  48.984  1.00  0.00    -0.271 NA
HETATM   18  C14 UNL     1      26.876   3.931  49.594  1.00  0.00     0.130 A 
HETATM   19  C15 UNL     1      25.770   3.388  50.183  1.00  0.00     0.012 A 
HETATM   20  C16 UNL     1      26.247   2.121  50.752  1.00  0.00     0.047 C 
HETATM   21  C17 UNL     1      25.761   1.276  51.670  1.00  0.00     0.071 C 
HETATM   22  H9  UNL     1      22.643   4.489  50.796  1.00  0.00     0.161 HD
ENDROOT
BRANCH  21  23
HETATM   23  N4  UNL     1      26.579   0.117  51.937  1.00  0.00    -0.296 N 
HETATM   24  C18 UNL     1      27.690  -0.091  52.812  1.00  0.00     0.403 C 
HETATM   25  O2  UNL     1      28.006   0.951  53.471  1.00  0.00    -0.233 OA
HETATM   26  F2  UNL     1      28.217  -1.337  52.799  1.00  0.00    -0.141 F 
HETATM   27  H13 UNL     1      26.113  -0.585  51.286  1.00  0.00     0.171 HD
ENDBRANCH  21  23
BRANCH   1  28
HETATM   28  O1  UNL     1      24.667   0.661  53.719  1.00  0.00    -0.354 OA
HETATM   29  C1  UNL     1      24.208  -0.512  54.246  1.00  0.00     0.210 C 
ENDBRANCH   1  28
TORSDOF 2
ENDMDL
