MODEL 1
REMARK VINA RESULT:      -7.4      0.000      0.000
REMARK  4 active torsions:
REMARK  status: ('A' for Active; 'I' for Inactive)
REMARK    1  A    between atoms: C2_2  and  C3_4 
REMARK    2  A    between atoms: C4_5  and  C5_6 
REMARK    3  A    between atoms: N1_7  and  C6_8 
REMARK    4  A    between atoms: C14_19  and  N4_20 
ROOT
HETATM    1  C6  UNL     1      24.067   0.677  53.048  1.00  0.00     0.157 C 
HETATM    2  N2  UNL     1      24.358   1.418  52.069  1.00  0.00    -0.266 NA
HETATM    3  C7  UNL     1      23.289   1.471  51.098  1.00  0.00     0.187 C 
HETATM    4  C8  UNL     1      22.185   0.753  51.786  1.00  0.00    -0.035 C 
HETATM    5  C9  UNL     1      21.133   0.956  50.955  1.00  0.00     0.053 C 
HETATM    6  C10 UNL     1      19.717   0.686  50.766  1.00  0.00     0.000 C 
HETATM    7  C11 UNL     1      18.594   0.106  51.293  1.00  0.00     0.087 C 
HETATM    8  N3  UNL     1      19.370  -0.260  52.364  1.00  0.00    -0.337 N 
HETATM    9  C12 UNL     1      20.133  -0.592  53.456  1.00  0.00     0.227 C 
HETATM   10  O1  UNL     1      19.842   0.436  54.157  1.00  0.00    -0.273 OA
HETATM   11  C13 UNL     1      21.064  -1.434  54.218  1.00  0.00     0.160 C 
HETATM   12  C14 UNL     1      22.401  -0.725  54.003  1.00  0.00     0.026 C 
HETATM   13  C15 UNL     1      22.726   0.146  53.028  1.00  0.00     0.039 C 
HETATM   14  H11 UNL     1      19.720  -1.232  52.058  1.00  0.00     0.168 HD
ENDROOT
BRANCH   1  15
HETATM   15  N1  UNL     1      25.173   0.688  53.910  1.00  0.00    -0.241 NA
HETATM   16  C5  UNL     1      26.135  -0.170  53.860  1.00  0.00     0.119 C 
BRANCH  16  17
HETATM   17  C4  UNL     1      26.182  -1.240  52.908  1.00  0.00     0.021 C 
HETATM   18  C3  UNL     1      27.332  -1.801  52.579  1.00  0.00     0.018 C 
BRANCH  18  19
HETATM   19  C2  UNL     1      28.644  -1.441  53.101  1.00  0.00    -0.016 C 
HETATM   20  C1  UNL     1      29.725  -2.093  53.491  1.00  0.00     0.163 C 
HETATM   21 BR1  UNL     1      29.804  -0.018  53.607  1.00  0.00    -0.165 Br
ENDBRANCH  18  19
ENDBRANCH  16  17
ENDBRANCH   1  15
BRANCH  12  22
HETATM   22  N4  UNL     1      23.252  -1.163  55.028  1.00  0.00    -0.401 N 
HETATM   23  H14 UNL     1      23.879  -1.981  54.805  1.00  0.00     0.156 HD
HETATM   24  H15 UNL     1      23.301  -0.735  55.990  1.00  0.00     0.156 HD
ENDBRANCH  12  22
TORSDOF 4
ENDMDL
MODEL 2
REMARK VINA RESULT:      -7.4      3.259      4.409
REMARK  4 active torsions:
REMARK  status: ('A' for Active; 'I' for Inactive)
REMARK    1  A    between atoms: C2_2  and  C3_4 
REMARK    2  A    between atoms: C4_5  and  C5_6 
REMARK    3  A    between atoms: N1_7  and  C6_8 
REMARK    4  A    between atoms: C14_19  and  N4_20 
ROOT
HETATM    1  C6  UNL     1      23.224   1.275  51.454  1.00  0.00     0.157 C 
HETATM    2  N2  UNL     1      22.678   1.791  50.440  1.00  0.00    -0.266 NA
HETATM    3  C7  UNL     1      21.318   1.330  50.271  1.00  0.00     0.187 C 
HETATM    4  C8  UNL     1      21.073   0.563  51.519  1.00  0.00    -0.035 C 
HETATM    5  C9  UNL     1      19.748   0.283  51.442  1.00  0.00     0.053 C 
HETATM    6  C10 UNL     1      18.644  -0.365  52.130  1.00  0.00     0.000 C 
HETATM    7  C11 UNL     1      18.251  -1.049  53.249  1.00  0.00     0.087 C 
HETATM    8  N3  UNL     1      19.544  -0.928  53.692  1.00  0.00    -0.337 N 
HETATM    9  C12 UNL     1      20.827  -0.773  54.157  1.00  0.00     0.227 C 
HETATM   10  O1  UNL     1      20.613   0.296  54.825  1.00  0.00    -0.273 OA
HETATM   11  C13 UNL     1      22.243  -1.138  54.292  1.00  0.00     0.160 C 
HETATM   12  C14 UNL     1      22.921  -0.201  53.293  1.00  0.00     0.026 C 
HETATM   13  C15 UNL     1      22.358   0.445  52.253  1.00  0.00     0.039 C 
HETATM   14  H11 UNL     1      19.992  -1.829  53.308  1.00  0.00     0.168 HD
ENDROOT
BRANCH   1  15
HETATM   15  N1  UNL     1      24.533   1.777  51.509  1.00  0.00    -0.241 NA
HETATM   16  C5  UNL     1      24.878   2.820  52.186  1.00  0.00     0.119 C 
BRANCH  16  17
HETATM   17  C4  UNL     1      23.953   3.589  52.966  1.00  0.00     0.021 C 
HETATM   18  C3  UNL     1      23.505   4.752  52.527  1.00  0.00     0.018 C 
BRANCH  18  19
HETATM   19  C2  UNL     1      23.857   5.388  51.265  1.00  0.00    -0.016 C 
HETATM   20  C1  UNL     1      24.347   6.558  50.892  1.00  0.00     0.163 C 
HETATM   21 BR1  UNL     1      23.941   5.197  49.371  1.00  0.00    -0.165 Br
ENDBRANCH  18  19
ENDBRANCH  16  17
ENDBRANCH   1  15
BRANCH  12  22
HETATM   22  N4  UNL     1      24.273  -0.141  53.660  1.00  0.00    -0.401 N 
HETATM   23  H14 UNL     1      24.892   0.490  53.084  1.00  0.00     0.156 HD
HETATM   24  H15 UNL     1      24.701  -0.678  54.459  1.00  0.00     0.156 HD
ENDBRANCH  12  22
TORSDOF 4
ENDMDL
MODEL 3
REMARK VINA RESULT:      -7.2      2.056      3.224
REMARK  4 active torsions:
REMARK  status: ('A' for Active; 'I' for Inactive)
REMARK    1  A    between atoms: C2_2  and  C3_4 
REMARK    2  A    between atoms: C4_5  and  C5_6 
REMARK    3  A    between atoms: N1_7  and  C6_8 
REMARK    4  A    between atoms: C14_19  and  N4_20 
ROOT
HETATM    1  C6  UNL     1      25.506   1.034  52.312  1.00  0.00     0.157 C 
HETATM    2  N2  UNL     1      25.760  -0.152  52.661  1.00  0.00    -0.266 NA
HETATM    3  C7  UNL     1      24.611  -0.794  53.258  1.00  0.00     0.187 C 
HETATM    4  C8  UNL     1      23.524   0.191  53.023  1.00  0.00    -0.035 C 
HETATM    5  C9  UNL     1      22.418  -0.484  53.420  1.00  0.00     0.053 C 
HETATM    6  C10 UNL     1      20.973  -0.392  53.559  1.00  0.00     0.000 C 
HETATM    7  C11 UNL     1      19.864   0.385  53.363  1.00  0.00     0.087 C 
HETATM    8  N3  UNL     1      20.707   1.336  52.843  1.00  0.00    -0.337 N 
HETATM    9  C12 UNL     1      21.542   2.272  52.284  1.00  0.00     0.227 C 
HETATM   10  O1  UNL     1      21.399   1.892  51.073  1.00  0.00    -0.273 OA
HETATM   11  C13 UNL     1      22.472   3.408  52.316  1.00  0.00     0.160 C 
HETATM   12  C14 UNL     1      23.834   2.720  52.215  1.00  0.00     0.026 C 
HETATM   13  C15 UNL     1      24.132   1.436  52.487  1.00  0.00     0.039 C 
HETATM   14  H11 UNL     1      20.949   1.915  53.719  1.00  0.00     0.168 HD
ENDROOT
BRANCH   1  15
HETATM   15  N1  UNL     1      26.687   1.558  51.766  1.00  0.00    -0.241 NA
HETATM   16  C5  UNL     1      27.690   1.959  52.470  1.00  0.00     0.119 C 
BRANCH  16  17
HETATM   17  C4  UNL     1      27.712   1.912  53.903  1.00  0.00     0.021 C 
HETATM   18  C3  UNL     1      28.357   0.948  54.536  1.00  0.00     0.018 C 
BRANCH  18  19
HETATM   19  C2  UNL     1      29.098  -0.142  53.916  1.00  0.00    -0.016 C 
HETATM   20  C1  UNL     1      30.348  -0.351  53.540  1.00  0.00     0.163 C 
HETATM   21 BR1  UNL     1      29.010  -1.910  53.211  1.00  0.00    -0.165 Br
ENDBRANCH  18  19
ENDBRANCH  16  17
ENDBRANCH   1  15
BRANCH  12  22
HETATM   22  N4  UNL     1      24.741   3.700  51.785  1.00  0.00    -0.401 N 
HETATM   23  H14 UNL     1      25.173   3.559  50.833  1.00  0.00     0.156 HD
HETATM   24  H15 UNL     1      25.014   4.551  52.344  1.00  0.00     0.156 HD
ENDBRANCH  12  22
TORSDOF 4
ENDMDL
MODEL 4
REMARK VINA RESULT:      -7.2      2.029      2.904
REMARK  4 active torsions:
REMARK  status: ('A' for Active; 'I' for Inactive)
REMARK    1  A    between atoms: C2_2  and  C3_4 
REMARK    2  A    between atoms: C4_5  and  C5_6 
REMARK    3  A    between atoms: N1_7  and  C6_8 
REMARK    4  A    between atoms: C14_19  and  N4_20 
ROOT
HETATM    1  C6  UNL     1      24.860   1.321  52.714  1.00  0.00     0.157 C 
HETATM    2  N2  UNL     1      25.866   2.029  52.434  1.00  0.00    -0.266 NA
HETATM    3  C7  UNL     1      25.711   2.704  51.165  1.00  0.00     0.187 C 
HETATM    4  C8  UNL     1      24.298   2.414  50.809  1.00  0.00    -0.035 C 
HETATM    5  C9  UNL     1      24.101   3.190  49.715  1.00  0.00     0.053 C 
HETATM    6  C10 UNL     1      23.119   3.587  48.719  1.00  0.00     0.000 C 
HETATM    7  C11 UNL     1      21.826   3.457  48.288  1.00  0.00     0.087 C 
HETATM    8  N3  UNL     1      21.630   2.611  49.351  1.00  0.00    -0.337 N 
HETATM    9  C12 UNL     1      21.420   1.797  50.437  1.00  0.00     0.227 C 
HETATM   10  O1  UNL     1      20.989   2.708  51.222  1.00  0.00    -0.273 OA
HETATM   11  C13 UNL     1      21.429   0.518  51.158  1.00  0.00     0.160 C 
HETATM   12  C14 UNL     1      22.709   0.617  51.987  1.00  0.00     0.026 C 
HETATM   13  C15 UNL     1      23.767   1.424  51.780  1.00  0.00     0.039 C 
HETATM   14  H11 UNL     1      21.865   1.654  48.914  1.00  0.00     0.168 HD
ENDROOT
BRANCH   1  15
HETATM   15  N1  UNL     1      25.126   0.707  53.947  1.00  0.00    -0.241 NA
HETATM   16  C5  UNL     1      25.708  -0.438  54.072  1.00  0.00     0.119 C 
BRANCH  16  17
HETATM   17  C4  UNL     1      26.153  -1.216  52.953  1.00  0.00     0.021 C 
HETATM   18  C3  UNL     1      27.435  -1.272  52.638  1.00  0.00     0.018 C 
BRANCH  18  19
HETATM   19  C2  UNL     1      28.521  -0.596  53.334  1.00  0.00    -0.016 C 
HETATM   20  C1  UNL     1      29.735  -0.919  53.747  1.00  0.00     0.163 C 
HETATM   21 BR1  UNL     1      29.114   1.028  54.134  1.00  0.00    -0.165 Br
ENDBRANCH  18  19
ENDBRANCH  16  17
ENDBRANCH   1  15
BRANCH  12  22
HETATM   22  N4  UNL     1      22.582  -0.317  53.026  1.00  0.00    -0.401 N 
HETATM   23  H14 UNL     1      23.331  -1.056  53.092  1.00  0.00     0.156 HD
HETATM   24  H15 UNL     1      21.797  -0.326  53.730  1.00  0.00     0.156 HD
ENDBRANCH  12  22
TORSDOF 4
ENDMDL
MODEL 5
REMARK VINA RESULT:      -7.2      3.418      7.046
REMARK  4 active torsions:
REMARK  status: ('A' for Active; 'I' for Inactive)
REMARK    1  A    between atoms: C2_2  and  C3_4 
REMARK    2  A    between atoms: C4_5  and  C5_6 
REMARK    3  A    between atoms: N1_7  and  C6_8 
REMARK    4  A    between atoms: C14_19  and  N4_20 
ROOT
HETATM    1  C6  UNL     1      23.378   1.592  52.659  1.00  0.00     0.157 C 
HETATM    2  N2  UNL     1      22.809   0.565  53.123  1.00  0.00    -0.266 NA
HETATM    3  C7  UNL     1      23.743  -0.518  53.330  1.00  0.00     0.187 C 
HETATM    4  C8  UNL     1      25.058   0.127  53.078  1.00  0.00    -0.035 C 
HETATM    5  C9  UNL     1      25.939  -0.835  53.445  1.00  0.00     0.053 C 
HETATM    6  C10 UNL     1      27.354  -1.145  53.571  1.00  0.00     0.000 C 
HETATM    7  C11 UNL     1      28.633  -0.678  53.429  1.00  0.00     0.087 C 
HETATM    8  N3  UNL     1      28.079   0.512  53.026  1.00  0.00    -0.337 N 
HETATM    9  C12 UNL     1      27.529   1.716  52.661  1.00  0.00     0.227 C 
HETATM   10  O1  UNL     1      27.544   2.242  53.826  1.00  0.00    -0.273 OA
HETATM   11  C13 UNL     1      26.951   2.679  51.715  1.00  0.00     0.160 C 
HETATM   12  C14 UNL     1      25.451   2.526  51.965  1.00  0.00     0.026 C 
HETATM   13  C15 UNL     1      24.811   1.490  52.542  1.00  0.00     0.039 C 
HETATM   14  H11 UNL     1      28.020   0.374  51.958  1.00  0.00     0.168 HD
ENDROOT
BRANCH   1  15
HETATM   15  N1  UNL     1      22.382   2.563  52.484  1.00  0.00    -0.241 NA
HETATM   16  C5  UNL     1      21.695   2.706  51.401  1.00  0.00     0.119 C 
BRANCH  16  17
HETATM   17  C4  UNL     1      21.876   1.878  50.245  1.00  0.00     0.021 C 
HETATM   18  C3  UNL     1      21.009   0.923  49.957  1.00  0.00     0.018 C 
BRANCH  18  19
HETATM   19  C2  UNL     1      19.815   0.588  50.721  1.00  0.00    -0.016 C 
HETATM   20  C1  UNL     1      18.510   0.619  50.512  1.00  0.00     0.163 C 
HETATM   21 BR1  UNL     1      19.132  -0.070  52.374  1.00  0.00    -0.165 Br
ENDBRANCH  18  19
ENDBRANCH  16  17
ENDBRANCH   1  15
BRANCH  12  22
HETATM   22  N4  UNL     1      24.845   3.688  51.465  1.00  0.00    -0.401 N 
HETATM   23  H14 UNL     1      25.068   3.945  50.466  1.00  0.00     0.156 HD
HETATM   24  H15 UNL     1      24.194   4.308  52.014  1.00  0.00     0.156 HD
ENDBRANCH  12  22
TORSDOF 4
ENDMDL
MODEL 6
REMARK VINA RESULT:      -7.1      3.545      6.770
REMARK  4 active torsions:
REMARK  status: ('A' for Active; 'I' for Inactive)
REMARK    1  A    between atoms: C2_2  and  C3_4 
REMARK    2  A    between atoms: C4_5  and  C5_6 
REMARK    3  A    between atoms: N1_7  and  C6_8 
REMARK    4  A    between atoms: C14_19  and  N4_20 
ROOT
HETATM    1  C6  UNL     1      24.361   1.755  51.424  1.00  0.00     0.157 C 
HETATM    2  N2  UNL     1      25.061   2.592  50.791  1.00  0.00    -0.266 NA
HETATM    3  C7  UNL     1      26.379   2.735  51.369  1.00  0.00     0.187 C 
HETATM    4  C8  UNL     1      26.412   1.652  52.386  1.00  0.00    -0.035 C 
HETATM    5  C9  UNL     1      27.702   1.671  52.800  1.00  0.00     0.053 C 
HETATM    6  C10 UNL     1      28.657   1.037  53.695  1.00  0.00     0.000 C 
HETATM    7  C11 UNL     1      28.857   0.050  54.623  1.00  0.00     0.087 C 
HETATM    8  N3  UNL     1      27.542  -0.296  54.438  1.00  0.00    -0.337 N 
HETATM    9  C12 UNL     1      26.238  -0.671  54.224  1.00  0.00     0.227 C 
HETATM   10  O1  UNL     1      26.484  -1.557  53.337  1.00  0.00    -0.273 OA
HETATM   11  C13 UNL     1      24.787  -0.606  54.438  1.00  0.00     0.160 C 
HETATM   12  C14 UNL     1      24.317   0.236  53.252  1.00  0.00     0.026 C 
HETATM   13  C15 UNL     1      25.049   1.070  52.490  1.00  0.00     0.039 C 
HETATM   14  H11 UNL     1      27.051   0.301  55.189  1.00  0.00     0.168 HD
ENDROOT
BRANCH   1  15
HETATM   15  N1  UNL     1      23.110   1.711  50.791  1.00  0.00    -0.241 NA
HETATM   16  C5  UNL     1      22.121   2.483  51.093  1.00  0.00     0.119 C 
BRANCH  16  17
HETATM   17  C4  UNL     1      22.191   3.481  52.119  1.00  0.00     0.021 C 
HETATM   18  C3  UNL     1      22.327   4.759  51.808  1.00  0.00     0.018 C 
BRANCH  18  19
HETATM   19  C2  UNL     1      22.418   5.311  50.464  1.00  0.00    -0.016 C 
HETATM   20  C1  UNL     1      21.723   6.169  49.737  1.00  0.00     0.163 C 
HETATM   21 BR1  UNL     1      23.399   5.333  48.831  1.00  0.00    -0.165 Br
ENDBRANCH  18  19
ENDBRANCH  16  17
ENDBRANCH   1  15
BRANCH  12  22
HETATM   22  N4  UNL     1      22.945  -0.019  53.105  1.00  0.00    -0.401 N 
HETATM   23  H14 UNL     1      22.339   0.152  53.951  1.00  0.00     0.156 HD
HETATM   24  H15 UNL     1      22.492  -0.364  52.218  1.00  0.00     0.156 HD
ENDBRANCH  12  22
TORSDOF 4
ENDMDL
MODEL 7
REMARK VINA RESULT:      -6.9      4.166      7.096
REMARK  4 active torsions:
REMARK  status: ('A' for Active; 'I' for Inactive)
REMARK    1  A    between atoms: C2_2  and  C3_4 
REMARK    2  A    between atoms: C4_5  and  C5_6 
REMARK    3  A    between atoms: N1_7  and  C6_8 
REMARK    4  A    between atoms: C14_19  and  N4_20 
ROOT
HETATM    1  C6  UNL     1      24.055   2.953  50.393  1.00  0.00     0.157 C 
HETATM    2  N2  UNL     1      22.872   2.524  50.305  1.00  0.00    -0.266 NA
HETATM    3  C7  UNL     1      22.662   1.356  51.131  1.00  0.00     0.187 C 
HETATM    4  C8  UNL     1      23.927   1.270  51.907  1.00  0.00    -0.035 C 
HETATM    5  C9  UNL     1      23.661   0.288  52.803  1.00  0.00     0.053 C 
HETATM    6  C10 UNL     1      24.214  -0.465  53.917  1.00  0.00     0.000 C 
HETATM    7  C11 UNL     1      25.291  -0.638  54.744  1.00  0.00     0.087 C 
HETATM    8  N3  UNL     1      25.894   0.387  54.059  1.00  0.00    -0.337 N 
HETATM    9  C12 UNL     1      26.484   1.440  53.403  1.00  0.00     0.227 C 
HETATM   10  O1  UNL     1      26.101   2.351  54.213  1.00  0.00    -0.273 OA
HETATM   11  C13 UNL     1      27.266   2.063  52.327  1.00  0.00     0.160 C 
HETATM   12  C14 UNL     1      26.177   2.625  51.413  1.00  0.00     0.026 C 
HETATM   13  C15 UNL     1      24.882   2.263  51.351  1.00  0.00     0.039 C 
HETATM   14  H11 UNL     1      26.415  -0.147  53.281  1.00  0.00     0.168 HD
ENDROOT
BRANCH   1  15
HETATM   15  N1  UNL     1      24.146   4.067  49.545  1.00  0.00    -0.241 NA
HETATM   16  C5  UNL     1      23.916   5.280  49.919  1.00  0.00     0.119 C 
BRANCH  16  17
HETATM   17  C4  UNL     1      23.539   5.628  51.257  1.00  0.00     0.021 C 
HETATM   18  C3  UNL     1      22.279   5.894  51.555  1.00  0.00     0.018 C 
BRANCH  18  19
HETATM   19  C2  UNL     1      21.155   5.874  50.630  1.00  0.00    -0.016 C 
HETATM   20  C1  UNL     1      20.225   5.003  50.279  1.00  0.00     0.163 C 
HETATM   21 BR1  UNL     1      20.160   6.855  49.334  1.00  0.00    -0.165 Br
ENDBRANCH  18  19
ENDBRANCH  16  17
ENDBRANCH   1  15
BRANCH  12  22
HETATM   22  N4  UNL     1      26.792   3.608  50.623  1.00  0.00    -0.401 N 
HETATM   23  H14 UNL     1      27.480   4.243  51.108  1.00  0.00     0.156 HD
HETATM   24  H15 UNL     1      26.612   3.748  49.594  1.00  0.00     0.156 HD
ENDBRANCH  12  22
TORSDOF 4
ENDMDL
MODEL 8
REMARK VINA RESULT:      -6.7      3.646      6.625
REMARK  4 active torsions:
REMARK  status: ('A' for Active; 'I' for Inactive)
REMARK    1  A    between atoms: C2_2  and  C3_4 
REMARK    2  A    between atoms: C4_5  and  C5_6 
REMARK    3  A    between atoms: N1_7  and  C6_8 
REMARK    4  A    between atoms: C14_19  and  N4_20 
ROOT
HETATM    1  C6  UNL     1      21.069   2.422  52.478  1.00  0.00     0.157 C 
HETATM    2  N2  UNL     1      21.616   3.235  51.682  1.00  0.00    -0.266 NA
HETATM    3  C7  UNL     1      23.041   3.014  51.584  1.00  0.00     0.187 C 
HETATM    4  C8  UNL     1      23.232   1.753  52.346  1.00  0.00    -0.035 C 
HETATM    5  C9  UNL     1      24.531   1.452  52.105  1.00  0.00     0.053 C 
HETATM    6  C10 UNL     1      25.581   0.482  52.374  1.00  0.00     0.000 C 
HETATM    7  C11 UNL     1      25.903  -0.697  52.990  1.00  0.00     0.087 C 
HETATM    8  N3  UNL     1      24.597  -0.755  53.409  1.00  0.00    -0.337 N 
HETATM    9  C12 UNL     1      23.282  -0.836  53.795  1.00  0.00     0.227 C 
HETATM   10  O1  UNL     1      22.883  -1.545  52.809  1.00  0.00    -0.273 OA
HETATM   11  C13 UNL     1      22.136  -0.559  54.671  1.00  0.00     0.160 C 
HETATM   12  C14 UNL     1      21.433   0.585  53.941  1.00  0.00     0.026 C 
HETATM   13  C15 UNL     1      21.950   1.416  53.016  1.00  0.00     0.039 C 
HETATM   14  H11 UNL     1      24.651  -0.251  54.360  1.00  0.00     0.168 HD
ENDROOT
BRANCH   1  15
HETATM   15  N1  UNL     1      19.703   2.739  52.506  1.00  0.00    -0.241 NA
HETATM   16  C5  UNL     1      18.815   2.170  51.762  1.00  0.00     0.119 C 
BRANCH  16  17
HETATM   17  C4  UNL     1      19.130   1.140  50.816  1.00  0.00     0.021 C 
HETATM   18  C3  UNL     1      18.561  -0.050  50.901  1.00  0.00     0.018 C 
BRANCH  18  19
HETATM   19  C2  UNL     1      17.591  -0.469  51.903  1.00  0.00    -0.016 C 
HETATM   20  C1  UNL     1      17.582  -1.298  52.933  1.00  0.00     0.163 C 
HETATM   21 BR1  UNL     1      15.812  -0.273  52.555  1.00  0.00    -0.165 Br
ENDBRANCH  18  19
ENDBRANCH  16  17
ENDBRANCH   1  15
BRANCH  12  22
HETATM   22  N4  UNL     1      20.118   0.617  54.429  1.00  0.00    -0.401 N 
HETATM   23  H14 UNL     1      19.394   1.068  53.808  1.00  0.00     0.156 HD
HETATM   24  H15 UNL     1      19.815   0.228  55.361  1.00  0.00     0.156 HD
ENDBRANCH  12  22
TORSDOF 4
ENDMDL
MODEL 9
REMARK VINA RESULT:      -6.7      3.595      6.377
REMARK  4 active torsions:
REMARK  status: ('A' for Active; 'I' for Inactive)
REMARK    1  A    between atoms: C2_2  and  C3_4 
REMARK    2  A    between atoms: C4_5  and  C5_6 
REMARK    3  A    between atoms: N1_7  and  C6_8 
REMARK    4  A    between atoms: C14_19  and  N4_20 
ROOT
HETATM    1  C6  UNL     1      21.935   2.133  52.266  1.00  0.00     0.157 C 
HETATM    2  N2  UNL     1      22.394   3.236  51.857  1.00  0.00    -0.266 NA
HETATM    3  C7  UNL     1      23.725   3.483  52.362  1.00  0.00     0.187 C 
HETATM    4  C8  UNL     1      24.073   2.196  53.018  1.00  0.00    -0.035 C 
HETATM    5  C9  UNL     1      25.381   2.365  53.333  1.00  0.00     0.053 C 
HETATM    6  C10 UNL     1      26.535   1.721  53.940  1.00  0.00     0.000 C 
HETATM    7  C11 UNL     1      27.018   0.583  54.527  1.00  0.00     0.087 C 
HETATM    8  N3  UNL     1      25.773   0.039  54.337  1.00  0.00    -0.337 N 
HETATM    9  C12 UNL     1      24.540  -0.523  54.111  1.00  0.00     0.227 C 
HETATM   10  O1  UNL     1      24.830  -1.066  52.991  1.00  0.00    -0.273 OA
HETATM   11  C13 UNL     1      23.137  -0.818  54.430  1.00  0.00     0.160 C 
HETATM   12  C14 UNL     1      22.385   0.200  53.574  1.00  0.00     0.026 C 
HETATM   13  C15 UNL     1      22.859   1.341  53.039  1.00  0.00     0.039 C 
HETATM   14  H11 UNL     1      25.279   0.296  55.260  1.00  0.00     0.168 HD
ENDROOT
BRANCH   1  15
HETATM   15  N1  UNL     1      20.645   2.008  51.731  1.00  0.00    -0.241 NA
HETATM   16  C5  UNL     1      20.379   1.413  50.618  1.00  0.00     0.119 C 
BRANCH  16  17
HETATM   17  C4  UNL     1      21.383   0.805  49.796  1.00  0.00     0.021 C 
HETATM   18  C3  UNL     1      21.719   1.341  48.635  1.00  0.00     0.018 C 
BRANCH  18  19
HETATM   19  C2  UNL     1      21.157   2.551  48.053  1.00  0.00    -0.016 C 
HETATM   20  C1  UNL     1      21.506   3.824  47.980  1.00  0.00     0.163 C 
HETATM   21 BR1  UNL     1      19.715   3.303  47.060  1.00  0.00    -0.165 Br
ENDBRANCH  18  19
ENDBRANCH  16  17
ENDBRANCH   1  15
BRANCH  12  22
HETATM   22  N4  UNL     1      21.072  -0.280  53.450  1.00  0.00    -0.401 N 
HETATM   23  H14 UNL     1      20.916  -1.297  53.686  1.00  0.00     0.156 HD
HETATM   24  H15 UNL     1      20.249   0.300  53.140  1.00  0.00     0.156 HD
ENDBRANCH  12  22
TORSDOF 4
ENDMDL
