MODEL 1
REMARK VINA RESULT:      -7.7      0.000      0.000
REMARK  2 active torsions:
REMARK  status: ('A' for Active; 'I' for Inactive)
REMARK    1  A    between atoms: C4_4  and  O1_5 
REMARK    2  A    between atoms: C6_7  and  C8_9 
ROOT
HETATM    1  C1  UNL     1      28.510   1.800  53.197  1.00  0.00     0.062 C 
HETATM    2  C2  UNL     1      27.161   1.832  53.253  1.00  0.00     0.007 C 
HETATM    3  C3  UNL     1      26.639   2.428  52.047  1.00  0.00     0.058 C 
HETATM    4  C4  UNL     1      25.469   2.723  51.548  1.00  0.00     0.061 C 
HETATM    5  C6  UNL     1      24.176   2.444  52.300  1.00  0.00     0.044 C 
HETATM    6  C7  UNL     1      23.711   3.823  52.721  1.00  0.00     0.029 C 
HETATM    7  C17 UNL     1      24.521   1.556  53.456  1.00  0.00     0.187 C 
HETATM    8  O2  UNL     1      24.945   0.311  52.972  1.00  0.00    -0.388 OA
HETATM    9  C18 UNL     1      25.460  -0.471  53.970  1.00  0.00     0.187 C 
HETATM   10  C19 UNL     1      26.884  -0.150  54.274  1.00  0.00     0.145 C 
HETATM   11  N1  UNL     1      27.188   1.211  54.519  1.00  0.00    -0.391 N 
HETATM   12  H29 UNL     1      27.390   1.724  55.405  1.00  0.00     0.159 HD
ENDROOT
BRANCH   5  13
HETATM   13  C8  UNL     1      23.199   1.806  51.380  1.00  0.00    -0.005 C 
HETATM   14  C9  UNL     1      22.102   1.087  51.576  1.00  0.00    -0.075 C 
HETATM   15  C10 UNL     1      21.504   0.694  52.887  1.00  0.00     0.061 C 
HETATM   16  C15 UNL     1      21.266   0.561  50.459  1.00  0.00     0.018 C 
HETATM   17  C11 UNL     1      20.417   1.732  53.078  1.00  0.00    -0.026 C 
HETATM   18  C12 UNL     1      19.690   1.815  51.958  1.00  0.00    -0.025 C 
HETATM   19  C13 UNL     1      19.851   1.060  50.707  1.00  0.00     0.011 C 
HETATM   20  C14 UNL     1      19.325   1.861  49.535  1.00  0.00     0.015 C 
HETATM   21  C16 UNL     1      21.800   0.983  49.135  1.00  0.00     0.015 C 
ENDBRANCH   5  13
BRANCH   4  22
HETATM   22  O1  UNL     1      25.126   3.306  50.349  1.00  0.00    -0.359 OA
HETATM   23  C5  UNL     1      25.980   4.202  49.696  1.00  0.00     0.209 C 
ENDBRANCH   4  22
TORSDOF 2
ENDMDL
MODEL 2
REMARK VINA RESULT:      -7.3      2.883      4.647
REMARK  2 active torsions:
REMARK  status: ('A' for Active; 'I' for Inactive)
REMARK    1  A    between atoms: C4_4  and  O1_5 
REMARK    2  A    between atoms: C6_7  and  C8_9 
ROOT
HETATM    1  C1  UNL     1      25.171   8.408  49.696  1.00  0.00     0.062 C 
HETATM    2  C2  UNL     1      25.020   7.159  50.191  1.00  0.00     0.007 C 
HETATM    3  C3  UNL     1      23.619   6.888  50.404  1.00  0.00     0.058 C 
HETATM    4  C4  UNL     1      22.888   5.903  50.850  1.00  0.00     0.061 C 
HETATM    5  C6  UNL     1      23.498   4.594  51.330  1.00  0.00     0.044 C 
HETATM    6  C7  UNL     1      23.319   4.655  52.833  1.00  0.00     0.029 C 
HETATM    7  C17 UNL     1      24.935   4.596  50.904  1.00  0.00     0.187 C 
HETATM    8  O2  UNL     1      25.003   4.545  49.505  1.00  0.00    -0.388 OA
HETATM    9  C18 UNL     1      26.279   4.745  49.054  1.00  0.00     0.187 C 
HETATM   10  C19 UNL     1      26.644   6.188  48.978  1.00  0.00     0.145 C 
HETATM   11  N1  UNL     1      26.416   6.960  50.143  1.00  0.00    -0.391 N 
HETATM   12  H29 UNL     1      27.073   7.332  50.863  1.00  0.00     0.159 HD
ENDROOT
BRANCH   5  13
HETATM   13  C8  UNL     1      22.746   3.455  50.744  1.00  0.00    -0.005 C 
HETATM   14  C9  UNL     1      22.850   2.139  50.867  1.00  0.00    -0.075 C 
HETATM   15  C10 UNL     1      23.837   1.386  51.697  1.00  0.00     0.061 C 
HETATM   16  C15 UNL     1      21.942   1.184  50.169  1.00  0.00     0.018 C 
HETATM   17  C11 UNL     1      23.042   1.072  52.949  1.00  0.00    -0.026 C 
HETATM   18  C12 UNL     1      21.861   0.551  52.597  1.00  0.00    -0.025 C 
HETATM   19  C13 UNL     1      21.343   0.293  51.246  1.00  0.00     0.011 C 
HETATM   20  C14 UNL     1      19.830   0.346  51.241  1.00  0.00     0.015 C 
HETATM   21  C16 UNL     1      20.906   1.900  49.376  1.00  0.00     0.015 C 
ENDBRANCH   5  13
BRANCH   4  22
HETATM   22  O1  UNL     1      21.523   5.793  50.995  1.00  0.00    -0.359 OA
HETATM   23  C5  UNL     1      20.639   6.312  50.042  1.00  0.00     0.209 C 
ENDBRANCH   4  22
TORSDOF 2
ENDMDL
MODEL 3
REMARK VINA RESULT:      -7.0      7.970     11.944
REMARK  2 active torsions:
REMARK  status: ('A' for Active; 'I' for Inactive)
REMARK    1  A    between atoms: C4_4  and  O1_5 
REMARK    2  A    between atoms: C6_7  and  C8_9 
ROOT
HETATM    1  C1  UNL     1      28.357  10.188  49.128  1.00  0.00     0.062 C 
HETATM    2  C2  UNL     1      29.546   9.545  49.111  1.00  0.00     0.007 C 
HETATM    3  C3  UNL     1      29.349   8.170  48.721  1.00  0.00     0.058 C 
HETATM    4  C4  UNL     1      30.085   7.107  48.542  1.00  0.00     0.061 C 
HETATM    5  C6  UNL     1      31.590   7.119  48.759  1.00  0.00     0.044 C 
HETATM    6  C7  UNL     1      31.766   6.327  50.039  1.00  0.00     0.029 C 
HETATM    7  C17 UNL     1      32.006   8.553  48.888  1.00  0.00     0.187 C 
HETATM    8  O2  UNL     1      31.803   9.205  47.664  1.00  0.00    -0.388 OA
HETATM    9  C18 UNL     1      31.976  10.557  47.778  1.00  0.00     0.187 C 
HETATM   10  C19 UNL     1      30.765  11.251  48.301  1.00  0.00     0.145 C 
HETATM   11  N1  UNL     1      30.205  10.733  49.494  1.00  0.00    -0.391 N 
HETATM   12  H29 UNL     1      30.233  11.081  50.477  1.00  0.00     0.159 HD
ENDROOT
BRANCH   5  13
HETATM   13  C8  UNL     1      32.259   6.447  47.616  1.00  0.00    -0.005 C 
HETATM   14  C9  UNL     1      33.528   6.202  47.321  1.00  0.00    -0.075 C 
HETATM   15  C10 UNL     1      34.729   6.570  48.131  1.00  0.00     0.061 C 
HETATM   16  C15 UNL     1      33.952   5.478  46.088  1.00  0.00     0.018 C 
HETATM   17  C11 UNL     1      35.034   5.283  48.870  1.00  0.00    -0.026 C 
HETATM   18  C12 UNL     1      35.045   4.269  47.997  1.00  0.00    -0.025 C 
HETATM   19  C13 UNL     1      34.812   4.311  46.546  1.00  0.00     0.011 C 
HETATM   20  C14 UNL     1      34.265   2.986  46.061  1.00  0.00     0.015 C 
HETATM   21  C16 UNL     1      32.777   5.044  45.283  1.00  0.00     0.015 C 
ENDBRANCH   5  13
BRANCH   4  22
HETATM   22  O1  UNL     1      29.738   5.832  48.156  1.00  0.00    -0.359 OA
HETATM   23  C5  UNL     1      28.448   5.328  48.358  1.00  0.00     0.209 C 
ENDBRANCH   4  22
TORSDOF 2
ENDMDL
MODEL 4
REMARK VINA RESULT:      -6.9      2.261      5.208
REMARK  2 active torsions:
REMARK  status: ('A' for Active; 'I' for Inactive)
REMARK    1  A    between atoms: C4_4  and  O1_5 
REMARK    2  A    between atoms: C6_7  and  C8_9 
ROOT
HETATM    1  C1  UNL     1      22.663  -0.733  53.935  1.00  0.00     0.062 C 
HETATM    2  C2  UNL     1      22.680   0.462  53.303  1.00  0.00     0.007 C 
HETATM    3  C3  UNL     1      24.006   1.027  53.369  1.00  0.00     0.058 C 
HETATM    4  C4  UNL     1      24.610   2.112  52.966  1.00  0.00     0.061 C 
HETATM    5  C6  UNL     1      23.880   3.208  52.204  1.00  0.00     0.044 C 
HETATM    6  C7  UNL     1      23.772   4.327  53.218  1.00  0.00     0.029 C 
HETATM    7  C17 UNL     1      22.551   2.650  51.793  1.00  0.00     0.187 C 
HETATM    8  O2  UNL     1      22.750   1.621  50.863  1.00  0.00    -0.388 OA
HETATM    9  C18 UNL     1      21.589   0.944  50.604  1.00  0.00     0.187 C 
HETATM   10  C19 UNL     1      21.289  -0.097  51.628  1.00  0.00     0.145 C 
HETATM   11  N1  UNL     1      21.313   0.323  52.981  1.00  0.00    -0.391 N 
HETATM   12  H29 UNL     1      20.543   0.517  53.657  1.00  0.00     0.159 HD
ENDROOT
BRANCH   5  13
HETATM   13  C8  UNL     1      24.696   3.621  51.033  1.00  0.00    -0.005 C 
HETATM   14  C9  UNL     1      24.440   4.360  49.962  1.00  0.00    -0.075 C 
HETATM   15  C10 UNL     1      23.151   5.032  49.618  1.00  0.00     0.061 C 
HETATM   16  C15 UNL     1      25.458   4.648  48.912  1.00  0.00     0.018 C 
HETATM   17  C11 UNL     1      23.384   6.452  50.091  1.00  0.00    -0.026 C 
HETATM   18  C12 UNL     1      24.561   6.882  49.621  1.00  0.00    -0.025 C 
HETATM   19  C13 UNL     1      25.527   6.160  48.779  1.00  0.00     0.011 C 
HETATM   20  C14 UNL     1      26.928   6.682  49.017  1.00  0.00     0.015 C 
HETATM   21  C16 UNL     1      26.774   4.041  49.250  1.00  0.00     0.015 C 
ENDBRANCH   5  13
BRANCH   4  22
HETATM   22  O1  UNL     1      25.918   2.516  53.109  1.00  0.00    -0.359 OA
HETATM   23  C5  UNL     1      26.946   1.601  53.361  1.00  0.00     0.209 C 
ENDBRANCH   4  22
TORSDOF 2
ENDMDL
MODEL 5
REMARK VINA RESULT:      -6.8      2.737      4.360
REMARK  2 active torsions:
REMARK  status: ('A' for Active; 'I' for Inactive)
REMARK    1  A    between atoms: C4_4  and  O1_5 
REMARK    2  A    between atoms: C6_7  and  C8_9 
ROOT
HETATM    1  C1  UNL     1      22.525  -1.262  54.860  1.00  0.00     0.062 C 
HETATM    2  C2  UNL     1      22.062  -0.243  54.103  1.00  0.00     0.007 C 
HETATM    3  C3  UNL     1      23.090   0.188  53.188  1.00  0.00     0.058 C 
HETATM    4  C4  UNL     1      23.231   1.093  52.258  1.00  0.00     0.061 C 
HETATM    5  C6  UNL     1      22.116   2.062  51.895  1.00  0.00     0.044 C 
HETATM    6  C7  UNL     1      22.601   3.382  52.456  1.00  0.00     0.029 C 
HETATM    7  C17 UNL     1      20.866   1.561  52.554  1.00  0.00     0.187 C 
HETATM    8  O2  UNL     1      20.498   0.338  51.977  1.00  0.00    -0.388 OA
HETATM    9  C18 UNL     1      19.481  -0.261  52.671  1.00  0.00     0.187 C 
HETATM   10  C19 UNL     1      19.965  -1.016  53.863  1.00  0.00     0.145 C 
HETATM   11  N1  UNL     1      20.812  -0.314  54.755  1.00  0.00    -0.391 N 
HETATM   12  H29 UNL     1      20.632   0.100  55.695  1.00  0.00     0.159 HD
ENDROOT
BRANCH   5  13
HETATM   13  C8  UNL     1      21.978   2.124  50.417  1.00  0.00    -0.005 C 
HETATM   14  C9  UNL     1      21.043   2.608  49.611  1.00  0.00    -0.075 C 
HETATM   15  C10 UNL     1      19.768   3.278  50.009  1.00  0.00     0.061 C 
HETATM   16  C15 UNL     1      21.149   2.562  48.124  1.00  0.00     0.018 C 
HETATM   17  C11 UNL     1      20.117   4.747  49.888  1.00  0.00    -0.026 C 
HETATM   18  C12 UNL     1      20.696   4.963  48.701  1.00  0.00    -0.025 C 
HETATM   19  C13 UNL     1      20.983   3.992  47.635  1.00  0.00     0.011 C 
HETATM   20  C14 UNL     1      22.170   4.446  46.813  1.00  0.00     0.015 C 
HETATM   21  C16 UNL     1      22.435   1.953  47.690  1.00  0.00     0.015 C 
ENDBRANCH   5  13
BRANCH   4  22
HETATM   22  O1  UNL     1      24.306   1.387  51.449  1.00  0.00    -0.359 OA
HETATM   23  C5  UNL     1      25.619   1.355  51.930  1.00  0.00     0.209 C 
ENDBRANCH   4  22
TORSDOF 2
ENDMDL
MODEL 6
REMARK VINA RESULT:      -6.6      3.436      5.385
REMARK  2 active torsions:
REMARK  status: ('A' for Active; 'I' for Inactive)
REMARK    1  A    between atoms: C4_4  and  O1_5 
REMARK    2  A    between atoms: C6_7  and  C8_9 
ROOT
HETATM    1  C1  UNL     1      27.325   8.483  47.647  1.00  0.00     0.062 C 
HETATM    2  C2  UNL     1      26.728   7.510  48.369  1.00  0.00     0.007 C 
HETATM    3  C3  UNL     1      25.335   7.421  48.004  1.00  0.00     0.058 C 
HETATM    4  C4  UNL     1      24.295   6.710  48.346  1.00  0.00     0.061 C 
HETATM    5  C6  UNL     1      24.370   5.628  49.414  1.00  0.00     0.044 C 
HETATM    6  C7  UNL     1      23.626   6.239  50.583  1.00  0.00     0.029 C 
HETATM    7  C17 UNL     1      25.822   5.388  49.697  1.00  0.00     0.187 C 
HETATM    8  O2  UNL     1      26.427   4.831  48.561  1.00  0.00    -0.388 OA
HETATM    9  C18 UNL     1      27.788   4.775  48.692  1.00  0.00     0.187 C 
HETATM   10  C19 UNL     1      28.452   6.068  48.360  1.00  0.00     0.145 C 
HETATM   11  N1  UNL     1      27.950   7.221  49.012  1.00  0.00    -0.391 N 
HETATM   12  H29 UNL     1      28.330   7.787  49.801  1.00  0.00     0.159 HD
ENDROOT
BRANCH   5  13
HETATM   13  C8  UNL     1      23.688   4.403  48.923  1.00  0.00    -0.005 C 
HETATM   14  C9  UNL     1      23.579   3.171  49.401  1.00  0.00    -0.075 C 
HETATM   15  C10 UNL     1      24.165   2.640  50.669  1.00  0.00     0.061 C 
HETATM   16  C15 UNL     1      22.808   2.098  48.711  1.00  0.00     0.018 C 
HETATM   17  C11 UNL     1      22.996   2.724  51.630  1.00  0.00    -0.026 C 
HETATM   18  C12 UNL     1      21.918   2.175  51.057  1.00  0.00    -0.025 C 
HETATM   19  C13 UNL     1      21.803   1.570  49.722  1.00  0.00     0.011 C 
HETATM   20  C14 UNL     1      20.381   1.683  49.213  1.00  0.00     0.015 C 
HETATM   21  C16 UNL     1      22.161   2.605  47.471  1.00  0.00     0.015 C 
ENDBRANCH   5  13
BRANCH   4  22
HETATM   22  O1  UNL     1      22.996   6.744  47.891  1.00  0.00    -0.359 OA
HETATM   23  C5  UNL     1      22.600   7.606  46.862  1.00  0.00     0.209 C 
ENDBRANCH   4  22
TORSDOF 2
ENDMDL
MODEL 7
REMARK VINA RESULT:      -6.4      8.518     12.011
REMARK  2 active torsions:
REMARK  status: ('A' for Active; 'I' for Inactive)
REMARK    1  A    between atoms: C4_4  and  O1_5 
REMARK    2  A    between atoms: C6_7  and  C8_9 
ROOT
HETATM    1  C1  UNL     1      33.083   3.074  47.680  1.00  0.00     0.062 C 
HETATM    2  C2  UNL     1      33.103   4.392  47.385  1.00  0.00     0.007 C 
HETATM    3  C3  UNL     1      31.764   4.925  47.448  1.00  0.00     0.058 C 
HETATM    4  C4  UNL     1      31.177   6.076  47.265  1.00  0.00     0.061 C 
HETATM    5  C6  UNL     1      31.950   7.324  46.864  1.00  0.00     0.044 C 
HETATM    6  C7  UNL     1      31.551   7.534  45.418  1.00  0.00     0.029 C 
HETATM    7  C17 UNL     1      33.407   7.014  47.038  1.00  0.00     0.187 C 
HETATM    8  O2  UNL     1      33.680   6.830  48.400  1.00  0.00    -0.388 OA
HETATM    9  C18 UNL     1      34.946   6.351  48.600  1.00  0.00     0.187 C 
HETATM   10  C19 UNL     1      35.037   4.873  48.424  1.00  0.00     0.145 C 
HETATM   11  N1  UNL     1      34.504   4.345  47.223  1.00  0.00    -0.391 N 
HETATM   12  H29 UNL     1      34.969   3.988  46.360  1.00  0.00     0.159 HD
ENDROOT
BRANCH   5  13
HETATM   13  C8  UNL     1      31.519   8.464  47.712  1.00  0.00    -0.005 C 
HETATM   14  C9  UNL     1      31.933   9.719  47.826  1.00  0.00    -0.075 C 
HETATM   15  C10 UNL     1      33.039  10.377  47.067  1.00  0.00     0.061 C 
HETATM   16  C15 UNL     1      31.310  10.698  48.763  1.00  0.00     0.018 C 
HETATM   17  C11 UNL     1      32.295  11.107  45.967  1.00  0.00    -0.026 C 
HETATM   18  C12 UNL     1      31.288  11.804  46.509  1.00  0.00    -0.025 C 
HETATM   19  C13 UNL     1      30.902  11.899  47.924  1.00  0.00     0.011 C 
HETATM   20  C14 UNL     1      29.422  12.194  48.048  1.00  0.00     0.015 C 
HETATM   21  C16 UNL     1      30.164  10.094  49.496  1.00  0.00     0.015 C 
ENDBRANCH   5  13
BRANCH   4  22
HETATM   22  O1  UNL     1      29.851   6.434  47.367  1.00  0.00    -0.359 OA
HETATM   23  C5  UNL     1      28.956   5.714  48.166  1.00  0.00     0.209 C 
ENDBRANCH   4  22
TORSDOF 2
ENDMDL
MODEL 8
REMARK VINA RESULT:      -6.4      3.454      6.058
REMARK  2 active torsions:
REMARK  status: ('A' for Active; 'I' for Inactive)
REMARK    1  A    between atoms: C4_4  and  O1_5 
REMARK    2  A    between atoms: C6_7  and  C8_9 
ROOT
HETATM    1  C1  UNL     1      20.180   6.398  47.980  1.00  0.00     0.062 C 
HETATM    2  C2  UNL     1      20.931   5.610  48.780  1.00  0.00     0.007 C 
HETATM    3  C3  UNL     1      20.126   5.117  49.871  1.00  0.00     0.058 C 
HETATM    4  C4  UNL     1      20.289   4.356  50.919  1.00  0.00     0.061 C 
HETATM    5  C6  UNL     1      21.631   3.722  51.258  1.00  0.00     0.044 C 
HETATM    6  C7  UNL     1      22.095   4.510  52.465  1.00  0.00     0.029 C 
HETATM    7  C17 UNL     1      22.515   3.896  50.061  1.00  0.00     0.187 C 
HETATM    8  O2  UNL     1      22.006   3.140  48.996  1.00  0.00    -0.388 OA
HETATM    9  C18 UNL     1      22.657   3.415  47.824  1.00  0.00     0.187 C 
HETATM   10  C19 UNL     1      22.136   4.638  47.150  1.00  0.00     0.145 C 
HETATM   11  N1  UNL     1      22.050   5.809  47.943  1.00  0.00    -0.391 N 
HETATM   12  H29 UNL     1      22.642   6.667  47.972  1.00  0.00     0.159 HD
ENDROOT
BRANCH   5  13
HETATM   13  C8  UNL     1      21.427   2.290  51.596  1.00  0.00    -0.005 C 
HETATM   14  C9  UNL     1      22.255   1.264  51.738  1.00  0.00    -0.075 C 
HETATM   15  C10 UNL     1      23.741   1.275  51.583  1.00  0.00     0.061 C 
HETATM   16  C15 UNL     1      21.795  -0.106  52.107  1.00  0.00     0.018 C 
HETATM   17  C11 UNL     1      24.221   1.390  53.015  1.00  0.00    -0.026 C 
HETATM   18  C12 UNL     1      23.589   0.478  53.763  1.00  0.00    -0.025 C 
HETATM   19  C13 UNL     1      22.583  -0.509  53.342  1.00  0.00     0.011 C 
HETATM   20  C14 UNL     1      21.673  -0.861  54.499  1.00  0.00     0.015 C 
HETATM   21  C16 UNL     1      20.324  -0.144  52.327  1.00  0.00     0.015 C 
ENDBRANCH   5  13
BRANCH   4  22
HETATM   22  O1  UNL     1      19.397   3.968  51.893  1.00  0.00    -0.359 OA
HETATM   23  C5  UNL     1      18.081   3.608  51.583  1.00  0.00     0.209 C 
ENDBRANCH   4  22
TORSDOF 2
ENDMDL
MODEL 9
REMARK VINA RESULT:      -6.3      3.052      4.507
REMARK  2 active torsions:
REMARK  status: ('A' for Active; 'I' for Inactive)
REMARK    1  A    between atoms: C4_4  and  O1_5 
REMARK    2  A    between atoms: C6_7  and  C8_9 
ROOT
HETATM    1  C1  UNL     1      22.986  -0.897  54.074  1.00  0.00     0.062 C 
HETATM    2  C2  UNL     1      22.577   0.303  53.606  1.00  0.00     0.007 C 
HETATM    3  C3  UNL     1      23.572   0.839  52.709  1.00  0.00     0.058 C 
HETATM    4  C4  UNL     1      23.736   1.915  51.989  1.00  0.00     0.061 C 
HETATM    5  C6  UNL     1      22.706   3.034  51.957  1.00  0.00     0.044 C 
HETATM    6  C7  UNL     1      23.371   4.146  52.741  1.00  0.00     0.029 C 
HETATM    7  C17 UNL     1      21.464   2.508  52.612  1.00  0.00     0.187 C 
HETATM    8  O2  UNL     1      20.924   1.483  51.822  1.00  0.00    -0.388 OA
HETATM    9  C18 UNL     1      19.907   0.833  52.466  1.00  0.00     0.187 C 
HETATM   10  C19 UNL     1      20.397  -0.210  53.412  1.00  0.00     0.145 C 
HETATM   11  N1  UNL     1      21.380   0.196  54.347  1.00  0.00    -0.391 N 
HETATM   12  H29 UNL     1      21.319   0.401  55.368  1.00  0.00     0.159 HD
ENDROOT
BRANCH   5  13
HETATM   13  C8  UNL     1      22.462   3.440  50.549  1.00  0.00    -0.005 C 
HETATM   14  C9  UNL     1      21.677   4.349  49.988  1.00  0.00    -0.075 C 
HETATM   15  C10 UNL     1      20.747   5.289  50.683  1.00  0.00     0.061 C 
HETATM   16  C15 UNL     1      21.624   4.581  48.516  1.00  0.00     0.018 C 
HETATM   17  C11 UNL     1      21.561   6.566  50.753  1.00  0.00    -0.026 C 
HETATM   18  C12 UNL     1      22.067   6.828  49.542  1.00  0.00    -0.025 C 
HETATM   19  C13 UNL     1      21.908   6.058  48.300  1.00  0.00     0.011 C 
HETATM   20  C14 UNL     1      23.098   6.274  47.390  1.00  0.00     0.015 C 
HETATM   21  C16 UNL     1      22.581   3.700  47.793  1.00  0.00     0.015 C 
ENDBRANCH   5  13
BRANCH   4  22
HETATM   22  O1  UNL     1      24.771   2.290  51.161  1.00  0.00    -0.359 OA
HETATM   23  C5  UNL     1      26.103   1.996  51.470  1.00  0.00     0.209 C 
ENDBRANCH   4  22
TORSDOF 2
ENDMDL
