MODEL 1
REMARK VINA RESULT:      -7.3      0.000      0.000
REMARK  4 active torsions:
REMARK  status: ('A' for Active; 'I' for Inactive)
REMARK    1  A    between atoms: C14_18  and  O3_19 
REMARK    2  A    between atoms: O3_19  and  C15_20 
REMARK    3  A    between atoms: C15_20  and  C16_21 
REMARK    4  A    between atoms: C16_21  and  O4_22 
ROOT
HETATM    1  C1  UNL     1      21.720   3.789  45.147  1.00  0.00     0.017 C 
HETATM    2  C2  UNL     1      21.800   3.684  46.389  1.00  0.00    -0.082 C 
HETATM    3  C3  UNL     1      21.889   3.584  47.880  1.00  0.00    -0.005 C 
HETATM    4  C4  UNL     1      21.956   2.284  48.097  1.00  0.00     0.016 C 
HETATM    5  C5  UNL     1      22.036   1.418  49.259  1.00  0.00    -0.001 C 
HETATM    6  C6  UNL     1      22.009   1.558  50.567  1.00  0.00    -0.007 C 
HETATM    7  C7  UNL     1      22.043   1.248  52.014  1.00  0.00     0.148 C 
HETATM    8  N1  UNL     1      22.725  -0.074  52.113  1.00  0.00    -0.373 N 
HETATM    9  C8  UNL     1      23.475  -0.628  53.249  1.00  0.00     0.118 C 
HETATM   10  N2  UNL     1      22.391  -0.739  53.936  1.00  0.00    -0.280 NA
HETATM   11  C9  UNL     1      22.405  -1.271  55.289  1.00  0.00     0.179 C 
HETATM   12  C10 UNL     1      25.003  -0.778  53.067  1.00  0.00     0.245 C 
HETATM   13  O1  UNL     1      25.519   0.452  52.609  1.00  0.00    -0.382 OA
HETATM   14  C11 UNL     1      25.327   1.491  53.472  1.00  0.00     0.195 C 
HETATM   15  C12 UNL     1      25.654   2.821  52.789  1.00  0.00     0.202 C 
HETATM   16  O2  UNL     1      24.826   2.987  51.700  1.00  0.00    -0.345 OA
HETATM   17  C13 UNL     1      24.020   3.996  51.306  1.00  0.00     0.115 C 
HETATM   18  C14 UNL     1      23.786   4.581  50.126  1.00  0.00     0.087 C 
HETATM   19  C18 UNL     1      22.582   5.305  49.652  1.00  0.00     0.070 C 
HETATM   20  C19 UNL     1      21.611   5.494  50.791  1.00  0.00     0.160 C 
HETATM   21  N3  UNL     1      22.358   5.616  52.057  1.00  0.00    -0.298 NA
HETATM   22  C20 UNL     1      23.177   4.638  52.352  1.00  0.00     0.149 C 
HETATM   23  C21 UNL     1      22.034   4.964  48.336  1.00  0.00     0.061 C 
HETATM   24  H7  UNL     1      22.704  -0.735  51.308  1.00  0.00     0.161 HD
ENDROOT
BRANCH  18  25
HETATM   25  O3  UNL     1      24.758   4.556  49.146  1.00  0.00    -0.350 OA
BRANCH  25  26
HETATM   26  C15 UNL     1      25.940   5.289  49.079  1.00  0.00     0.201 C 
BRANCH  26  27
HETATM   27  C16 UNL     1      27.078   4.296  49.079  1.00  0.00     0.193 C 
BRANCH  27  28
HETATM   28  O4  UNL     1      28.287   4.775  48.675  1.00  0.00    -0.394 OA
HETATM   29  C17 UNL     1      28.188   6.080  48.243  1.00  0.00     0.201 C 
ENDBRANCH  27  28
ENDBRANCH  26  27
ENDBRANCH  25  26
ENDBRANCH  18  25
TORSDOF 4
ENDMDL
MODEL 2
REMARK VINA RESULT:      -7.0      4.463      6.920
REMARK  4 active torsions:
REMARK  status: ('A' for Active; 'I' for Inactive)
REMARK    1  A    between atoms: C14_18  and  O3_19 
REMARK    2  A    between atoms: O3_19  and  C15_20 
REMARK    3  A    between atoms: C15_20  and  C16_21 
REMARK    4  A    between atoms: C16_21  and  O4_22 
ROOT
HETATM    1  C1  UNL     1      23.744  -0.866  54.459  1.00  0.00     0.017 C 
HETATM    2  C2  UNL     1      22.857  -0.519  53.650  1.00  0.00    -0.082 C 
HETATM    3  C3  UNL     1      21.814  -0.101  52.661  1.00  0.00    -0.005 C 
HETATM    4  C4  UNL     1      20.680  -0.334  53.296  1.00  0.00     0.016 C 
HETATM    5  C5  UNL     1      19.266  -0.209  52.995  1.00  0.00    -0.001 C 
HETATM    6  C6  UNL     1      18.529   0.120  51.956  1.00  0.00    -0.007 C 
HETATM    7  C7  UNL     1      17.356   0.420  51.104  1.00  0.00     0.148 C 
HETATM    8  N1  UNL     1      16.251   0.727  52.055  1.00  0.00    -0.373 N 
HETATM    9  C8  UNL     1      15.057   1.553  51.829  1.00  0.00     0.118 C 
HETATM   10  N2  UNL     1      14.584   0.680  51.009  1.00  0.00    -0.280 NA
HETATM   11  C9  UNL     1      13.304   0.878  50.349  1.00  0.00     0.179 C 
HETATM   12  C10 UNL     1      14.983   2.895  52.595  1.00  0.00     0.245 C 
HETATM   13  O1  UNL     1      16.190   3.593  52.384  1.00  0.00    -0.382 OA
HETATM   14  C11 UNL     1      16.434   3.901  51.078  1.00  0.00     0.195 C 
HETATM   15  C12 UNL     1      17.871   4.396  50.904  1.00  0.00     0.202 C 
HETATM   16  O2  UNL     1      18.743   3.404  51.298  1.00  0.00    -0.345 OA
HETATM   17  C13 UNL     1      19.807   2.827  50.700  1.00  0.00     0.115 C 
HETATM   18  C14 UNL     1      21.027   2.479  51.126  1.00  0.00     0.087 C 
HETATM   19  C18 UNL     1      21.945   1.434  50.611  1.00  0.00     0.070 C 
HETATM   20  C19 UNL     1      21.402   0.855  49.328  1.00  0.00     0.160 C 
HETATM   21  N3  UNL     1      20.640   1.891  48.606  1.00  0.00    -0.298 NA
HETATM   22  C20 UNL     1      19.662   2.465  49.263  1.00  0.00     0.149 C 
HETATM   23  C21 UNL     1      22.563   0.514  51.569  1.00  0.00     0.061 C 
HETATM   24  H7  UNL     1      16.268   0.335  53.021  1.00  0.00     0.161 HD
ENDROOT
BRANCH  18  25
HETATM   25  O3  UNL     1      21.592   3.142  52.197  1.00  0.00    -0.350 OA
BRANCH  25  26
HETATM   26  C15 UNL     1      22.259   4.363  52.205  1.00  0.00     0.201 C 
BRANCH  26  27
HETATM   27  C16 UNL     1      23.732   4.063  52.343  1.00  0.00     0.193 C 
BRANCH  27  28
HETATM   28  O4  UNL     1      24.073   3.184  53.324  1.00  0.00    -0.394 OA
HETATM   29  C17 UNL     1      25.224   2.496  53.001  1.00  0.00     0.201 C 
ENDBRANCH  27  28
ENDBRANCH  26  27
ENDBRANCH  25  26
ENDBRANCH  18  25
TORSDOF 4
ENDMDL
MODEL 3
REMARK VINA RESULT:      -7.0      2.472      6.601
REMARK  4 active torsions:
REMARK  status: ('A' for Active; 'I' for Inactive)
REMARK    1  A    between atoms: C14_18  and  O3_19 
REMARK    2  A    between atoms: O3_19  and  C15_20 
REMARK    3  A    between atoms: C15_20  and  C16_21 
REMARK    4  A    between atoms: C16_21  and  O4_22 
ROOT
HETATM    1  C1  UNL     1      20.449  -0.329  54.371  1.00  0.00     0.017 C 
HETATM    2  C2  UNL     1      20.629   0.451  53.411  1.00  0.00    -0.082 C 
HETATM    3  C3  UNL     1      20.841   1.365  52.245  1.00  0.00    -0.005 C 
HETATM    4  C4  UNL     1      20.758   2.568  52.780  1.00  0.00     0.016 C 
HETATM    5  C5  UNL     1      20.832   3.936  52.299  1.00  0.00    -0.001 C 
HETATM    6  C6  UNL     1      20.944   4.543  51.137  1.00  0.00    -0.007 C 
HETATM    7  C7  UNL     1      21.071   5.604  50.113  1.00  0.00     0.148 C 
HETATM    8  N1  UNL     1      21.581   6.796  50.848  1.00  0.00    -0.373 N 
HETATM    9  C8  UNL     1      22.354   7.929  50.321  1.00  0.00     0.118 C 
HETATM   10  N2  UNL     1      21.334   8.339  49.650  1.00  0.00    -0.280 NA
HETATM   11  C9  UNL     1      21.403   9.531  48.821  1.00  0.00     0.179 C 
HETATM   12  C10 UNL     1      23.826   8.042  50.781  1.00  0.00     0.245 C 
HETATM   13  O1  UNL     1      24.453   6.796  50.571  1.00  0.00    -0.382 OA
HETATM   14  C11 UNL     1      24.480   6.400  49.266  1.00  0.00     0.195 C 
HETATM   15  C12 UNL     1      24.913   4.936  49.159  1.00  0.00     0.202 C 
HETATM   16  O2  UNL     1      24.017   4.147  49.847  1.00  0.00    -0.345 OA
HETATM   17  C13 UNL     1      23.317   3.044  49.506  1.00  0.00     0.115 C 
HETATM   18  C14 UNL     1      23.053   1.891  50.131  1.00  0.00     0.087 C 
HETATM   19  C18 UNL     1      21.915   0.958  49.951  1.00  0.00     0.070 C 
HETATM   20  C19 UNL     1      21.087   1.375  48.761  1.00  0.00     0.160 C 
HETATM   21  N3  UNL     1      21.957   2.018  47.760  1.00  0.00    -0.298 NA
HETATM   22  C20 UNL     1      22.665   3.042  48.167  1.00  0.00     0.149 C 
HETATM   23  C21 UNL     1      21.208   0.480  51.143  1.00  0.00     0.061 C 
HETATM   24  H7  UNL     1      21.399   6.898  51.869  1.00  0.00     0.161 HD
ENDROOT
BRANCH  18  25
HETATM   25  O3  UNL     1      23.918   1.425  51.101  1.00  0.00    -0.350 OA
BRANCH  25  26
HETATM   26  C15 UNL     1      24.412   2.095  52.216  1.00  0.00     0.201 C 
BRANCH  26  27
HETATM   27  C16 UNL     1      24.826   1.044  53.218  1.00  0.00     0.193 C 
BRANCH  27  28
HETATM   28  O4  UNL     1      24.177  -0.150  53.133  1.00  0.00    -0.394 OA
HETATM   29  C17 UNL     1      24.103  -0.767  54.364  1.00  0.00     0.201 C 
ENDBRANCH  27  28
ENDBRANCH  26  27
ENDBRANCH  25  26
ENDBRANCH  18  25
TORSDOF 4
ENDMDL
MODEL 4
REMARK VINA RESULT:      -6.7      5.206      9.283
REMARK  4 active torsions:
REMARK  status: ('A' for Active; 'I' for Inactive)
REMARK    1  A    between atoms: C14_18  and  O3_19 
REMARK    2  A    between atoms: O3_19  and  C15_20 
REMARK    3  A    between atoms: C15_20  and  C16_21 
REMARK    4  A    between atoms: C16_21  and  O4_22 
ROOT
HETATM    1  C1  UNL     1      24.705   3.465  49.490  1.00  0.00     0.017 C 
HETATM    2  C2  UNL     1      25.519   4.404  49.361  1.00  0.00    -0.082 C 
HETATM    3  C3  UNL     1      26.478   5.545  49.223  1.00  0.00    -0.005 C 
HETATM    4  C4  UNL     1      27.526   4.994  48.640  1.00  0.00     0.016 C 
HETATM    5  C5  UNL     1      28.838   5.439  48.207  1.00  0.00    -0.001 C 
HETATM    6  C6  UNL     1      29.551   6.543  48.273  1.00  0.00    -0.007 C 
HETATM    7  C7  UNL     1      30.652   7.517  48.102  1.00  0.00     0.148 C 
HETATM    8  N1  UNL     1      31.446   7.008  46.948  1.00  0.00    -0.373 N 
HETATM    9  C8  UNL     1      32.303   7.766  46.026  1.00  0.00     0.118 C 
HETATM   10  N2  UNL     1      33.153   7.989  46.968  1.00  0.00    -0.280 NA
HETATM   11  C9  UNL     1      34.363   8.757  46.727  1.00  0.00     0.179 C 
HETATM   12  C10 UNL     1      31.808   7.900  44.567  1.00  0.00     0.245 C 
HETATM   13  O1  UNL     1      30.475   8.359  44.591  1.00  0.00    -0.382 OA
HETATM   14  C11 UNL     1      30.318   9.583  45.171  1.00  0.00     0.195 C 
HETATM   15  C12 UNL     1      28.835   9.876  45.410  1.00  0.00     0.202 C 
HETATM   16  O2  UNL     1      28.313   8.915  46.248  1.00  0.00    -0.345 OA
HETATM   17  C13 UNL     1      27.602   8.986  47.393  1.00  0.00     0.115 C 
HETATM   18  C14 UNL     1      26.531   8.331  47.855  1.00  0.00     0.087 C 
HETATM   19  C18 UNL     1      26.105   8.083  49.253  1.00  0.00     0.070 C 
HETATM   20  C19 UNL     1      26.980   8.858  50.206  1.00  0.00     0.160 C 
HETATM   21  N3  UNL     1      27.430  10.103  49.556  1.00  0.00    -0.298 NA
HETATM   22  C20 UNL     1      28.053   9.975  48.411  1.00  0.00     0.149 C 
HETATM   23  C21 UNL     1      25.717   6.721  49.635  1.00  0.00     0.061 C 
HETATM   24  H7  UNL     1      31.435   5.992  46.713  1.00  0.00     0.161 HD
ENDROOT
BRANCH  18  25
HETATM   25  O3  UNL     1      25.633   7.774  46.965  1.00  0.00    -0.350 OA
BRANCH  25  26
HETATM   26  C15 UNL     1      24.618   8.404  46.251  1.00  0.00     0.201 C 
BRANCH  26  27
HETATM   27  C16 UNL     1      23.310   7.828  46.737  1.00  0.00     0.193 C 
BRANCH  27  28
HETATM   28  O4  UNL     1      23.341   6.524  47.126  1.00  0.00    -0.394 OA
HETATM   29  C17 UNL     1      22.365   6.259  48.063  1.00  0.00     0.201 C 
ENDBRANCH  27  28
ENDBRANCH  26  27
ENDBRANCH  25  26
ENDBRANCH  18  25
TORSDOF 4
ENDMDL
MODEL 5
REMARK VINA RESULT:      -6.7      3.516      7.116
REMARK  4 active torsions:
REMARK  status: ('A' for Active; 'I' for Inactive)
REMARK    1  A    between atoms: C14_18  and  O3_19 
REMARK    2  A    between atoms: O3_19  and  C15_20 
REMARK    3  A    between atoms: C15_20  and  C16_21 
REMARK    4  A    between atoms: C16_21  and  O4_22 
ROOT
HETATM    1  C1  UNL     1      24.472   0.326  53.461  1.00  0.00     0.017 C 
HETATM    2  C2  UNL     1      24.126   1.241  52.683  1.00  0.00    -0.082 C 
HETATM    3  C3  UNL     1      23.722   2.355  51.768  1.00  0.00    -0.005 C 
HETATM    4  C4  UNL     1      23.392   1.730  50.653  1.00  0.00     0.016 C 
HETATM    5  C5  UNL     1      22.933   2.117  49.332  1.00  0.00    -0.001 C 
HETATM    6  C6  UNL     1      22.718   3.239  48.678  1.00  0.00    -0.007 C 
HETATM    7  C7  UNL     1      22.340   4.193  47.611  1.00  0.00     0.148 C 
HETATM    8  N1  UNL     1      21.437   3.427  46.706  1.00  0.00    -0.373 N 
HETATM    9  C8  UNL     1      20.390   3.944  45.814  1.00  0.00     0.118 C 
HETATM   10  N2  UNL     1      21.277   4.484  45.052  1.00  0.00    -0.280 NA
HETATM   11  C9  UNL     1      20.900   5.230  43.863  1.00  0.00     0.179 C 
HETATM   12  C10 UNL     1      18.927   3.620  46.196  1.00  0.00     0.245 C 
HETATM   13  O1  UNL     1      18.732   3.976  47.547  1.00  0.00    -0.382 OA
HETATM   14  C11 UNL     1      18.919   5.302  47.804  1.00  0.00     0.195 C 
HETATM   15  C12 UNL     1      18.968   5.553  49.313  1.00  0.00     0.202 C 
HETATM   16  O2  UNL     1      20.015   4.841  49.857  1.00  0.00    -0.345 OA
HETATM   17  C13 UNL     1      21.044   5.190  50.659  1.00  0.00     0.115 C 
HETATM   18  C14 UNL     1      21.608   4.626  51.733  1.00  0.00     0.087 C 
HETATM   19  C18 UNL     1      22.988   4.763  52.257  1.00  0.00     0.070 C 
HETATM   20  C19 UNL     1      23.726   5.836  51.496  1.00  0.00     0.160 C 
HETATM   21  N3  UNL     1      22.771   6.868  51.053  1.00  0.00    -0.298 NA
HETATM   22  C20 UNL     1      21.754   6.458  50.335  1.00  0.00     0.149 C 
HETATM   23  C21 UNL     1      23.724   3.546  52.612  1.00  0.00     0.061 C 
HETATM   24  H7  UNL     1      21.508   2.389  46.652  1.00  0.00     0.161 HD
ENDROOT
BRANCH  18  25
HETATM   25  O3  UNL     1      20.864   3.779  52.530  1.00  0.00    -0.350 OA
BRANCH  25  26
HETATM   26  C15 UNL     1      20.108   2.674  52.151  1.00  0.00     0.201 C 
BRANCH  26  27
HETATM   27  C16 UNL     1      20.413   1.570  53.136  1.00  0.00     0.193 C 
BRANCH  27  28
HETATM   28  O4  UNL     1      20.676   0.347  52.598  1.00  0.00    -0.394 OA
HETATM   29  C17 UNL     1      20.804  -0.613  53.580  1.00  0.00     0.201 C 
ENDBRANCH  27  28
ENDBRANCH  26  27
ENDBRANCH  25  26
ENDBRANCH  18  25
TORSDOF 4
ENDMDL
MODEL 6
REMARK VINA RESULT:      -6.6      6.232      9.228
REMARK  4 active torsions:
REMARK  status: ('A' for Active; 'I' for Inactive)
REMARK    1  A    between atoms: C14_18  and  O3_19 
REMARK    2  A    between atoms: O3_19  and  C15_20 
REMARK    3  A    between atoms: C15_20  and  C16_21 
REMARK    4  A    between atoms: C16_21  and  O4_22 
ROOT
HETATM    1  C1  UNL     1      23.974   5.704  48.573  1.00  0.00     0.017 C 
HETATM    2  C2  UNL     1      25.152   6.116  48.623  1.00  0.00    -0.082 C 
HETATM    3  C3  UNL     1      26.556   6.633  48.694  1.00  0.00    -0.005 C 
HETATM    4  C4  UNL     1      27.289   5.557  48.478  1.00  0.00     0.016 C 
HETATM    5  C5  UNL     1      28.706   5.251  48.416  1.00  0.00    -0.001 C 
HETATM    6  C6  UNL     1      29.839   5.891  48.612  1.00  0.00    -0.007 C 
HETATM    7  C7  UNL     1      31.286   6.192  48.703  1.00  0.00     0.148 C 
HETATM    8  N1  UNL     1      31.952   5.155  47.865  1.00  0.00    -0.373 N 
HETATM    9  C8  UNL     1      33.252   5.232  47.183  1.00  0.00     0.118 C 
HETATM   10  N2  UNL     1      33.868   5.222  48.314  1.00  0.00    -0.280 NA
HETATM   11  C9  UNL     1      35.319   5.281  48.384  1.00  0.00     0.179 C 
HETATM   12  C10 UNL     1      33.225   5.284  45.638  1.00  0.00     0.245 C 
HETATM   13  O1  UNL     1      32.329   6.300  45.243  1.00  0.00    -0.382 OA
HETATM   14  C11 UNL     1      32.679   7.547  45.671  1.00  0.00     0.195 C 
HETATM   15  C12 UNL     1      31.528   8.531  45.450  1.00  0.00     0.202 C 
HETATM   16  O2  UNL     1      30.427   8.108  46.162  1.00  0.00    -0.345 OA
HETATM   17  C13 UNL     1      29.614   8.725  47.045  1.00  0.00     0.115 C 
HETATM   18  C14 UNL     1      28.287   8.745  47.219  1.00  0.00     0.087 C 
HETATM   19  C18 UNL     1      27.498   9.006  48.447  1.00  0.00     0.070 C 
HETATM   20  C19 UNL     1      28.409   9.463  49.559  1.00  0.00     0.160 C 
HETATM   21  N3  UNL     1      29.549  10.203  48.986  1.00  0.00    -0.298 NA
HETATM   22  C20 UNL     1      30.260   9.576  48.082  1.00  0.00     0.149 C 
HETATM   23  C21 UNL     1      26.412   8.083  48.789  1.00  0.00     0.061 C 
HETATM   24  H7  UNL     1      31.490   4.235  47.705  1.00  0.00     0.161 HD
ENDROOT
BRANCH  18  25
HETATM   25  O3  UNL     1      27.453   8.499  46.146  1.00  0.00    -0.350 OA
BRANCH  25  26
HETATM   26  C15 UNL     1      27.039   9.380  45.151  1.00  0.00     0.201 C 
BRANCH  26  27
HETATM   27  C16 UNL     1      25.531   9.433  45.206  1.00  0.00     0.193 C 
BRANCH  27  28
HETATM   28  O4  UNL     1      24.909   8.299  45.629  1.00  0.00    -0.394 OA
HETATM   29  C17 UNL     1      23.679   8.581  46.185  1.00  0.00     0.201 C 
ENDBRANCH  27  28
ENDBRANCH  26  27
ENDBRANCH  25  26
ENDBRANCH  18  25
TORSDOF 4
ENDMDL
MODEL 7
REMARK VINA RESULT:      -6.6      7.288     12.306
REMARK  4 active torsions:
REMARK  status: ('A' for Active; 'I' for Inactive)
REMARK    1  A    between atoms: C14_18  and  O3_19 
REMARK    2  A    between atoms: O3_19  and  C15_20 
REMARK    3  A    between atoms: C15_20  and  C16_21 
REMARK    4  A    between atoms: C16_21  and  O4_22 
ROOT
HETATM    1  C1  UNL     1      32.189   0.677  46.736  1.00  0.00     0.017 C 
HETATM    2  C2  UNL     1      32.604   1.855  46.683  1.00  0.00    -0.082 C 
HETATM    3  C3  UNL     1      33.116   3.261  46.643  1.00  0.00    -0.005 C 
HETATM    4  C4  UNL     1      32.755   3.684  45.446  1.00  0.00     0.016 C 
HETATM    5  C5  UNL     1      32.905   4.905  44.676  1.00  0.00    -0.001 C 
HETATM    6  C6  UNL     1      33.513   6.063  44.818  1.00  0.00    -0.007 C 
HETATM    7  C7  UNL     1      33.990   7.441  44.560  1.00  0.00     0.148 C 
HETATM    8  N1  UNL     1      33.045   7.997  43.550  1.00  0.00    -0.373 N 
HETATM    9  C8  UNL     1      32.705   9.404  43.299  1.00  0.00     0.118 C 
HETATM   10  N2  UNL     1      33.886   9.629  42.839  1.00  0.00    -0.280 NA
HETATM   11  C9  UNL     1      34.274  10.947  42.364  1.00  0.00     0.179 C 
HETATM   12  C10 UNL     1      31.272   9.851  43.673  1.00  0.00     0.245 C 
HETATM   13  O1  UNL     1      31.012   9.443  44.998  1.00  0.00    -0.382 OA
HETATM   14  C11 UNL     1      31.848   9.995  45.924  1.00  0.00     0.195 C 
HETATM   15  C12 UNL     1      31.687   9.296  47.275  1.00  0.00     0.202 C 
HETATM   16  O2  UNL     1      31.997   7.960  47.134  1.00  0.00    -0.345 OA
HETATM   17  C13 UNL     1      32.830   7.136  47.804  1.00  0.00     0.115 C 
HETATM   18  C14 UNL     1      32.719   5.882  48.257  1.00  0.00     0.087 C 
HETATM   19  C18 UNL     1      33.775   4.877  48.523  1.00  0.00     0.070 C 
HETATM   20  C19 UNL     1      35.138   5.510  48.389  1.00  0.00     0.160 C 
HETATM   21  N3  UNL     1      35.058   6.930  48.777  1.00  0.00    -0.298 NA
HETATM   22  C20 UNL     1      34.181   7.665  48.139  1.00  0.00     0.149 C 
HETATM   23  C21 UNL     1      33.597   3.520  47.997  1.00  0.00     0.061 C 
HETATM   24  H7  UNL     1      32.530   7.358  42.908  1.00  0.00     0.161 HD
ENDROOT
BRANCH  18  25
HETATM   25  O3  UNL     1      31.471   5.369  48.549  1.00  0.00    -0.350 OA
BRANCH  25  26
HETATM   26  C15 UNL     1      30.370   5.236  47.707  1.00  0.00     0.201 C 
BRANCH  26  27
HETATM   27  C16 UNL     1      29.192   5.861  48.415  1.00  0.00     0.193 C 
BRANCH  27  28
HETATM   28  O4  UNL     1      28.078   5.086  48.517  1.00  0.00    -0.394 OA
HETATM   29  C17 UNL     1      26.944   5.858  48.656  1.00  0.00     0.201 C 
ENDBRANCH  27  28
ENDBRANCH  26  27
ENDBRANCH  25  26
ENDBRANCH  18  25
TORSDOF 4
ENDMDL
MODEL 8
REMARK VINA RESULT:      -6.5      2.571      6.645
REMARK  4 active torsions:
REMARK  status: ('A' for Active; 'I' for Inactive)
REMARK    1  A    between atoms: C14_18  and  O3_19 
REMARK    2  A    between atoms: O3_19  and  C15_20 
REMARK    3  A    between atoms: C15_20  and  C16_21 
REMARK    4  A    between atoms: C16_21  and  O4_22 
ROOT
HETATM    1  C1  UNL     1      25.121   1.732  53.666  1.00  0.00     0.017 C 
HETATM    2  C2  UNL     1      24.322   2.264  52.866  1.00  0.00    -0.082 C 
HETATM    3  C3  UNL     1      23.359   2.878  51.897  1.00  0.00    -0.005 C 
HETATM    4  C4  UNL     1      23.235   4.117  52.334  1.00  0.00     0.016 C 
HETATM    5  C5  UNL     1      22.478   5.293  51.946  1.00  0.00    -0.001 C 
HETATM    6  C6  UNL     1      21.561   5.596  51.052  1.00  0.00    -0.007 C 
HETATM    7  C7  UNL     1      20.585   6.362  50.245  1.00  0.00     0.148 C 
HETATM    8  N1  UNL     1      20.987   7.789  50.398  1.00  0.00    -0.373 N 
HETATM    9  C8  UNL     1      20.740   8.909  49.479  1.00  0.00     0.118 C 
HETATM   10  N2  UNL     1      19.478   8.868  49.737  1.00  0.00    -0.280 NA
HETATM   11  C9  UNL     1      18.548   9.791  49.108  1.00  0.00     0.179 C 
HETATM   12  C10 UNL     1      21.971   9.497  48.752  1.00  0.00     0.245 C 
HETATM   13  O1  UNL     1      22.684   8.436  48.156  1.00  0.00    -0.382 OA
HETATM   14  C11 UNL     1      21.971   7.744  47.222  1.00  0.00     0.195 C 
HETATM   15  C12 UNL     1      22.703   6.457  46.836  1.00  0.00     0.202 C 
HETATM   16  O2  UNL     1      22.854   5.668  47.956  1.00  0.00    -0.345 OA
HETATM   17  C13 UNL     1      22.560   4.376  48.215  1.00  0.00     0.115 C 
HETATM   18  C14 UNL     1      23.212   3.390  48.840  1.00  0.00     0.087 C 
HETATM   19  C18 UNL     1      22.678   2.187  49.523  1.00  0.00     0.070 C 
HETATM   20  C19 UNL     1      21.193   2.071  49.280  1.00  0.00     0.160 C 
HETATM   21  N3  UNL     1      20.868   2.637  47.957  1.00  0.00    -0.298 NA
HETATM   22  C20 UNL     1      21.241   3.874  47.740  1.00  0.00     0.149 C 
HETATM   23  C21 UNL     1      23.178   1.864  50.862  1.00  0.00     0.061 C 
HETATM   24  H7  UNL     1      21.512   8.096  51.244  1.00  0.00     0.161 HD
ENDROOT
BRANCH  18  25
HETATM   25  O3  UNL     1      24.592   3.414  48.901  1.00  0.00    -0.350 OA
BRANCH  25  26
HETATM   26  C15 UNL     1      25.419   4.414  49.404  1.00  0.00     0.201 C 
BRANCH  26  27
HETATM   27  C16 UNL     1      26.798   3.817  49.550  1.00  0.00     0.193 C 
BRANCH  27  28
HETATM   28  O4  UNL     1      27.754   4.315  48.719  1.00  0.00    -0.394 OA
HETATM   29  C17 UNL     1      27.566   5.662  48.491  1.00  0.00     0.201 C 
ENDBRANCH  27  28
ENDBRANCH  26  27
ENDBRANCH  25  26
ENDBRANCH  18  25
TORSDOF 4
ENDMDL
MODEL 9
REMARK VINA RESULT:      -6.4      2.956      4.947
REMARK  4 active torsions:
REMARK  status: ('A' for Active; 'I' for Inactive)
REMARK    1  A    between atoms: C14_18  and  O3_19 
REMARK    2  A    between atoms: O3_19  and  C15_20 
REMARK    3  A    between atoms: C15_20  and  C16_21 
REMARK    4  A    between atoms: C16_21  and  O4_22 
ROOT
HETATM    1  C1  UNL     1      24.945   9.529  47.058  1.00  0.00     0.017 C 
HETATM    2  C2  UNL     1      24.756   8.348  47.421  1.00  0.00    -0.082 C 
HETATM    3  C3  UNL     1      24.509   6.932  47.839  1.00  0.00    -0.005 C 
HETATM    4  C4  UNL     1      25.547   6.654  48.605  1.00  0.00     0.016 C 
HETATM    5  C5  UNL     1      26.023   5.500  49.345  1.00  0.00    -0.001 C 
HETATM    6  C6  UNL     1      25.664   4.245  49.507  1.00  0.00    -0.007 C 
HETATM    7  C7  UNL     1      25.632   2.842  49.978  1.00  0.00     0.148 C 
HETATM    8  N1  UNL     1      26.414   2.839  51.246  1.00  0.00    -0.373 N 
HETATM    9  C8  UNL     1      26.308   1.910  52.380  1.00  0.00     0.118 C 
HETATM   10  N2  UNL     1      26.790   0.952  51.666  1.00  0.00    -0.280 NA
HETATM   11  C9  UNL     1      26.977  -0.380  52.216  1.00  0.00     0.179 C 
HETATM   12  C10 UNL     1      25.737   2.483  53.698  1.00  0.00     0.245 C 
HETATM   13  O1  UNL     1      24.526   3.144  53.406  1.00  0.00    -0.382 OA
HETATM   14  C11 UNL     1      23.563   2.334  52.881  1.00  0.00     0.195 C 
HETATM   15  C12 UNL     1      22.400   3.168  52.337  1.00  0.00     0.202 C 
HETATM   16  O2  UNL     1      22.868   4.005  51.347  1.00  0.00    -0.345 OA
HETATM   17  C13 UNL     1      22.469   4.236  50.078  1.00  0.00     0.115 C 
HETATM   18  C14 UNL     1      22.310   5.348  49.351  1.00  0.00     0.087 C 
HETATM   19  C18 UNL     1      22.361   5.531  47.881  1.00  0.00     0.070 C 
HETATM   20  C19 UNL     1      22.446   4.189  47.196  1.00  0.00     0.160 C 
HETATM   21  N3  UNL     1      21.736   3.181  48.004  1.00  0.00    -0.298 NA
HETATM   22  C20 UNL     1      22.122   3.049  49.249  1.00  0.00     0.149 C 
HETATM   23  C21 UNL     1      23.171   6.627  47.340  1.00  0.00     0.061 C 
HETATM   24  H7  UNL     1      27.147   3.562  51.411  1.00  0.00     0.161 HD
ENDROOT
BRANCH  18  25
HETATM   25  O3  UNL     1      22.053   6.548  49.984  1.00  0.00    -0.350 OA
BRANCH  25  26
HETATM   26  C15 UNL     1      20.862   6.990  50.553  1.00  0.00     0.201 C 
BRANCH  26  27
HETATM   27  C16 UNL     1      20.273   8.013  49.612  1.00  0.00     0.193 C 
BRANCH  27  28
HETATM   28  O4  UNL     1      19.948   9.214  50.163  1.00  0.00    -0.394 OA
HETATM   29  C17 UNL     1      20.095  10.238  49.251  1.00  0.00     0.201 C 
ENDBRANCH  27  28
ENDBRANCH  26  27
ENDBRANCH  25  26
ENDBRANCH  18  25
TORSDOF 4
ENDMDL
