MODEL 1
REMARK VINA RESULT:      -7.2      0.000      0.000
REMARK  5 active torsions:
REMARK  status: ('A' for Active; 'I' for Inactive)
REMARK    1  A    between atoms: O1_2  and  C2_3 
REMARK    2  A    between atoms: C3_4  and  O2_5 
REMARK    3  A    between atoms: O2_5  and  N1_6 
REMARK    4  A    between atoms: N1_6  and  C4_7 
REMARK    5  A    between atoms: C9_13  and  C10_14 
ROOT
HETATM    1  C4  UNL     1      25.310  -0.577  54.779  1.00  0.00     0.763 A 
HETATM    2  N2  UNL     1      24.658  -1.336  55.728  1.00  0.00    -0.070 NA
HETATM    3  C5  UNL     1      23.335  -1.556  55.649  1.00  0.00     0.168 A 
HETATM    4  C6  UNL     1      22.680  -0.998  54.600  1.00  0.00     0.077 A 
HETATM    5  C7  UNL     1      21.306  -1.108  54.344  1.00  0.00     0.035 A 
HETATM    6  C8  UNL     1      21.099  -0.383  53.184  1.00  0.00     0.035 A 
HETATM    7  C9  UNL     1      22.323   0.135  52.778  1.00  0.00     0.072 A 
HETATM    8  N5  UNL     1      23.277  -0.252  53.651  1.00  0.00    -0.216 N 
HETATM    9  N6  UNL     1      24.571  -0.074  53.786  1.00  0.00     0.029 NA
ENDROOT
BRANCH   1  10
HETATM   10  N1  UNL     1      26.711  -0.442  54.990  1.00  0.00    -0.086 N 
HETATM   11  H6  UNL     1      26.775   0.055  55.907  1.00  0.00     0.214 HD
BRANCH  10  12
HETATM   12  O2  UNL     1      27.878  -0.798  54.310  1.00  0.00    -0.234 OA
BRANCH  12  13
HETATM   13  C3  UNL     1      28.992   0.049  54.336  1.00  0.00     0.192 C 
HETATM   14  C2  UNL     1      29.071   1.070  53.507  1.00  0.00     0.160 C 
BRANCH  14  15
HETATM   15  O1  UNL     1      27.866   0.967  52.780  1.00  0.00    -0.366 OA
HETATM   16  C1  UNL     1      27.188   2.161  52.399  1.00  0.00     0.209 C 
ENDBRANCH  14  15
ENDBRANCH  12  13
ENDBRANCH  10  12
ENDBRANCH   1  10
BRANCH   7  17
HETATM   17  C10 UNL     1      22.540   0.962  51.590  1.00  0.00     0.029 A 
HETATM   18  C11 UNL     1      23.474   1.985  51.362  1.00  0.00     0.154 A 
HETATM   19  N3  UNL     1      23.239   2.421  50.105  1.00  0.00    -0.185 NA
HETATM   20  N4  UNL     1      22.254   1.774  49.529  1.00  0.00    -0.285 N 
HETATM   21  C12 UNL     1      21.648   1.877  48.208  1.00  0.00     0.179 C 
HETATM   22  C13 UNL     1      21.795   0.863  50.416  1.00  0.00     0.127 A 
ENDBRANCH   7  17
TORSDOF 5
ENDMDL
MODEL 2
REMARK VINA RESULT:      -7.1      1.955      3.960
REMARK  5 active torsions:
REMARK  status: ('A' for Active; 'I' for Inactive)
REMARK    1  A    between atoms: O1_2  and  C2_3 
REMARK    2  A    between atoms: C3_4  and  O2_5 
REMARK    3  A    between atoms: O2_5  and  N1_6 
REMARK    4  A    between atoms: N1_6  and  C4_7 
REMARK    5  A    between atoms: C9_13  and  C10_14 
ROOT
HETATM    1  C4  UNL     1      26.568   1.200  53.714  1.00  0.00     0.763 A 
HETATM    2  N2  UNL     1      26.977   2.062  52.719  1.00  0.00    -0.070 NA
HETATM    3  C5  UNL     1      26.136   2.443  51.743  1.00  0.00     0.168 A 
HETATM    4  C6  UNL     1      24.875   1.940  51.787  1.00  0.00     0.077 A 
HETATM    5  C7  UNL     1      23.857   2.214  50.864  1.00  0.00     0.035 A 
HETATM    6  C8  UNL     1      22.767   1.487  51.309  1.00  0.00     0.035 A 
HETATM    7  C9  UNL     1      23.145   0.809  52.461  1.00  0.00     0.072 A 
HETATM    8  N5  UNL     1      24.434   1.099  52.740  1.00  0.00    -0.216 N 
HETATM    9  N6  UNL     1      25.306   0.765  53.664  1.00  0.00     0.029 NA
ENDROOT
BRANCH   1  10
HETATM   10  N1  UNL     1      27.566   0.897  54.683  1.00  0.00    -0.086 N 
HETATM   11  H6  UNL     1      27.627   1.771  55.254  1.00  0.00     0.214 HD
BRANCH  10  12
HETATM   12  O2  UNL     1      28.380  -0.195  54.993  1.00  0.00    -0.234 OA
BRANCH  12  13
HETATM   13  C3  UNL     1      29.417  -0.565  54.129  1.00  0.00     0.192 C 
HETATM   14  C2  UNL     1      29.241  -1.540  53.259  1.00  0.00     0.160 C 
BRANCH  14  15
HETATM   15  O1  UNL     1      27.910  -1.937  53.509  1.00  0.00    -0.366 OA
HETATM   16  C1  UNL     1      27.076  -2.279  52.406  1.00  0.00     0.209 C 
ENDBRANCH  14  15
ENDBRANCH  12  13
ENDBRANCH  10  12
ENDBRANCH   1  10
BRANCH   7  17
HETATM   17  C10 UNL     1      22.281  -0.074  53.247  1.00  0.00     0.029 A 
HETATM   18  C11 UNL     1      22.575  -0.846  54.382  1.00  0.00     0.154 A 
HETATM   19  N3  UNL     1      21.423  -1.475  54.703  1.00  0.00    -0.185 NA
HETATM   20  N4  UNL     1      20.445  -1.174  53.882  1.00  0.00    -0.285 N 
HETATM   21  C12 UNL     1      19.048  -1.587  53.822  1.00  0.00     0.179 C 
HETATM   22  C13 UNL     1      20.936  -0.309  52.967  1.00  0.00     0.127 A 
ENDBRANCH   7  17
TORSDOF 5
ENDMDL
MODEL 3
REMARK VINA RESULT:      -7.1      3.007      4.515
REMARK  5 active torsions:
REMARK  status: ('A' for Active; 'I' for Inactive)
REMARK    1  A    between atoms: O1_2  and  C2_3 
REMARK    2  A    between atoms: C3_4  and  O2_5 
REMARK    3  A    between atoms: O2_5  and  N1_6 
REMARK    4  A    between atoms: N1_6  and  C4_7 
REMARK    5  A    between atoms: C9_13  and  C10_14 
ROOT
HETATM    1  C4  UNL     1      25.604   2.001  53.188  1.00  0.00     0.763 A 
HETATM    2  N2  UNL     1      24.528   1.146  53.292  1.00  0.00    -0.070 NA
HETATM    3  C5  UNL     1      23.595   1.085  52.327  1.00  0.00     0.168 A 
HETATM    4  C6  UNL     1      23.765   1.900  51.255  1.00  0.00     0.077 A 
HETATM    5  C7  UNL     1      22.907   1.984  50.150  1.00  0.00     0.035 A 
HETATM    6  C8  UNL     1      23.478   2.936  49.325  1.00  0.00     0.035 A 
HETATM    7  C9  UNL     1      24.640   3.392  49.937  1.00  0.00     0.072 A 
HETATM    8  N5  UNL     1      24.801   2.748  51.111  1.00  0.00    -0.216 N 
HETATM    9  N6  UNL     1      25.676   2.760  52.091  1.00  0.00     0.029 NA
ENDROOT
BRANCH   1  10
HETATM   10  N1  UNL     1      26.512   1.946  54.283  1.00  0.00    -0.086 N 
HETATM   11  H6  UNL     1      26.618   2.947  54.564  1.00  0.00     0.214 HD
BRANCH  10  12
HETATM   12  O2  UNL     1      27.202   0.951  54.978  1.00  0.00    -0.234 OA
BRANCH  12  13
HETATM   13  C3  UNL     1      28.472   0.548  54.550  1.00  0.00     0.192 C 
HETATM   14  C2  UNL     1      28.621  -0.576  53.878  1.00  0.00     0.160 C 
BRANCH  14  15
HETATM   15  O1  UNL     1      27.298  -1.062  53.798  1.00  0.00    -0.366 OA
HETATM   16  C1  UNL     1      26.826  -1.569  52.553  1.00  0.00     0.209 C 
ENDBRANCH  14  15
ENDBRANCH  12  13
ENDBRANCH  10  12
ENDBRANCH   1  10
BRANCH   7  17
HETATM   17  C10 UNL     1      25.543   4.406  49.390  1.00  0.00     0.029 A 
HETATM   18  C11 UNL     1      25.280   5.726  48.988  1.00  0.00     0.154 A 
HETATM   19  N3  UNL     1      26.462   6.217  48.555  1.00  0.00    -0.185 NA
HETATM   20  N4  UNL     1      27.431   5.337  48.646  1.00  0.00    -0.285 N 
HETATM   21  C12 UNL     1      28.849   5.399  48.316  1.00  0.00     0.179 C 
HETATM   22  C13 UNL     1      26.903   4.204  49.157  1.00  0.00     0.127 A 
ENDBRANCH   7  17
TORSDOF 5
ENDMDL
MODEL 4
REMARK VINA RESULT:      -7.0      3.669      6.499
REMARK  5 active torsions:
REMARK  status: ('A' for Active; 'I' for Inactive)
REMARK    1  A    between atoms: O1_2  and  C2_3 
REMARK    2  A    between atoms: C3_4  and  O2_5 
REMARK    3  A    between atoms: O2_5  and  N1_6 
REMARK    4  A    between atoms: N1_6  and  C4_7 
REMARK    5  A    between atoms: C9_13  and  C10_14 
ROOT
HETATM    1  C4  UNL     1      26.258   3.649  50.285  1.00  0.00     0.763 A 
HETATM    2  N2  UNL     1      24.982   3.835  49.797  1.00  0.00    -0.070 NA
HETATM    3  C5  UNL     1      23.954   3.093  50.243  1.00  0.00     0.168 A 
HETATM    4  C6  UNL     1      24.234   2.161  51.190  1.00  0.00     0.077 A 
HETATM    5  C7  UNL     1      23.306   1.292  51.778  1.00  0.00     0.035 A 
HETATM    6  C8  UNL     1      24.042   0.534  52.671  1.00  0.00     0.035 A 
HETATM    7  C9  UNL     1      25.364   0.953  52.601  1.00  0.00     0.072 A 
HETATM    8  N5  UNL     1      25.464   1.948  51.695  1.00  0.00    -0.216 N 
HETATM    9  N6  UNL     1      26.424   2.706  51.216  1.00  0.00     0.029 NA
ENDROOT
BRANCH   1  10
HETATM   10  N1  UNL     1      27.238   4.517  49.724  1.00  0.00    -0.086 N 
HETATM   11  H6  UNL     1      27.719   4.916  50.561  1.00  0.00     0.214 HD
BRANCH  10  12
HETATM   12  O2  UNL     1      27.643   4.894  48.442  1.00  0.00    -0.234 OA
BRANCH  12  13
HETATM   13  C3  UNL     1      28.081   6.201  48.201  1.00  0.00     0.192 C 
HETATM   14  C2  UNL     1      29.370   6.464  48.113  1.00  0.00     0.160 C 
BRANCH  14  15
HETATM   15  O1  UNL     1      29.955   5.196  48.310  1.00  0.00    -0.366 OA
HETATM   16  C1  UNL     1      31.196   4.904  47.674  1.00  0.00     0.209 C 
ENDBRANCH  14  15
ENDBRANCH  12  13
ENDBRANCH  10  12
ENDBRANCH   1  10
BRANCH   7  17
HETATM   17  C10 UNL     1      26.469   0.405  53.390  1.00  0.00     0.029 A 
HETATM   18  C11 UNL     1      26.653   0.369  54.781  1.00  0.00     0.154 A 
HETATM   19  N3  UNL     1      27.842  -0.243  54.976  1.00  0.00    -0.185 NA
HETATM   20  N4  UNL     1      28.416  -0.589  53.848  1.00  0.00    -0.285 N 
HETATM   21  C12 UNL     1      29.673  -1.264  53.550  1.00  0.00     0.179 C 
HETATM   22  C13 UNL     1      27.597  -0.206  52.843  1.00  0.00     0.127 A 
ENDBRANCH   7  17
TORSDOF 5
ENDMDL
MODEL 5
REMARK VINA RESULT:      -6.8      2.026      4.447
REMARK  5 active torsions:
REMARK  status: ('A' for Active; 'I' for Inactive)
REMARK    1  A    between atoms: O1_2  and  C2_3 
REMARK    2  A    between atoms: C3_4  and  O2_5 
REMARK    3  A    between atoms: O2_5  and  N1_6 
REMARK    4  A    between atoms: N1_6  and  C4_7 
REMARK    5  A    between atoms: C9_13  and  C10_14 
ROOT
HETATM    1  C4  UNL     1      26.604   2.490  52.020  1.00  0.00     0.763 A 
HETATM    2  N2  UNL     1      26.928   3.108  50.831  1.00  0.00    -0.070 NA
HETATM    3  C5  UNL     1      26.006   3.289  49.871  1.00  0.00     0.168 A 
HETATM    4  C6  UNL     1      24.752   2.838  50.129  1.00  0.00     0.077 A 
HETATM    5  C7  UNL     1      23.657   2.931  49.259  1.00  0.00     0.035 A 
HETATM    6  C8  UNL     1      22.607   2.344  49.943  1.00  0.00     0.035 A 
HETATM    7  C9  UNL     1      23.083   1.921  51.178  1.00  0.00     0.072 A 
HETATM    8  N5  UNL     1      24.392   2.232  51.276  1.00  0.00    -0.216 N 
HETATM    9  N6  UNL     1      25.340   2.084  52.173  1.00  0.00     0.029 NA
ENDROOT
BRANCH   1  10
HETATM   10  N1  UNL     1      27.683   2.379  52.943  1.00  0.00    -0.086 N 
HETATM   11  H6  UNL     1      28.465   2.883  52.467  1.00  0.00     0.214 HD
BRANCH  10  12
HETATM   12  O2  UNL     1      27.885   1.810  54.203  1.00  0.00    -0.234 OA
BRANCH  12  13
HETATM   13  C3  UNL     1      28.978   0.965  54.423  1.00  0.00     0.192 C 
HETATM   14  C2  UNL     1      28.836  -0.342  54.336  1.00  0.00     0.160 C 
BRANCH  14  15
HETATM   15  O1  UNL     1      27.470  -0.480  54.008  1.00  0.00    -0.366 OA
HETATM   16  C1  UNL     1      27.110  -1.280  52.885  1.00  0.00     0.209 C 
ENDBRANCH  14  15
ENDBRANCH  12  13
ENDBRANCH  10  12
ENDBRANCH   1  10
BRANCH   7  17
HETATM   17  C10 UNL     1      22.287   1.249  52.206  1.00  0.00     0.029 A 
HETATM   18  C11 UNL     1      21.084   1.641  52.815  1.00  0.00     0.154 A 
HETATM   19  N3  UNL     1      20.786   0.662  53.698  1.00  0.00    -0.185 NA
HETATM   20  N4  UNL     1      21.681  -0.297  53.700  1.00  0.00    -0.285 N 
HETATM   21  C12 UNL     1      21.792  -1.538  54.456  1.00  0.00     0.179 C 
HETATM   22  C13 UNL     1      22.626   0.029  52.791  1.00  0.00     0.127 A 
ENDBRANCH   7  17
TORSDOF 5
ENDMDL
MODEL 6
REMARK VINA RESULT:      -6.7      3.086      5.779
REMARK  5 active torsions:
REMARK  status: ('A' for Active; 'I' for Inactive)
REMARK    1  A    between atoms: O1_2  and  C2_3 
REMARK    2  A    between atoms: C3_4  and  O2_5 
REMARK    3  A    between atoms: O2_5  and  N1_6 
REMARK    4  A    between atoms: N1_6  and  C4_7 
REMARK    5  A    between atoms: C9_13  and  C10_14 
ROOT
HETATM    1  C4  UNL     1      23.723   3.547  52.353  1.00  0.00     0.763 A 
HETATM    2  N2  UNL     1      22.399   3.279  52.078  1.00  0.00    -0.070 NA
HETATM    3  C5  UNL     1      21.886   2.052  52.274  1.00  0.00     0.168 A 
HETATM    4  C6  UNL     1      22.729   1.102  52.752  1.00  0.00     0.077 A 
HETATM    5  C7  UNL     1      22.387  -0.231  53.020  1.00  0.00     0.035 A 
HETATM    6  C8  UNL     1      23.554  -0.813  53.482  1.00  0.00     0.035 A 
HETATM    7  C9  UNL     1      24.547   0.158  53.481  1.00  0.00     0.072 A 
HETATM    8  N5  UNL     1      24.027   1.321  53.036  1.00  0.00    -0.216 N 
HETATM    9  N6  UNL     1      24.466   2.540  52.821  1.00  0.00     0.029 NA
ENDROOT
BRANCH   1  10
HETATM   10  N1  UNL     1      24.118   4.892  52.105  1.00  0.00    -0.086 N 
HETATM   11  H6  UNL     1      24.793   5.096  52.877  1.00  0.00     0.214 HD
BRANCH  10  12
HETATM   12  O2  UNL     1      23.828   5.875  51.156  1.00  0.00    -0.234 OA
BRANCH  12  13
HETATM   13  C3  UNL     1      24.798   6.823  50.810  1.00  0.00     0.192 C 
HETATM   14  C2  UNL     1      25.725   6.531  49.919  1.00  0.00     0.160 C 
BRANCH  14  15
HETATM   15  O1  UNL     1      25.399   5.205  49.562  1.00  0.00    -0.366 OA
HETATM   16  C1  UNL     1      26.451   4.264  49.375  1.00  0.00     0.209 C 
ENDBRANCH  14  15
ENDBRANCH  12  13
ENDBRANCH  10  12
ENDBRANCH   1  10
BRANCH   7  17
HETATM   17  C10 UNL     1      25.934  -0.048  53.901  1.00  0.00     0.029 A 
HETATM   18  C11 UNL     1      26.575   0.302  55.101  1.00  0.00     0.154 A 
HETATM   19  N3  UNL     1      27.853  -0.113  54.966  1.00  0.00    -0.185 NA
HETATM   20  N4  UNL     1      28.073  -0.685  53.805  1.00  0.00    -0.285 N 
HETATM   21  C12 UNL     1      29.262  -1.283  53.212  1.00  0.00     0.179 C 
HETATM   22  C13 UNL     1      26.909  -0.664  53.118  1.00  0.00     0.127 A 
ENDBRANCH   7  17
TORSDOF 5
ENDMDL
MODEL 7
REMARK VINA RESULT:      -6.7      1.359      2.218
REMARK  5 active torsions:
REMARK  status: ('A' for Active; 'I' for Inactive)
REMARK    1  A    between atoms: O1_2  and  C2_3 
REMARK    2  A    between atoms: C3_4  and  O2_5 
REMARK    3  A    between atoms: O2_5  and  N1_6 
REMARK    4  A    between atoms: N1_6  and  C4_7 
REMARK    5  A    between atoms: C9_13  and  C10_14 
ROOT
HETATM    1  C4  UNL     1      23.582  -0.899  54.575  1.00  0.00     0.763 A 
HETATM    2  N2  UNL     1      22.546  -1.571  55.188  1.00  0.00    -0.070 NA
HETATM    3  C5  UNL     1      21.284  -1.456  54.740  1.00  0.00     0.168 A 
HETATM    4  C6  UNL     1      21.085  -0.653  53.664  1.00  0.00     0.077 A 
HETATM    5  C7  UNL     1      19.849  -0.403  53.052  1.00  0.00     0.035 A 
HETATM    6  C8  UNL     1      20.135   0.464  52.011  1.00  0.00     0.035 A 
HETATM    7  C9  UNL     1      21.502   0.710  52.021  1.00  0.00     0.072 A 
HETATM    8  N5  UNL     1      22.067   0.019  53.034  1.00  0.00    -0.216 N 
HETATM    9  N6  UNL     1      23.276  -0.135  53.522  1.00  0.00     0.029 NA
ENDROOT
BRANCH   1  10
HETATM   10  N1  UNL     1      24.862  -1.128  55.156  1.00  0.00    -0.086 N 
HETATM   11  H6  UNL     1      24.637  -1.511  56.101  1.00  0.00     0.214 HD
BRANCH  10  12
HETATM   12  O2  UNL     1      26.194  -0.971  54.767  1.00  0.00    -0.234 OA
BRANCH  12  13
HETATM   13  C3  UNL     1      26.823   0.272  54.907  1.00  0.00     0.192 C 
HETATM   14  C2  UNL     1      28.091   0.416  54.577  1.00  0.00     0.160 C 
BRANCH  14  15
HETATM   15  O1  UNL     1      28.441  -0.878  54.137  1.00  0.00    -0.366 OA
HETATM   16  C1  UNL     1      29.753  -1.100  53.626  1.00  0.00     0.209 C 
ENDBRANCH  14  15
ENDBRANCH  12  13
ENDBRANCH  10  12
ENDBRANCH   1  10
BRANCH   7  17
HETATM   17  C10 UNL     1      22.213   1.576  51.080  1.00  0.00     0.029 A 
HETATM   18  C11 UNL     1      22.194   1.591  49.677  1.00  0.00     0.154 A 
HETATM   19  N3  UNL     1      23.033   2.584  49.311  1.00  0.00    -0.185 NA
HETATM   20  N4  UNL     1      23.573   3.187  50.343  1.00  0.00    -0.285 N 
HETATM   21  C12 UNL     1      24.514   4.294  50.455  1.00  0.00     0.179 C 
HETATM   22  C13 UNL     1      23.091   2.592  51.457  1.00  0.00     0.127 A 
ENDBRANCH   7  17
TORSDOF 5
ENDMDL
MODEL 8
REMARK VINA RESULT:      -6.6      3.091      5.730
REMARK  5 active torsions:
REMARK  status: ('A' for Active; 'I' for Inactive)
REMARK    1  A    between atoms: O1_2  and  C2_3 
REMARK    2  A    between atoms: C3_4  and  O2_5 
REMARK    3  A    between atoms: O2_5  and  N1_6 
REMARK    4  A    between atoms: N1_6  and  C4_7 
REMARK    5  A    between atoms: C9_13  and  C10_14 
ROOT
HETATM    1  C4  UNL     1      25.015   2.963  51.678  1.00  0.00     0.763 A 
HETATM    2  N2  UNL     1      26.349   2.792  51.379  1.00  0.00    -0.070 NA
HETATM    3  C5  UNL     1      26.993   1.659  51.710  1.00  0.00     0.168 A 
HETATM    4  C6  UNL     1      26.269   0.704  52.346  1.00  0.00     0.077 A 
HETATM    5  C7  UNL     1      26.757  -0.539  52.773  1.00  0.00     0.035 A 
HETATM    6  C8  UNL     1      25.673  -1.164  53.363  1.00  0.00     0.035 A 
HETATM    7  C9  UNL     1      24.584  -0.305  53.281  1.00  0.00     0.072 A 
HETATM    8  N5  UNL     1      24.965   0.829  52.655  1.00  0.00    -0.216 N 
HETATM    9  N6  UNL     1      24.395   1.960  52.306  1.00  0.00     0.029 NA
ENDROOT
BRANCH   1  10
HETATM   10  N1  UNL     1      24.469   4.209  51.256  1.00  0.00    -0.086 N 
HETATM   11  H6  UNL     1      24.659   4.224  50.228  1.00  0.00     0.214 HD
BRANCH  10  12
HETATM   12  O2  UNL     1      23.808   5.282  51.857  1.00  0.00    -0.234 OA
BRANCH  12  13
HETATM   13  C3  UNL     1      22.726   5.891  51.212  1.00  0.00     0.192 C 
HETATM   14  C2  UNL     1      21.499   5.455  51.416  1.00  0.00     0.160 C 
BRANCH  14  15
HETATM   15  O1  UNL     1      21.699   4.396  52.328  1.00  0.00    -0.366 OA
HETATM   16  C1  UNL     1      20.880   3.235  52.223  1.00  0.00     0.209 C 
ENDBRANCH  14  15
ENDBRANCH  12  13
ENDBRANCH  10  12
ENDBRANCH   1  10
BRANCH   7  17
HETATM   17  C10 UNL     1      23.241  -0.588  53.788  1.00  0.00     0.029 A 
HETATM   18  C11 UNL     1      22.839  -1.155  55.007  1.00  0.00     0.154 A 
HETATM   19  N3  UNL     1      21.489  -1.197  54.963  1.00  0.00    -0.185 NA
HETATM   20  N4  UNL     1      21.012  -0.715  53.839  1.00  0.00    -0.285 N 
HETATM   21  C12 UNL     1      19.653  -0.547  53.339  1.00  0.00     0.179 C 
HETATM   22  C13 UNL     1      22.065  -0.328  53.086  1.00  0.00     0.127 A 
ENDBRANCH   7  17
TORSDOF 5
ENDMDL
MODEL 9
REMARK VINA RESULT:      -6.5      1.900      2.630
REMARK  5 active torsions:
REMARK  status: ('A' for Active; 'I' for Inactive)
REMARK    1  A    between atoms: O1_2  and  C2_3 
REMARK    2  A    between atoms: C3_4  and  O2_5 
REMARK    3  A    between atoms: O2_5  and  N1_6 
REMARK    4  A    between atoms: N1_6  and  C4_7 
REMARK    5  A    between atoms: C9_13  and  C10_14 
ROOT
HETATM    1  C4  UNL     1      25.579   0.711  52.655  1.00  0.00     0.763 A 
HETATM    2  N2  UNL     1      26.011  -0.094  53.688  1.00  0.00    -0.070 NA
HETATM    3  C5  UNL     1      25.135  -0.751  54.467  1.00  0.00     0.168 A 
HETATM    4  C6  UNL     1      23.817  -0.584  54.187  1.00  0.00     0.077 A 
HETATM    5  C7  UNL     1      22.755  -1.178  54.881  1.00  0.00     0.035 A 
HETATM    6  C8  UNL     1      21.613  -0.721  54.248  1.00  0.00     0.035 A 
HETATM    7  C9  UNL     1      22.005   0.119  53.212  1.00  0.00     0.072 A 
HETATM    8  N5  UNL     1      23.352   0.190  53.188  1.00  0.00    -0.216 N 
HETATM    9  N6  UNL     1      24.259   0.805  52.465  1.00  0.00     0.029 NA
ENDROOT
BRANCH   1  10
HETATM   10  N1  UNL     1      26.623   1.332  51.912  1.00  0.00    -0.086 N 
HETATM   11  H6  UNL     1      26.323   1.209  50.919  1.00  0.00     0.214 HD
BRANCH  10  12
HETATM   12  O2  UNL     1      27.817   1.995  52.203  1.00  0.00    -0.234 OA
BRANCH  12  13
HETATM   13  C3  UNL     1      28.127   2.335  53.524  1.00  0.00     0.192 C 
HETATM   14  C2  UNL     1      28.984   1.609  54.214  1.00  0.00     0.160 C 
BRANCH  14  15
HETATM   15  O1  UNL     1      29.355   0.612  53.287  1.00  0.00    -0.366 OA
HETATM   16  C1  UNL     1      29.745  -0.669  53.774  1.00  0.00     0.209 C 
ENDBRANCH  14  15
ENDBRANCH  12  13
ENDBRANCH  10  12
ENDBRANCH   1  10
BRANCH   7  17
HETATM   17  C10 UNL     1      21.098   0.811  52.295  1.00  0.00     0.029 A 
HETATM   18  C11 UNL     1      20.721   0.484  50.982  1.00  0.00     0.154 A 
HETATM   19  N3  UNL     1      19.870   1.459  50.594  1.00  0.00    -0.185 NA
HETATM   20  N4  UNL     1      19.681   2.358  51.530  1.00  0.00    -0.285 N 
HETATM   21  C12 UNL     1      18.866   3.565  51.585  1.00  0.00     0.179 C 
HETATM   22  C13 UNL     1      20.424   1.993  52.599  1.00  0.00     0.127 A 
ENDBRANCH   7  17
TORSDOF 5
ENDMDL
