MODEL 1
REMARK VINA RESULT:      -9.5      0.000      0.000
REMARK  5 active torsions:
REMARK  status: ('A' for Active; 'I' for Inactive)
REMARK    1  A    between atoms: C2_2  and  C3_3 
REMARK       I    between atoms: C3_3  and  N1_5 
REMARK    2  A    between atoms: N1_5  and  C4_6 
REMARK    3  A    between atoms: C4_6  and  C5_7 
REMARK    4  A    between atoms: N4_16  and  C12_17 
REMARK    5  A    between atoms: C12_17  and  C13_18 
ROOT
HETATM    1  C5  UNL     1      20.181  -0.585  53.306  1.00  0.00     0.140 A 
HETATM    2  C6  UNL     1      21.455  -0.003  53.065  1.00  0.00     0.008 A 
HETATM    3  C7  UNL     1      22.559   0.606  52.834  1.00  0.00     0.045 C 
HETATM    4  C8  UNL     1      22.838   2.039  52.529  1.00  0.00     0.360 A 
HETATM    5  C9  UNL     1      23.305   3.367  52.208  1.00  0.00     0.203 A 
HETATM    6  C10 UNL     1      22.392   4.588  52.191  1.00  0.00     0.159 A 
HETATM    7  N2  UNL     1      21.502   4.071  51.355  1.00  0.00    -0.228 NA
HETATM    8  C11 UNL     1      21.964   2.702  51.002  1.00  0.00     0.215 A 
HETATM    9  N3  UNL     1      22.881   1.745  51.127  1.00  0.00    -0.028 NA
HETATM   10  N4  UNL     1      24.026   2.091  52.070  1.00  0.00     0.066 N 
HETATM   11  N6  UNL     1      21.126   1.589  50.606  1.00  0.00    -0.308 N 
HETATM   12  S1  UNL     1      20.228   0.789  51.956  1.00  0.00    -0.079 SA
HETATM   13  H18 UNL     1      20.939   1.166  49.647  1.00  0.00     0.176 HD
ENDROOT
BRANCH  10  14
HETATM   14  C12 UNL     1      25.084   2.542  53.007  1.00  0.00     0.309 C 
BRANCH  14  15
HETATM   15  C13 UNL     1      26.241   1.709  53.160  1.00  0.00    -0.012 A 
HETATM   16  C14 UNL     1      27.452   2.190  53.610  1.00  0.00     0.126 A 
HETATM   17  N5  UNL     1      28.553   1.385  53.765  1.00  0.00    -0.260 NA
HETATM   18  C15 UNL     1      28.505   0.086  53.483  1.00  0.00     0.066 A 
HETATM   19  C16 UNL     1      29.560  -0.827  53.606  1.00  0.00     0.032 A 
HETATM   20  C20 UNL     1      27.342  -0.509  53.022  1.00  0.00    -0.007 A 
HETATM   21  C17 UNL     1      29.372  -2.141  53.284  1.00  0.00     0.002 A 
HETATM   22  C18 UNL     1      28.211  -2.699  52.831  1.00  0.00     0.001 A 
HETATM   23  C19 UNL     1      27.122  -1.821  52.691  1.00  0.00     0.014 A 
HETATM   24  C21 UNL     1      26.239   0.342  52.877  1.00  0.00     0.024 A 
ENDBRANCH  14  15
ENDBRANCH  10  14
BRANCH   1  25
HETATM   25  C4  UNL     1      18.927  -0.891  53.486  1.00  0.00     0.086 C 
BRANCH  25  26
HETATM   26  N1  UNL     1      18.685  -2.213  53.923  1.00  0.00    -0.336 N 
HETATM   27  C3  UNL     1      17.475  -2.702  53.438  1.00  0.00     0.244 C 
HETATM   28  O1  UNL     1      16.398  -2.651  52.796  1.00  0.00    -0.268 OA
HETATM   29  H4  UNL     1      19.274  -2.820  54.524  1.00  0.00     0.168 HD
BRANCH  27  30
HETATM   30  C2  UNL     1      17.084  -4.083  53.814  1.00  0.00     0.064 C 
HETATM   31  C1  UNL     1      15.920  -4.745  53.913  1.00  0.00     0.017 C 
ENDBRANCH  27  30
ENDBRANCH  25  26
ENDBRANCH   1  25
TORSDOF 5
ENDMDL
MODEL 2
REMARK VINA RESULT:      -9.0      4.231      7.329
REMARK  5 active torsions:
REMARK  status: ('A' for Active; 'I' for Inactive)
REMARK    1  A    between atoms: C2_2  and  C3_3 
REMARK       I    between atoms: C3_3  and  N1_5 
REMARK    2  A    between atoms: N1_5  and  C4_6 
REMARK    3  A    between atoms: C4_6  and  C5_7 
REMARK    4  A    between atoms: N4_16  and  C12_17 
REMARK    5  A    between atoms: C12_17  and  C13_18 
ROOT
HETATM    1  C5  UNL     1      25.308   0.796  53.359  1.00  0.00     0.140 A 
HETATM    2  C6  UNL     1      24.828   1.741  52.413  1.00  0.00     0.008 A 
HETATM    3  C7  UNL     1      24.307   2.586  51.601  1.00  0.00     0.045 C 
HETATM    4  C8  UNL     1      22.919   3.123  51.510  1.00  0.00     0.360 A 
HETATM    5  C9  UNL     1      21.640   3.741  51.250  1.00  0.00     0.203 A 
HETATM    6  C10 UNL     1      20.427   3.556  52.157  1.00  0.00     0.159 A 
HETATM    7  N2  UNL     1      20.446   2.231  52.125  1.00  0.00    -0.228 NA
HETATM    8  C11 UNL     1      21.586   1.820  51.264  1.00  0.00     0.215 A 
HETATM    9  N3  UNL     1      22.606   2.172  50.484  1.00  0.00    -0.028 NA
HETATM   10  N4  UNL     1      22.816   3.676  50.366  1.00  0.00     0.066 N 
HETATM   11  N6  UNL     1      22.331   0.581  51.361  1.00  0.00    -0.308 N 
HETATM   12  S1  UNL     1      23.513   0.502  52.727  1.00  0.00    -0.079 SA
HETATM   13  H18 UNL     1      22.293  -0.302  50.765  1.00  0.00     0.176 HD
ENDROOT
BRANCH  10  14
HETATM   14  C12 UNL     1      22.918   5.156  50.329  1.00  0.00     0.309 C 
BRANCH  14  15
HETATM   15  C13 UNL     1      24.069   5.731  49.695  1.00  0.00    -0.012 A 
HETATM   16  C14 UNL     1      24.093   7.027  49.226  1.00  0.00     0.126 A 
HETATM   17  N5  UNL     1      25.201   7.575  48.631  1.00  0.00    -0.260 NA
HETATM   18  C15 UNL     1      26.320   6.872  48.474  1.00  0.00     0.066 A 
HETATM   19  C16 UNL     1      27.508   7.327  47.888  1.00  0.00     0.032 A 
HETATM   20  C20 UNL     1      26.414   5.559  48.906  1.00  0.00    -0.007 A 
HETATM   21  C17 UNL     1      28.589   6.498  47.794  1.00  0.00     0.002 A 
HETATM   22  C18 UNL     1      28.651   5.206  48.230  1.00  0.00     0.001 A 
HETATM   23  C19 UNL     1      27.482   4.703  48.827  1.00  0.00     0.014 A 
HETATM   24  C21 UNL     1      25.264   5.034  49.510  1.00  0.00     0.024 A 
ENDBRANCH  14  15
ENDBRANCH  10  14
BRANCH   1  25
HETATM   25  C4  UNL     1      25.518  -0.070  54.310  1.00  0.00     0.086 C 
BRANCH  25  26
HETATM   26  N1  UNL     1      26.766  -0.732  54.260  1.00  0.00    -0.336 N 
HETATM   27  C3  UNL     1      27.824   0.148  54.469  1.00  0.00     0.244 C 
HETATM   28  O1  UNL     1      28.353   1.264  54.691  1.00  0.00    -0.268 OA
HETATM   29  H4  UNL     1      26.965  -1.738  54.098  1.00  0.00     0.168 HD
BRANCH  27  30
HETATM   30  C2  UNL     1      29.200  -0.404  54.446  1.00  0.00     0.064 C 
HETATM   31  C1  UNL     1      30.133  -0.585  53.497  1.00  0.00     0.017 C 
ENDBRANCH  27  30
ENDBRANCH  25  26
ENDBRANCH   1  25
TORSDOF 5
ENDMDL
MODEL 3
REMARK VINA RESULT:      -9.0      4.186      7.261
REMARK  5 active torsions:
REMARK  status: ('A' for Active; 'I' for Inactive)
REMARK    1  A    between atoms: C2_2  and  C3_3 
REMARK       I    between atoms: C3_3  and  N1_5 
REMARK    2  A    between atoms: N1_5  and  C4_6 
REMARK    3  A    between atoms: C4_6  and  C5_7 
REMARK    4  A    between atoms: N4_16  and  C12_17 
REMARK    5  A    between atoms: C12_17  and  C13_18 
ROOT
HETATM    1  C5  UNL     1      25.185   5.333  49.695  1.00  0.00     0.140 A 
HETATM    2  C6  UNL     1      24.828   4.341  50.647  1.00  0.00     0.008 A 
HETATM    3  C7  UNL     1      24.434   3.419  51.446  1.00  0.00     0.045 C 
HETATM    4  C8  UNL     1      23.335   2.419  51.316  1.00  0.00     0.360 A 
HETATM    5  C9  UNL     1      22.319   1.396  51.385  1.00  0.00     0.203 A 
HETATM    6  C10 UNL     1      21.390   1.066  50.220  1.00  0.00     0.159 A 
HETATM    7  N2  UNL     1      20.951   2.306  50.053  1.00  0.00    -0.228 NA
HETATM    8  C11 UNL     1      21.624   3.159  51.067  1.00  0.00     0.215 A 
HETATM    9  N3  UNL     1      22.467   3.254  52.094  1.00  0.00    -0.028 NA
HETATM   10  N4  UNL     1      23.136   1.942  52.481  1.00  0.00     0.066 N 
HETATM   11  N6  UNL     1      21.904   4.576  50.947  1.00  0.00    -0.308 N 
HETATM   12  S1  UNL     1      23.298   4.992  49.873  1.00  0.00    -0.079 SA
HETATM   13  H18 UNL     1      21.419   5.420  51.379  1.00  0.00     0.176 HD
ENDROOT
BRANCH  10  14
HETATM   14  C12 UNL     1      23.719   0.607  52.763  1.00  0.00     0.309 C 
BRANCH  14  15
HETATM   15  C13 UNL     1      25.097   0.550  53.158  1.00  0.00    -0.012 A 
HETATM   16  C14 UNL     1      25.708   1.550  53.883  1.00  0.00     0.126 A 
HETATM   17  N5  UNL     1      27.023   1.484  54.267  1.00  0.00    -0.260 NA
HETATM   18  C15 UNL     1      27.783   0.438  53.953  1.00  0.00     0.066 A 
HETATM   19  C16 UNL     1      29.130   0.262  54.293  1.00  0.00     0.032 A 
HETATM   20  C20 UNL     1      27.279  -0.628  53.226  1.00  0.00    -0.007 A 
HETATM   21  C17 UNL     1      29.794  -0.868  53.908  1.00  0.00     0.002 A 
HETATM   22  C18 UNL     1      29.268  -1.904  53.191  1.00  0.00     0.001 A 
HETATM   23  C19 UNL     1      27.917  -1.773  52.825  1.00  0.00     0.014 A 
HETATM   24  C21 UNL     1      25.932  -0.526  52.852  1.00  0.00     0.024 A 
ENDBRANCH  14  15
ENDBRANCH  10  14
BRANCH   1  25
HETATM   25  C4  UNL     1      25.325   6.153  48.692  1.00  0.00     0.086 C 
BRANCH  25  26
HETATM   26  N1  UNL     1      26.650   6.579  48.439  1.00  0.00    -0.336 N 
HETATM   27  C3  UNL     1      27.549   5.517  48.485  1.00  0.00     0.244 C 
HETATM   28  O1  UNL     1      27.895   4.320  48.631  1.00  0.00    -0.268 OA
HETATM   29  H4  UNL     1      27.000   7.534  48.234  1.00  0.00     0.168 HD
BRANCH  27  30
HETATM   30  C2  UNL     1      28.982   5.811  48.238  1.00  0.00     0.064 C 
HETATM   31  C1  UNL     1      29.664   6.860  47.754  1.00  0.00     0.017 C 
ENDBRANCH  27  30
ENDBRANCH  25  26
ENDBRANCH   1  25
TORSDOF 5
ENDMDL
MODEL 4
REMARK VINA RESULT:      -8.7      5.218      9.272
REMARK  5 active torsions:
REMARK  status: ('A' for Active; 'I' for Inactive)
REMARK    1  A    between atoms: C2_2  and  C3_3 
REMARK       I    between atoms: C3_3  and  N1_5 
REMARK    2  A    between atoms: N1_5  and  C4_6 
REMARK    3  A    between atoms: C4_6  and  C5_7 
REMARK    4  A    between atoms: N4_16  and  C12_17 
REMARK    5  A    between atoms: C12_17  and  C13_18 
ROOT
HETATM    1  C5  UNL     1      26.989   5.590  48.873  1.00  0.00     0.140 A 
HETATM    2  C6  UNL     1      25.881   5.098  49.614  1.00  0.00     0.008 A 
HETATM    3  C7  UNL     1      24.832   4.733  50.254  1.00  0.00     0.045 C 
HETATM    4  C8  UNL     1      23.490   5.373  50.373  1.00  0.00     0.360 A 
HETATM    5  C9  UNL     1      22.147   5.839  50.622  1.00  0.00     0.203 A 
HETATM    6  C10 UNL     1      21.548   7.060  49.931  1.00  0.00     0.159 A 
HETATM    7  N2  UNL     1      22.522   7.891  50.276  1.00  0.00    -0.228 NA
HETATM    8  C11 UNL     1      23.509   7.117  51.074  1.00  0.00     0.215 A 
HETATM    9  N3  UNL     1      23.867   5.959  51.625  1.00  0.00    -0.028 NA
HETATM   10  N4  UNL     1      22.903   4.811  51.355  1.00  0.00     0.066 N 
HETATM   11  N6  UNL     1      24.926   7.397  51.192  1.00  0.00    -0.308 N 
HETATM   12  S1  UNL     1      25.922   6.926  49.758  1.00  0.00    -0.079 SA
HETATM   13  H18 UNL     1      25.482   7.846  51.982  1.00  0.00     0.176 HD
ENDROOT
BRANCH  10  14
HETATM   14  C12 UNL     1      21.893   3.776  51.025  1.00  0.00     0.309 C 
BRANCH  14  15
HETATM   15  C13 UNL     1      21.732   2.683  51.940  1.00  0.00    -0.012 A 
HETATM   16  C14 UNL     1      20.511   2.330  52.473  1.00  0.00     0.126 A 
HETATM   17  N5  UNL     1      20.361   1.275  53.338  1.00  0.00    -0.260 NA
HETATM   18  C15 UNL     1      21.402   0.535  53.712  1.00  0.00     0.066 A 
HETATM   19  C16 UNL     1      21.367  -0.562  54.582  1.00  0.00     0.032 A 
HETATM   20  C20 UNL     1      22.679   0.796  53.241  1.00  0.00    -0.007 A 
HETATM   21  C17 UNL     1      22.515  -1.240  54.878  1.00  0.00     0.002 A 
HETATM   22  C18 UNL     1      23.762  -0.958  54.398  1.00  0.00     0.001 A 
HETATM   23  C19 UNL     1      23.847   0.136  53.519  1.00  0.00     0.014 A 
HETATM   24  C21 UNL     1      22.792   1.878  52.359  1.00  0.00     0.024 A 
ENDBRANCH  14  15
ENDBRANCH  10  14
BRANCH   1  25
HETATM   25  C4  UNL     1      27.857   6.229  48.140  1.00  0.00     0.086 C 
BRANCH  25  26
HETATM   26  N1  UNL     1      29.065   6.569  48.791  1.00  0.00    -0.336 N 
HETATM   27  C3  UNL     1      30.107   5.726  48.416  1.00  0.00     0.244 C 
HETATM   28  O1  UNL     1      30.638   4.774  47.795  1.00  0.00    -0.268 OA
HETATM   29  H4  UNL     1      29.247   7.331  49.472  1.00  0.00     0.168 HD
BRANCH  27  30
HETATM   30  C2  UNL     1      31.441   5.962  49.019  1.00  0.00     0.064 C 
HETATM   31  C1  UNL     1      32.383   6.912  48.896  1.00  0.00     0.017 C 
ENDBRANCH  27  30
ENDBRANCH  25  26
ENDBRANCH   1  25
TORSDOF 5
ENDMDL
MODEL 5
REMARK VINA RESULT:      -8.6      5.542      9.447
REMARK  5 active torsions:
REMARK  status: ('A' for Active; 'I' for Inactive)
REMARK    1  A    between atoms: C2_2  and  C3_3 
REMARK       I    between atoms: C3_3  and  N1_5 
REMARK    2  A    between atoms: N1_5  and  C4_6 
REMARK    3  A    between atoms: C4_6  and  C5_7 
REMARK    4  A    between atoms: N4_16  and  C12_17 
REMARK    5  A    between atoms: C12_17  and  C13_18 
ROOT
HETATM    1  C5  UNL     1      28.090   5.386  48.583  1.00  0.00     0.140 A 
HETATM    2  C6  UNL     1      26.963   4.746  49.166  1.00  0.00     0.008 A 
HETATM    3  C7  UNL     1      25.892   4.212  49.625  1.00  0.00     0.045 C 
HETATM    4  C8  UNL     1      24.477   4.311  49.163  1.00  0.00     0.360 A 
HETATM    5  C9  UNL     1      23.061   4.294  48.885  1.00  0.00     0.203 A 
HETATM    6  C10 UNL     1      22.447   4.958  47.656  1.00  0.00     0.159 A 
HETATM    7  N2  UNL     1      22.977   6.153  47.879  1.00  0.00    -0.228 NA
HETATM    8  C11 UNL     1      23.784   6.058  49.124  1.00  0.00     0.215 A 
HETATM    9  N3  UNL     1      24.215   5.321  50.146  1.00  0.00    -0.028 NA
HETATM   10  N4  UNL     1      23.751   3.871  50.114  1.00  0.00     0.066 N 
HETATM   11  N6  UNL     1      24.938   6.867  49.463  1.00  0.00    -0.308 N 
HETATM   12  S1  UNL     1      26.465   6.419  48.604  1.00  0.00    -0.079 SA
HETATM   13  H18 UNL     1      25.037   7.692  50.129  1.00  0.00     0.176 HD
ENDROOT
BRANCH  10  14
HETATM   14  C12 UNL     1      23.236   2.487  49.974  1.00  0.00     0.309 C 
BRANCH  14  15
HETATM   15  C13 UNL     1      23.308   1.627  51.119  1.00  0.00    -0.012 A 
HETATM   16  C14 UNL     1      24.475   1.419  51.824  1.00  0.00     0.126 A 
HETATM   17  N5  UNL     1      24.535   0.604  52.926  1.00  0.00    -0.260 NA
HETATM   18  C15 UNL     1      23.457  -0.034  53.374  1.00  0.00     0.066 A 
HETATM   19  C16 UNL     1      23.400  -0.883  54.486  1.00  0.00     0.032 A 
HETATM   20  C20 UNL     1      22.228   0.098  52.747  1.00  0.00    -0.007 A 
HETATM   21  C17 UNL     1      22.220  -1.474  54.839  1.00  0.00     0.002 A 
HETATM   22  C18 UNL     1      21.023  -1.324  54.199  1.00  0.00     0.001 A 
HETATM   23  C19 UNL     1      21.029  -0.480  53.076  1.00  0.00     0.014 A 
HETATM   24  C21 UNL     1      22.205   0.938  51.626  1.00  0.00     0.024 A 
ENDBRANCH  14  15
ENDBRANCH  10  14
BRANCH   1  25
HETATM   25  C4  UNL     1      28.959   6.068  47.892  1.00  0.00     0.086 C 
BRANCH  25  26
HETATM   26  N1  UNL     1      30.138   6.423  48.587  1.00  0.00    -0.336 N 
HETATM   27  C3  UNL     1      31.144   5.477  48.411  1.00  0.00     0.244 C 
HETATM   28  O1  UNL     1      31.650   4.419  47.965  1.00  0.00    -0.268 OA
HETATM   29  H4  UNL     1      30.323   7.260  49.173  1.00  0.00     0.168 HD
BRANCH  27  30
HETATM   30  C2  UNL     1      32.445   5.715  49.082  1.00  0.00     0.064 C 
HETATM   31  C1  UNL     1      33.612   6.271  48.718  1.00  0.00     0.017 C 
ENDBRANCH  27  30
ENDBRANCH  25  26
ENDBRANCH   1  25
TORSDOF 5
ENDMDL
MODEL 6
REMARK VINA RESULT:      -8.6      6.143      9.955
REMARK  5 active torsions:
REMARK  status: ('A' for Active; 'I' for Inactive)
REMARK    1  A    between atoms: C2_2  and  C3_3 
REMARK       I    between atoms: C3_3  and  N1_5 
REMARK    2  A    between atoms: N1_5  and  C4_6 
REMARK    3  A    between atoms: C4_6  and  C5_7 
REMARK    4  A    between atoms: N4_16  and  C12_17 
REMARK    5  A    between atoms: C12_17  and  C13_18 
ROOT
HETATM    1  C5  UNL     1      29.305   5.501  48.071  1.00  0.00     0.140 A 
HETATM    2  C6  UNL     1      28.046   5.092  48.589  1.00  0.00     0.008 A 
HETATM    3  C7  UNL     1      26.872   4.799  49.010  1.00  0.00     0.045 C 
HETATM    4  C8  UNL     1      25.557   5.461  48.773  1.00  0.00     0.360 A 
HETATM    5  C9  UNL     1      24.206   5.964  48.677  1.00  0.00     0.203 A 
HETATM    6  C10 UNL     1      23.813   7.123  47.767  1.00  0.00     0.159 A 
HETATM    7  N2  UNL     1      24.713   7.971  48.245  1.00  0.00    -0.228 NA
HETATM    8  C11 UNL     1      25.476   7.263  49.306  1.00  0.00     0.215 A 
HETATM    9  N3  UNL     1      25.667   6.156  50.022  1.00  0.00    -0.028 NA
HETATM   10  N4  UNL     1      24.751   4.999  49.646  1.00  0.00     0.066 N 
HETATM   11  N6  UNL     1      26.840   7.537  49.710  1.00  0.00    -0.308 N 
HETATM   12  S1  UNL     1      28.111   6.924  48.579  1.00  0.00    -0.079 SA
HETATM   13  H18 UNL     1      27.223   8.050  50.561  1.00  0.00     0.176 HD
ENDROOT
BRANCH  10  14
HETATM   14  C12 UNL     1      23.806   3.950  49.192  1.00  0.00     0.309 C 
BRANCH  14  15
HETATM   15  C13 UNL     1      23.424   2.940  50.136  1.00  0.00    -0.012 A 
HETATM   16  C14 UNL     1      22.134   2.465  50.240  1.00  0.00     0.126 A 
HETATM   17  N5  UNL     1      21.778   1.490  51.138  1.00  0.00    -0.260 NA
HETATM   18  C15 UNL     1      22.671   0.951  51.964  1.00  0.00     0.066 A 
HETATM   19  C16 UNL     1      22.422  -0.048  52.913  1.00  0.00     0.032 A 
HETATM   20  C20 UNL     1      23.998   1.349  51.952  1.00  0.00    -0.007 A 
HETATM   21  C17 UNL     1      23.437  -0.517  53.698  1.00  0.00     0.002 A 
HETATM   22  C18 UNL     1      24.738  -0.104  53.662  1.00  0.00     0.001 A 
HETATM   23  C19 UNL     1      25.037   0.899  52.724  1.00  0.00     0.014 A 
HETATM   24  C21 UNL     1      24.325   2.345  51.022  1.00  0.00     0.024 A 
ENDBRANCH  14  15
ENDBRANCH  10  14
BRANCH   1  25
HETATM   25  C4  UNL     1      30.331   6.060  47.495  1.00  0.00     0.086 C 
BRANCH  25  26
HETATM   26  N1  UNL     1      31.595   5.599  47.932  1.00  0.00    -0.336 N 
HETATM   27  C3  UNL     1      31.900   4.350  47.397  1.00  0.00     0.244 C 
HETATM   28  O1  UNL     1      31.694   3.323  46.707  1.00  0.00    -0.268 OA
HETATM   29  H4  UNL     1      32.275   6.062  48.564  1.00  0.00     0.168 HD
BRANCH  27  30
HETATM   30  C2  UNL     1      33.198   3.736  47.767  1.00  0.00     0.064 C 
HETATM   31  C1  UNL     1      34.434   3.743  47.242  1.00  0.00     0.017 C 
ENDBRANCH  27  30
ENDBRANCH  25  26
ENDBRANCH   1  25
TORSDOF 5
ENDMDL
MODEL 7
REMARK VINA RESULT:      -8.6      3.654      5.963
REMARK  5 active torsions:
REMARK  status: ('A' for Active; 'I' for Inactive)
REMARK    1  A    between atoms: C2_2  and  C3_3 
REMARK       I    between atoms: C3_3  and  N1_5 
REMARK    2  A    between atoms: N1_5  and  C4_6 
REMARK    3  A    between atoms: C4_6  and  C5_7 
REMARK    4  A    between atoms: N4_16  and  C12_17 
REMARK    5  A    between atoms: C12_17  and  C13_18 
ROOT
HETATM    1  C5  UNL     1      22.946   4.880  48.215  1.00  0.00     0.140 A 
HETATM    2  C6  UNL     1      23.326   4.187  49.396  1.00  0.00     0.008 A 
HETATM    3  C7  UNL     1      23.574   3.551  50.481  1.00  0.00     0.045 C 
HETATM    4  C8  UNL     1      22.657   2.922  51.475  1.00  0.00     0.360 A 
HETATM    5  C9  UNL     1      21.942   2.274  52.548  1.00  0.00     0.203 A 
HETATM    6  C10 UNL     1      20.429   2.079  52.540  1.00  0.00     0.159 A 
HETATM    7  N2  UNL     1      20.137   3.357  52.339  1.00  0.00    -0.228 NA
HETATM    8  C11 UNL     1      21.421   4.101  52.259  1.00  0.00     0.215 A 
HETATM    9  N3  UNL     1      22.751   4.082  52.312  1.00  0.00    -0.028 NA
HETATM   10  N4  UNL     1      23.351   2.697  52.521  1.00  0.00     0.066 N 
HETATM   11  N6  UNL     1      21.654   5.335  51.536  1.00  0.00    -0.308 N 
HETATM   12  S1  UNL     1      21.807   5.154  49.743  1.00  0.00    -0.079 SA
HETATM   13  H18 UNL     1      21.741   6.338  51.882  1.00  0.00     0.176 HD
ENDROOT
BRANCH  10  14
HETATM   14  C12 UNL     1      23.815   1.304  52.727  1.00  0.00     0.309 C 
BRANCH  14  15
HETATM   15  C13 UNL     1      25.191   1.101  53.075  1.00  0.00    -0.012 A 
HETATM   16  C14 UNL     1      25.952   2.066  53.700  1.00  0.00     0.126 A 
HETATM   17  N5  UNL     1      27.266   1.862  54.041  1.00  0.00    -0.260 NA
HETATM   18  C15 UNL     1      27.876   0.709  53.782  1.00  0.00     0.066 A 
HETATM   19  C16 UNL     1      29.205   0.389  54.088  1.00  0.00     0.032 A 
HETATM   20  C20 UNL     1      27.212  -0.335  53.157  1.00  0.00    -0.007 A 
HETATM   21  C17 UNL     1      29.706  -0.841  53.768  1.00  0.00     0.002 A 
HETATM   22  C18 UNL     1      29.025  -1.851  53.151  1.00  0.00     0.001 A 
HETATM   23  C19 UNL     1      27.686  -1.577  52.824  1.00  0.00     0.014 A 
HETATM   24  C21 UNL     1      25.873  -0.091  52.825  1.00  0.00     0.024 A 
ENDBRANCH  14  15
ENDBRANCH  10  14
BRANCH   1  25
HETATM   25  C4  UNL     1      22.368   5.468  47.206  1.00  0.00     0.086 C 
BRANCH  25  26
HETATM   26  N1  UNL     1      22.202   4.666  46.053  1.00  0.00    -0.336 N 
HETATM   27  C3  UNL     1      20.868   4.596  45.662  1.00  0.00     0.244 C 
HETATM   28  O1  UNL     1      19.641   4.845  45.741  1.00  0.00    -0.268 OA
HETATM   29  H4  UNL     1      22.921   4.160  45.502  1.00  0.00     0.168 HD
BRANCH  27  30
HETATM   30  C2  UNL     1      20.538   3.787  44.463  1.00  0.00     0.064 C 
HETATM   31  C1  UNL     1      20.442   4.038  43.147  1.00  0.00     0.017 C 
ENDBRANCH  27  30
ENDBRANCH  25  26
ENDBRANCH   1  25
TORSDOF 5
ENDMDL
MODEL 8
REMARK VINA RESULT:      -8.5      5.738      9.340
REMARK  5 active torsions:
REMARK  status: ('A' for Active; 'I' for Inactive)
REMARK    1  A    between atoms: C2_2  and  C3_3 
REMARK       I    between atoms: C3_3  and  N1_5 
REMARK    2  A    between atoms: N1_5  and  C4_6 
REMARK    3  A    between atoms: C4_6  and  C5_7 
REMARK    4  A    between atoms: N4_16  and  C12_17 
REMARK    5  A    between atoms: C12_17  and  C13_18 
ROOT
HETATM    1  C5  UNL     1      27.138   6.714  48.428  1.00  0.00     0.140 A 
HETATM    2  C6  UNL     1      26.220   6.049  49.285  1.00  0.00     0.008 A 
HETATM    3  C7  UNL     1      25.325   5.513  50.029  1.00  0.00     0.045 C 
HETATM    4  C8  UNL     1      23.883   5.846  50.215  1.00  0.00     0.360 A 
HETATM    5  C9  UNL     1      22.488   6.021  50.542  1.00  0.00     0.203 A 
HETATM    6  C10 UNL     1      21.585   7.021  49.826  1.00  0.00     0.159 A 
HETATM    7  N2  UNL     1      22.365   8.072  50.039  1.00  0.00    -0.228 NA
HETATM    8  C11 UNL     1      23.551   7.601  50.802  1.00  0.00     0.215 A 
HETATM    9  N3  UNL     1      24.197   6.598  51.394  1.00  0.00    -0.028 NA
HETATM   10  N4  UNL     1      23.503   5.247  51.275  1.00  0.00     0.066 N 
HETATM   11  N6  UNL     1      24.871   8.197  50.788  1.00  0.00    -0.308 N 
HETATM   12  S1  UNL     1      25.854   7.846  49.311  1.00  0.00    -0.079 SA
HETATM   13  H18 UNL     1      25.361   8.818  51.501  1.00  0.00     0.176 HD
ENDROOT
BRANCH  10  14
HETATM   14  C12 UNL     1      22.735   3.992  51.092  1.00  0.00     0.309 C 
BRANCH  14  15
HETATM   15  C13 UNL     1      23.241   2.802  51.714  1.00  0.00    -0.012 A 
HETATM   16  C14 UNL     1      22.474   2.006  52.538  1.00  0.00     0.126 A 
HETATM   17  N5  UNL     1      22.960   0.863  53.120  1.00  0.00    -0.260 NA
HETATM   18  C15 UNL     1      24.213   0.463  52.916  1.00  0.00     0.066 A 
HETATM   19  C16 UNL     1      24.812  -0.684  53.452  1.00  0.00     0.032 A 
HETATM   20  C20 UNL     1      25.077   1.182  52.107  1.00  0.00    -0.007 A 
HETATM   21  C17 UNL     1      26.112  -0.981  53.157  1.00  0.00     0.002 A 
HETATM   22  C18 UNL     1      26.941  -0.251  52.354  1.00  0.00     0.001 A 
HETATM   23  C19 UNL     1      26.383   0.910  51.792  1.00  0.00     0.014 A 
HETATM   24  C21 UNL     1      24.546   2.342  51.529  1.00  0.00     0.024 A 
ENDBRANCH  14  15
ENDBRANCH  10  14
BRANCH   1  25
HETATM   25  C4  UNL     1      27.789   7.470  47.589  1.00  0.00     0.086 C 
BRANCH  25  26
HETATM   26  N1  UNL     1      29.179   7.574  47.823  1.00  0.00    -0.336 N 
HETATM   27  C3  UNL     1      29.467   8.525  48.798  1.00  0.00     0.244 C 
HETATM   28  O1  UNL     1      29.195   9.406  49.648  1.00  0.00    -0.268 OA
HETATM   29  H4  UNL     1      29.957   7.050  47.377  1.00  0.00     0.168 HD
BRANCH  27  30
HETATM   30  C2  UNL     1      30.891   8.746  49.152  1.00  0.00     0.064 C 
HETATM   31  C1  UNL     1      31.930   7.947  49.443  1.00  0.00     0.017 C 
ENDBRANCH  27  30
ENDBRANCH  25  26
ENDBRANCH   1  25
TORSDOF 5
ENDMDL
MODEL 9
REMARK VINA RESULT:      -8.4      8.172      9.942
REMARK  5 active torsions:
REMARK  status: ('A' for Active; 'I' for Inactive)
REMARK    1  A    between atoms: C2_2  and  C3_3 
REMARK       I    between atoms: C3_3  and  N1_5 
REMARK    2  A    between atoms: N1_5  and  C4_6 
REMARK    3  A    between atoms: C4_6  and  C5_7 
REMARK    4  A    between atoms: N4_16  and  C12_17 
REMARK    5  A    between atoms: C12_17  and  C13_18 
ROOT
HETATM    1  C5  UNL     1      27.093   4.277  49.109  1.00  0.00     0.140 A 
HETATM    2  C6  UNL     1      28.073   5.134  48.541  1.00  0.00     0.008 A 
HETATM    3  C7  UNL     1      28.916   5.981  48.078  1.00  0.00     0.045 C 
HETATM    4  C8  UNL     1      29.073   7.442  48.334  1.00  0.00     0.360 A 
HETATM    5  C9  UNL     1      29.374   8.850  48.436  1.00  0.00     0.203 A 
HETATM    6  C10 UNL     1      28.667   9.783  49.415  1.00  0.00     0.159 A 
HETATM    7  N2  UNL     1      27.440   9.482  49.013  1.00  0.00    -0.228 NA
HETATM    8  C11 UNL     1      27.560   8.479  47.922  1.00  0.00     0.215 A 
HETATM    9  N3  UNL     1      28.344   7.742  47.137  1.00  0.00    -0.028 NA
HETATM   10  N4  UNL     1      29.833   7.894  47.416  1.00  0.00     0.066 N 
HETATM   11  N6  UNL     1      26.576   7.478  47.564  1.00  0.00    -0.308 N 
HETATM   12  S1  UNL     1      26.492   6.054  48.676  1.00  0.00    -0.079 SA
HETATM   13  H18 UNL     1      25.881   7.443  46.757  1.00  0.00     0.176 HD
ENDROOT
BRANCH  10  14
HETATM   14  C12 UNL     1      31.252   8.127  47.779  1.00  0.00     0.309 C 
BRANCH  14  15
HETATM   15  C13 UNL     1      32.171   7.038  47.618  1.00  0.00    -0.012 A 
HETATM   16  C14 UNL     1      32.676   6.323  48.683  1.00  0.00     0.126 A 
HETATM   17  N5  UNL     1      33.546   5.274  48.522  1.00  0.00    -0.260 NA
HETATM   18  C15 UNL     1      33.951   4.893  47.313  1.00  0.00     0.066 A 
HETATM   19  C16 UNL     1      34.829   3.839  47.030  1.00  0.00     0.032 A 
HETATM   20  C20 UNL     1      33.512   5.537  46.168  1.00  0.00    -0.007 A 
HETATM   21  C17 UNL     1      35.160   3.550  45.736  1.00  0.00     0.002 A 
HETATM   22  C18 UNL     1      34.709   4.205  44.626  1.00  0.00     0.001 A 
HETATM   23  C19 UNL     1      33.825   5.271  44.860  1.00  0.00     0.014 A 
HETATM   24  C21 UNL     1      32.624   6.601  46.372  1.00  0.00     0.024 A 
ENDBRANCH  14  15
ENDBRANCH  10  14
BRANCH   1  25
HETATM   25  C4  UNL     1      26.113   3.694  49.741  1.00  0.00     0.086 C 
BRANCH  25  26
HETATM   26  N1  UNL     1      26.290   3.563  51.138  1.00  0.00    -0.336 N 
HETATM   27  C3  UNL     1      26.586   2.251  51.498  1.00  0.00     0.244 C 
HETATM   28  O1  UNL     1      26.802   1.033  51.293  1.00  0.00    -0.268 OA
HETATM   29  H4  UNL     1      26.229   4.291  51.875  1.00  0.00     0.168 HD
BRANCH  27  30
HETATM   30  C2  UNL     1      26.799   1.958  52.937  1.00  0.00     0.064 C 
HETATM   31  C1  UNL     1      25.995   1.769  53.995  1.00  0.00     0.017 C 
ENDBRANCH  27  30
ENDBRANCH  25  26
ENDBRANCH   1  25
TORSDOF 5
ENDMDL
