MODEL 1
REMARK VINA RESULT:      -7.3      0.000      0.000
REMARK  4 active torsions:
REMARK  status: ('A' for Active; 'I' for Inactive)
REMARK    1  A    between atoms: C2_2  and  C3_3 
REMARK    2  A    between atoms: C3_3  and  N1_4 
REMARK    3  A    between atoms: N1_4  and  C4_5 
REMARK    4  A    between atoms: C12_17  and  N6_18 
ROOT
HETATM    1  C4  UNL     1      27.198   2.069  52.078  1.00  0.00     0.129 C 
HETATM    2  N2  UNL     1      28.232   2.051  52.866  1.00  0.00    -0.223 NA
HETATM    3  C5  UNL     1      28.704   0.888  53.523  1.00  0.00     0.257 C 
HETATM    4  N3  UNL     1      28.337   0.246  54.600  1.00  0.00    -0.168 NA
HETATM    5  N4  UNL     1      27.236   0.797  55.287  1.00  0.00    -0.288 N 
HETATM    6  C6  UNL     1      26.095   0.022  55.035  1.00  0.00     0.117 C 
HETATM    7  C7  UNL     1      25.104  -0.299  54.217  1.00  0.00    -0.026 C 
HETATM    8  C8  UNL     1      24.086  -1.337  54.586  1.00  0.00     0.060 C 
HETATM    9  C9  UNL     1      22.682  -0.772  54.533  1.00  0.00     0.127 C 
HETATM   10  N5  UNL     1      22.589   0.347  53.622  1.00  0.00    -0.383 N 
HETATM   11  C10 UNL     1      21.460   1.236  53.663  1.00  0.00     0.125 C 
HETATM   12  C11 UNL     1      21.096   1.883  52.385  1.00  0.00     0.055 C 
HETATM   13  C12 UNL     1      21.856   1.505  51.166  1.00  0.00     0.225 C 
HETATM   14  C13 UNL     1      23.306   1.202  51.347  1.00  0.00     0.093 C 
HETATM   15  C14 UNL     1      23.617   0.596  52.658  1.00  0.00     0.021 C 
HETATM   16  C15 UNL     1      24.887   0.294  52.900  1.00  0.00     0.004 C 
HETATM   17  P1  UNL     1      26.194   0.603  51.694  1.00  0.00    -0.019 P 
HETATM   18  H8  UNL     1      27.167   1.646  55.914  1.00  0.00     0.188 HD
HETATM   19  H23 UNL     1      26.963  -0.565  51.364  1.00  0.00     0.070 HD
ENDROOT
BRANCH   1  20
HETATM   20  N1  UNL     1      26.831   3.330  51.475  1.00  0.00    -0.371 N 
HETATM   21  H6  UNL     1      27.107   4.214  51.980  1.00  0.00     0.161 HD
BRANCH  20  22
HETATM   22  C3  UNL     1      26.101   3.330  50.205  1.00  0.00     0.148 C 
BRANCH  22  23
HETATM   23  C2  UNL     1      26.956   4.061  49.227  1.00  0.00    -0.018 C 
HETATM   24  C1  UNL     1      26.672   5.310  48.872  1.00  0.00     0.008 C 
ENDBRANCH  22  23
ENDBRANCH  20  22
ENDBRANCH   1  20
BRANCH  13  25
HETATM   25  N6  UNL     1      21.249   0.357  50.486  1.00  0.00     0.083 N 
HETATM   26  H19 UNL     1      20.835   0.729  49.585  1.00  0.00     0.313 HD
HETATM   27  H20 UNL     1      22.051  -0.237  50.179  1.00  0.00     0.313 HD
ENDBRANCH  13  25
TORSDOF 4
ENDMDL
MODEL 2
REMARK VINA RESULT:      -7.2      2.082      4.925
REMARK  4 active torsions:
REMARK  status: ('A' for Active; 'I' for Inactive)
REMARK    1  A    between atoms: C2_2  and  C3_3 
REMARK    2  A    between atoms: C3_3  and  N1_4 
REMARK    3  A    between atoms: N1_4  and  C4_5 
REMARK    4  A    between atoms: C12_17  and  N6_18 
ROOT
HETATM    1  C4  UNL     1      24.034   4.530  51.107  1.00  0.00     0.129 C 
HETATM    2  N2  UNL     1      22.973   4.786  50.400  1.00  0.00    -0.223 NA
HETATM    3  C5  UNL     1      21.650   4.555  50.850  1.00  0.00     0.257 C 
HETATM    4  N3  UNL     1      20.892   3.494  50.924  1.00  0.00    -0.168 NA
HETATM    5  N4  UNL     1      21.481   2.297  50.467  1.00  0.00    -0.288 N 
HETATM    6  C6  UNL     1      21.844   1.507  51.567  1.00  0.00     0.117 C 
HETATM    7  C7  UNL     1      22.699   1.258  52.548  1.00  0.00    -0.026 C 
HETATM    8  C8  UNL     1      22.490   0.120  53.502  1.00  0.00     0.060 C 
HETATM    9  C9  UNL     1      23.678  -0.819  53.506  1.00  0.00     0.127 C 
HETATM   10  N5  UNL     1      24.894  -0.145  53.105  1.00  0.00    -0.383 N 
HETATM   11  C10 UNL     1      26.056  -0.896  52.717  1.00  0.00     0.125 C 
HETATM   12  C11 UNL     1      27.360  -0.249  52.966  1.00  0.00     0.055 C 
HETATM   13  C12 UNL     1      27.371   1.063  53.662  1.00  0.00     0.225 C 
HETATM   14  C13 UNL     1      26.237   1.987  53.369  1.00  0.00     0.093 C 
HETATM   15  C14 UNL     1      24.968   1.284  53.086  1.00  0.00     0.021 C 
HETATM   16  C15 UNL     1      23.907   2.033  52.815  1.00  0.00     0.004 C 
HETATM   17  P1  UNL     1      23.987   3.837  52.787  1.00  0.00    -0.019 P 
HETATM   18  H8  UNL     1      21.667   1.950  49.485  1.00  0.00     0.188 HD
HETATM   19  H23 UNL     1      23.036   4.471  53.657  1.00  0.00     0.070 HD
ENDROOT
BRANCH   1  20
HETATM   20  N1  UNL     1      25.322   4.817  50.518  1.00  0.00    -0.371 N 
HETATM   21  H6  UNL     1      25.660   5.816  50.540  1.00  0.00     0.161 HD
BRANCH  20  22
HETATM   22  C3  UNL     1      26.095   3.725  49.921  1.00  0.00     0.148 C 
BRANCH  22  23
HETATM   23  C2  UNL     1      27.113   4.361  49.038  1.00  0.00    -0.018 C 
HETATM   24  C1  UNL     1      27.002   5.635  48.676  1.00  0.00     0.008 C 
ENDBRANCH  22  23
ENDBRANCH  20  22
ENDBRANCH   1  20
BRANCH  13  25
HETATM   25  N6  UNL     1      27.441   0.901  55.118  1.00  0.00     0.083 N 
HETATM   26  H19 UNL     1      28.394   1.255  55.412  1.00  0.00     0.313 HD
HETATM   27  H20 UNL     1      26.771   1.603  55.505  1.00  0.00     0.313 HD
ENDBRANCH  13  25
TORSDOF 4
ENDMDL
MODEL 3
REMARK VINA RESULT:      -7.0      2.063      5.215
REMARK  4 active torsions:
REMARK  status: ('A' for Active; 'I' for Inactive)
REMARK    1  A    between atoms: C2_2  and  C3_3 
REMARK    2  A    between atoms: C3_3  and  N1_4 
REMARK    3  A    between atoms: N1_4  and  C4_5 
REMARK    4  A    between atoms: C12_17  and  N6_18 
ROOT
HETATM    1  C4  UNL     1      22.073   3.533  50.513  1.00  0.00     0.129 C 
HETATM    2  N2  UNL     1      20.890   3.230  50.063  1.00  0.00    -0.223 NA
HETATM    3  C5  UNL     1      19.850   2.707  50.870  1.00  0.00     0.257 C 
HETATM    4  N3  UNL     1      19.573   1.516  51.329  1.00  0.00    -0.168 NA
HETATM    5  N4  UNL     1      20.484   0.502  50.967  1.00  0.00    -0.288 N 
HETATM    6  C6  UNL     1      21.299   0.194  52.065  1.00  0.00     0.117 C 
HETATM    7  C7  UNL     1      22.338   0.508  52.826  1.00  0.00    -0.026 C 
HETATM    8  C8  UNL     1      22.739  -0.340  53.996  1.00  0.00     0.060 C 
HETATM    9  C9  UNL     1      24.176  -0.801  53.872  1.00  0.00     0.127 C 
HETATM   10  N5  UNL     1      24.960   0.101  53.059  1.00  0.00    -0.383 N 
HETATM   11  C10 UNL     1      26.236  -0.302  52.535  1.00  0.00     0.125 C 
HETATM   12  C11 UNL     1      27.221   0.778  52.320  1.00  0.00     0.055 C 
HETATM   13  C12 UNL     1      26.853   2.156  52.735  1.00  0.00     0.225 C 
HETATM   14  C13 UNL     1      25.421   2.545  52.573  1.00  0.00     0.093 C 
HETATM   15  C14 UNL     1      24.484   1.417  52.756  1.00  0.00     0.021 C 
HETATM   16  C15 UNL     1      23.190   1.678  52.629  1.00  0.00     0.004 C 
HETATM   17  P1  UNL     1      22.576   3.333  52.248  1.00  0.00    -0.019 P 
HETATM   18  H8  UNL     1      20.618  -0.012  50.052  1.00  0.00     0.188 HD
HETATM   19  H23 UNL     1      21.618   3.827  53.198  1.00  0.00     0.070 HD
ENDROOT
BRANCH   1  20
HETATM   20  N1  UNL     1      23.036   4.059  49.574  1.00  0.00    -0.371 N 
HETATM   21  H6  UNL     1      22.786   4.944  49.058  1.00  0.00     0.161 HD
BRANCH  20  22
HETATM   22  C3  UNL     1      24.305   3.351  49.379  1.00  0.00     0.148 C 
BRANCH  22  23
HETATM   23  C2  UNL     1      25.382   4.375  49.493  1.00  0.00    -0.018 C 
HETATM   24  C1  UNL     1      26.657   4.046  49.318  1.00  0.00     0.008 C 
ENDBRANCH  22  23
ENDBRANCH  20  22
ENDBRANCH   1  20
BRANCH  13  25
HETATM   25  N6  UNL     1      27.224   2.416  54.129  1.00  0.00     0.083 N 
HETATM   26  H19 UNL     1      26.540   1.872  54.727  1.00  0.00     0.313 HD
HETATM   27  H20 UNL     1      28.137   1.929  54.267  1.00  0.00     0.313 HD
ENDBRANCH  13  25
TORSDOF 4
ENDMDL
MODEL 4
REMARK VINA RESULT:      -6.9      1.777      4.566
REMARK  4 active torsions:
REMARK  status: ('A' for Active; 'I' for Inactive)
REMARK    1  A    between atoms: C2_2  and  C3_3 
REMARK    2  A    between atoms: C3_3  and  N1_4 
REMARK    3  A    between atoms: N1_4  and  C4_5 
REMARK    4  A    between atoms: C12_17  and  N6_18 
ROOT
HETATM    1  C4  UNL     1      25.667  -0.180  54.733  1.00  0.00     0.129 C 
HETATM    2  N2  UNL     1      25.141  -0.890  55.688  1.00  0.00    -0.223 NA
HETATM    3  C5  UNL     1      24.136  -1.867  55.482  1.00  0.00     0.257 C 
HETATM    4  N3  UNL     1      22.842  -1.813  55.313  1.00  0.00    -0.168 NA
HETATM    5  N4  UNL     1      22.284  -0.517  55.333  1.00  0.00    -0.288 N 
HETATM    6  C6  UNL     1      21.973  -0.125  54.023  1.00  0.00     0.117 C 
HETATM    7  C7  UNL     1      22.386   0.343  52.854  1.00  0.00    -0.026 C 
HETATM    8  C8  UNL     1      21.434   0.569  51.717  1.00  0.00     0.060 C 
HETATM    9  C9  UNL     1      21.484   2.004  51.237  1.00  0.00     0.127 C 
HETATM   10  N5  UNL     1      22.759   2.621  51.526  1.00  0.00    -0.383 N 
HETATM   11  C10 UNL     1      22.915   4.049  51.467  1.00  0.00     0.125 C 
HETATM   12  C11 UNL     1      24.262   4.541  51.115  1.00  0.00     0.055 C 
HETATM   13  C12 UNL     1      25.307   3.543  50.772  1.00  0.00     0.225 C 
HETATM   14  C13 UNL     1      25.266   2.248  51.512  1.00  0.00     0.093 C 
HETATM   15  C14 UNL     1      23.897   1.826  51.875  1.00  0.00     0.021 C 
HETATM   16  C15 UNL     1      23.770   0.682  52.536  1.00  0.00     0.004 C 
HETATM   17  P1  UNL     1      25.196  -0.331  52.984  1.00  0.00    -0.019 P 
HETATM   18  H8  UNL     1      22.087   0.138  56.139  1.00  0.00     0.188 HD
HETATM   19  H23 UNL     1      25.113  -1.686  52.513  1.00  0.00     0.070 HD
ENDROOT
BRANCH   1  20
HETATM   20  N1  UNL     1      26.684   0.781  55.091  1.00  0.00    -0.371 N 
HETATM   21  H6  UNL     1      26.551   1.328  55.983  1.00  0.00     0.161 HD
BRANCH  20  22
HETATM   22  C3  UNL     1      27.844   0.955  54.213  1.00  0.00     0.148 C 
BRANCH  22  23
HETATM   23  C2  UNL     1      28.796  -0.142  54.547  1.00  0.00    -0.018 C 
HETATM   24  C1  UNL     1      29.617  -0.637  53.626  1.00  0.00     0.008 C 
ENDBRANCH  22  23
ENDBRANCH  20  22
ENDBRANCH   1  20
BRANCH  13  25
HETATM   25  N6  UNL     1      25.305   3.230  49.339  1.00  0.00     0.083 N 
HETATM   26  H19 UNL     1      25.192   2.181  49.263  1.00  0.00     0.313 HD
HETATM   27  H20 UNL     1      24.407   3.618  48.975  1.00  0.00     0.313 HD
ENDBRANCH  13  25
TORSDOF 4
ENDMDL
MODEL 5
REMARK VINA RESULT:      -6.9      2.214      6.418
REMARK  4 active torsions:
REMARK  status: ('A' for Active; 'I' for Inactive)
REMARK    1  A    between atoms: C2_2  and  C3_3 
REMARK    2  A    between atoms: C3_3  and  N1_4 
REMARK    3  A    between atoms: N1_4  and  C4_5 
REMARK    4  A    between atoms: C12_17  and  N6_18 
ROOT
HETATM    1  C4  UNL     1      21.227   2.149  52.131  1.00  0.00     0.129 C 
HETATM    2  N2  UNL     1      20.653   3.222  51.672  1.00  0.00    -0.223 NA
HETATM    3  C5  UNL     1      20.983   3.825  50.433  1.00  0.00     0.257 C 
HETATM    4  N3  UNL     1      21.943   4.619  50.041  1.00  0.00    -0.168 NA
HETATM    5  N4  UNL     1      22.876   4.978  51.036  1.00  0.00    -0.288 N 
HETATM    6  C6  UNL     1      24.063   4.258  50.842  1.00  0.00     0.117 C 
HETATM    7  C7  UNL     1      24.733   3.123  50.978  1.00  0.00    -0.026 C 
HETATM    8  C8  UNL     1      26.150   2.985  50.505  1.00  0.00     0.060 C 
HETATM    9  C9  UNL     1      27.065   2.556  51.633  1.00  0.00     0.127 C 
HETATM   10  N5  UNL     1      26.347   1.834  52.660  1.00  0.00    -0.383 N 
HETATM   11  C10 UNL     1      26.930   1.628  53.958  1.00  0.00     0.125 C 
HETATM   12  C11 UNL     1      26.505   0.408  54.674  1.00  0.00     0.055 C 
HETATM   13  C12 UNL     1      25.595  -0.535  53.975  1.00  0.00     0.225 C 
HETATM   14  C13 UNL     1      24.577   0.066  53.064  1.00  0.00     0.093 C 
HETATM   15  C14 UNL     1      25.040   1.307  52.408  1.00  0.00     0.021 C 
HETATM   16  C15 UNL     1      24.194   1.907  51.580  1.00  0.00     0.004 C 
HETATM   17  P1  UNL     1      22.543   1.253  51.254  1.00  0.00    -0.019 P 
HETATM   18  H8  UNL     1      22.800   5.662  51.839  1.00  0.00     0.188 HD
HETATM   19  H23 UNL     1      22.274   1.031  49.861  1.00  0.00     0.070 HD
ENDROOT
BRANCH   1  20
HETATM   20  N1  UNL     1      20.788   1.646  53.412  1.00  0.00    -0.371 N 
HETATM   21  H6  UNL     1      20.724   2.329  54.213  1.00  0.00     0.161 HD
BRANCH  20  22
HETATM   22  C3  UNL     1      20.452   0.225  53.546  1.00  0.00     0.148 C 
BRANCH  22  23
HETATM   23  C2  UNL     1      21.270  -0.297  54.677  1.00  0.00    -0.018 C 
HETATM   24  C1  UNL     1      21.693  -1.557  54.688  1.00  0.00     0.008 C 
ENDBRANCH  22  23
ENDBRANCH  20  22
ENDBRANCH   1  20
BRANCH  13  25
HETATM   25  N6  UNL     1      26.341  -1.534  53.202  1.00  0.00     0.083 N 
HETATM   26  H19 UNL     1      27.343  -1.483  53.539  1.00  0.00     0.313 HD
HETATM   27  H20 UNL     1      25.997  -2.458  53.544  1.00  0.00     0.313 HD
ENDBRANCH  13  25
TORSDOF 4
ENDMDL
MODEL 6
REMARK VINA RESULT:      -6.8      2.047      4.644
REMARK  4 active torsions:
REMARK  status: ('A' for Active; 'I' for Inactive)
REMARK    1  A    between atoms: C2_2  and  C3_3 
REMARK    2  A    between atoms: C3_3  and  N1_4 
REMARK    3  A    between atoms: N1_4  and  C4_5 
REMARK    4  A    between atoms: C12_17  and  N6_18 
ROOT
HETATM    1  C4  UNL     1      26.060   1.310  51.866  1.00  0.00     0.129 C 
HETATM    2  N2  UNL     1      26.744   1.927  50.948  1.00  0.00    -0.223 NA
HETATM    3  C5  UNL     1      26.664   3.320  50.706  1.00  0.00     0.257 C 
HETATM    4  N3  UNL     1      25.818   4.079  50.062  1.00  0.00    -0.168 NA
HETATM    5  N4  UNL     1      24.734   3.404  49.463  1.00  0.00    -0.288 N 
HETATM    6  C6  UNL     1      23.577   3.612  50.227  1.00  0.00     0.117 C 
HETATM    7  C7  UNL     1      22.855   3.302  51.294  1.00  0.00    -0.026 C 
HETATM    8  C8  UNL     1      21.542   3.971  51.575  1.00  0.00     0.060 C 
HETATM    9  C9  UNL     1      20.425   2.956  51.699  1.00  0.00     0.127 C 
HETATM   10  N5  UNL     1      20.921   1.660  52.106  1.00  0.00    -0.383 N 
HETATM   11  C10 UNL     1      20.107   0.484  51.964  1.00  0.00     0.125 C 
HETATM   12  C11 UNL     1      20.353  -0.598  52.939  1.00  0.00     0.055 C 
HETATM   13  C12 UNL     1      21.342  -0.355  54.021  1.00  0.00     0.225 C 
HETATM   14  C13 UNL     1      22.527   0.481  53.672  1.00  0.00     0.093 C 
HETATM   15  C14 UNL     1      22.233   1.519  52.662  1.00  0.00     0.021 C 
HETATM   16  C15 UNL     1      23.234   2.308  52.294  1.00  0.00     0.004 C 
HETATM   17  P1  UNL     1      24.893   2.140  52.986  1.00  0.00    -0.019 P 
HETATM   18  H8  UNL     1      24.688   2.814  48.587  1.00  0.00     0.188 HD
HETATM   19  H23 UNL     1      25.400   3.350  53.571  1.00  0.00     0.070 HD
ENDROOT
BRANCH   1  20
HETATM   20  N1  UNL     1      26.244  -0.117  51.999  1.00  0.00    -0.371 N 
HETATM   21  H6  UNL     1      26.046  -0.718  51.156  1.00  0.00     0.161 HD
BRANCH  20  22
HETATM   22  C3  UNL     1      26.693  -0.664  53.282  1.00  0.00     0.148 C 
BRANCH  22  23
HETATM   23  C2  UNL     1      28.121  -0.266  53.435  1.00  0.00    -0.018 C 
HETATM   24  C1  UNL     1      29.089  -1.177  53.411  1.00  0.00     0.008 C 
ENDBRANCH  22  23
ENDBRANCH  20  22
ENDBRANCH   1  20
BRANCH  13  25
HETATM   25  N6  UNL     1      20.713   0.245  55.202  1.00  0.00     0.083 N 
HETATM   26  H19 UNL     1      20.961  -0.379  56.021  1.00  0.00     0.313 HD
HETATM   27  H20 UNL     1      21.242   1.128  55.377  1.00  0.00     0.313 HD
ENDBRANCH  13  25
TORSDOF 4
ENDMDL
MODEL 7
REMARK VINA RESULT:      -6.7      2.290      5.392
REMARK  4 active torsions:
REMARK  status: ('A' for Active; 'I' for Inactive)
REMARK    1  A    between atoms: C2_2  and  C3_3 
REMARK    2  A    between atoms: C3_3  and  N1_4 
REMARK    3  A    between atoms: N1_4  and  C4_5 
REMARK    4  A    between atoms: C12_17  and  N6_18 
ROOT
HETATM    1  C4  UNL     1      20.787   1.258  51.462  1.00  0.00     0.129 C 
HETATM    2  N2  UNL     1      20.377   0.133  51.969  1.00  0.00    -0.223 NA
HETATM    3  C5  UNL     1      20.643  -0.277  53.299  1.00  0.00     0.257 C 
HETATM    4  N3  UNL     1      21.676  -0.815  53.890  1.00  0.00    -0.168 NA
HETATM    5  N4  UNL     1      22.790  -1.057  53.059  1.00  0.00    -0.288 N 
HETATM    6  C6  UNL     1      23.775  -0.091  53.309  1.00  0.00     0.117 C 
HETATM    7  C7  UNL     1      24.221   1.143  53.125  1.00  0.00    -0.026 C 
HETATM    8  C8  UNL     1      25.504   1.615  53.743  1.00  0.00     0.060 C 
HETATM    9  C9  UNL     1      26.465   2.126  52.690  1.00  0.00     0.127 C 
HETATM   10  N5  UNL     1      25.769   2.589  51.509  1.00  0.00    -0.383 N 
HETATM   11  C10 UNL     1      26.475   2.798  50.275  1.00  0.00     0.125 C 
HETATM   12  C11 UNL     1      25.923   3.835  49.379  1.00  0.00     0.055 C 
HETATM   13  C12 UNL     1      24.758   4.624  49.853  1.00  0.00     0.225 C 
HETATM   14  C13 UNL     1      23.761   3.905  50.700  1.00  0.00     0.093 C 
HETATM   15  C14 UNL     1      24.362   2.851  51.543  1.00  0.00     0.021 C 
HETATM   16  C15 UNL     1      23.544   2.163  52.328  1.00  0.00     0.004 C 
HETATM   17  P1  UNL     1      21.768   2.483  52.380  1.00  0.00    -0.019 P 
HETATM   18  H8  UNL     1      22.962  -1.809  52.336  1.00  0.00     0.188 HD
HETATM   19  H23 UNL     1      21.270   2.764  53.698  1.00  0.00     0.070 HD
ENDROOT
BRANCH   1  20
HETATM   20  N1  UNL     1      20.440   1.544  50.089  1.00  0.00    -0.371 N 
HETATM   21  H6  UNL     1      19.576   2.122  49.912  1.00  0.00     0.161 HD
BRANCH  20  22
HETATM   22  C3  UNL     1      21.291   1.028  49.013  1.00  0.00     0.148 C 
BRANCH  22  23
HETATM   23  C2  UNL     1      21.555   2.173  48.096  1.00  0.00    -0.018 C 
HETATM   24  C1  UNL     1      22.715   2.280  47.456  1.00  0.00     0.008 C 
ENDBRANCH  22  23
ENDBRANCH  20  22
ENDBRANCH   1  20
BRANCH  13  25
HETATM   25  N6  UNL     1      25.179   5.820  50.590  1.00  0.00     0.083 N 
HETATM   26  H19 UNL     1      24.785   6.649  50.062  1.00  0.00     0.313 HD
HETATM   27  H20 UNL     1      24.638   5.798  51.483  1.00  0.00     0.313 HD
ENDBRANCH  13  25
TORSDOF 4
ENDMDL
MODEL 8
REMARK VINA RESULT:      -6.6      7.137     11.780
REMARK  4 active torsions:
REMARK  status: ('A' for Active; 'I' for Inactive)
REMARK    1  A    between atoms: C2_2  and  C3_3 
REMARK    2  A    between atoms: C3_3  and  N1_4 
REMARK    3  A    between atoms: N1_4  and  C4_5 
REMARK    4  A    between atoms: C12_17  and  N6_18 
ROOT
HETATM    1  C4  UNL     1      30.911   6.201  48.852  1.00  0.00     0.129 C 
HETATM    2  N2  UNL     1      31.477   5.145  48.345  1.00  0.00    -0.223 NA
HETATM    3  C5  UNL     1      32.878   5.000  48.187  1.00  0.00     0.257 C 
HETATM    4  N3  UNL     1      33.737   5.430  47.302  1.00  0.00    -0.168 NA
HETATM    5  N4  UNL     1      33.194   6.214  46.262  1.00  0.00    -0.288 N 
HETATM    6  C6  UNL     1      33.501   7.563  46.488  1.00  0.00     0.117 C 
HETATM    7  C7  UNL     1      33.240   8.690  47.134  1.00  0.00    -0.026 C 
HETATM    8  C8  UNL     1      34.033   9.939  46.888  1.00  0.00     0.060 C 
HETATM    9  C9  UNL     1      33.137  11.085  46.467  1.00  0.00     0.127 C 
HETATM   10  N5  UNL     1      31.787  10.916  46.956  1.00  0.00    -0.383 N 
HETATM   11  C10 UNL     1      30.705  11.689  46.409  1.00  0.00     0.125 C 
HETATM   12  C11 UNL     1      29.578  11.966  47.323  1.00  0.00     0.055 C 
HETATM   13  C12 UNL     1      29.688  11.509  48.731  1.00  0.00     0.225 C 
HETATM   14  C13 UNL     1      30.406  10.221  48.964  1.00  0.00     0.093 C 
HETATM   15  C14 UNL     1      31.495   9.976  47.995  1.00  0.00     0.021 C 
HETATM   16  C15 UNL     1      32.186   8.851  48.132  1.00  0.00     0.004 C 
HETATM   17  P1  UNL     1      31.828   7.657  49.438  1.00  0.00    -0.019 P 
HETATM   18  H8  UNL     1      32.635   5.936  45.409  1.00  0.00     0.188 HD
HETATM   19  H23 UNL     1      32.963   7.344  50.261  1.00  0.00     0.070 HD
ENDROOT
BRANCH   1  20
HETATM   20  N1  UNL     1      29.470   6.209  48.953  1.00  0.00    -0.371 N 
HETATM   21  H6  UNL     1      29.026   6.927  49.585  1.00  0.00     0.161 HD
BRANCH  20  22
HETATM   22  C3  UNL     1      28.693   5.234  48.182  1.00  0.00     0.148 C 
BRANCH  22  23
HETATM   23  C2  UNL     1      27.316   5.247  48.751  1.00  0.00    -0.018 C 
HETATM   24  C1  UNL     1      26.779   4.144  49.263  1.00  0.00     0.008 C 
ENDBRANCH  22  23
ENDBRANCH  20  22
ENDBRANCH   1  20
BRANCH  13  25
HETATM   25  N6  UNL     1      30.319  12.523  49.581  1.00  0.00     0.083 N 
HETATM   26  H19 UNL     1      31.357  12.478  49.380  1.00  0.00     0.313 HD
HETATM   27  H20 UNL     1      30.016  13.441  49.185  1.00  0.00     0.313 HD
ENDBRANCH  13  25
TORSDOF 4
ENDMDL
MODEL 9
REMARK VINA RESULT:      -6.5      2.778      6.072
REMARK  4 active torsions:
REMARK  status: ('A' for Active; 'I' for Inactive)
REMARK    1  A    between atoms: C2_2  and  C3_3 
REMARK    2  A    between atoms: C3_3  and  N1_4 
REMARK    3  A    between atoms: N1_4  and  C4_5 
REMARK    4  A    between atoms: C12_17  and  N6_18 
ROOT
HETATM    1  C4  UNL     1      19.810   2.437  50.353  1.00  0.00     0.129 C 
HETATM    2  N2  UNL     1      18.631   1.937  50.132  1.00  0.00    -0.223 NA
HETATM    3  C5  UNL     1      17.705   1.614  51.155  1.00  0.00     0.257 C 
HETATM    4  N3  UNL     1      17.575   0.602  51.970  1.00  0.00    -0.168 NA
HETATM    5  N4  UNL     1      18.545  -0.412  51.836  1.00  0.00    -0.288 N 
HETATM    6  C6  UNL     1      19.465  -0.319  52.890  1.00  0.00     0.117 C 
HETATM    7  C7  UNL     1      20.524   0.277  53.418  1.00  0.00    -0.026 C 
HETATM    8  C8  UNL     1      21.088  -0.150  54.740  1.00  0.00     0.060 C 
HETATM    9  C9  UNL     1      22.548  -0.533  54.617  1.00  0.00     0.127 C 
HETATM   10  N5  UNL     1      23.183   0.131  53.499  1.00  0.00    -0.383 N 
HETATM   11  C10 UNL     1      24.448  -0.328  52.994  1.00  0.00     0.125 C 
HETATM   12  C11 UNL     1      25.310   0.698  52.374  1.00  0.00     0.055 C 
HETATM   13  C12 UNL     1      24.849   2.110  52.399  1.00  0.00     0.225 C 
HETATM   14  C13 UNL     1      23.380   2.338  52.271  1.00  0.00     0.093 C 
HETATM   15  C14 UNL     1      22.567   1.260  52.871  1.00  0.00     0.021 C 
HETATM   16  C15 UNL     1      21.248   1.385  52.801  1.00  0.00     0.004 C 
HETATM   17  P1  UNL     1      20.458   2.804  52.011  1.00  0.00    -0.019 P 
HETATM   18  H8  UNL     1      18.657  -1.168  51.105  1.00  0.00     0.188 HD
HETATM   19  H23 UNL     1      19.533   3.498  52.863  1.00  0.00     0.070 HD
ENDROOT
BRANCH   1  20
HETATM   20  N1  UNL     1      20.649   2.716  49.210  1.00  0.00    -0.371 N 
HETATM   21  H6  UNL     1      20.502   3.630  48.705  1.00  0.00     0.161 HD
BRANCH  20  22
HETATM   22  C3  UNL     1      21.655   1.732  48.804  1.00  0.00     0.148 C 
BRANCH  22  23
HETATM   23  C2  UNL     1      22.937   2.476  48.652  1.00  0.00    -0.018 C 
HETATM   24  C1  UNL     1      22.950   3.803  48.572  1.00  0.00     0.008 C 
ENDBRANCH  22  23
ENDBRANCH  20  22
ENDBRANCH   1  20
BRANCH  13  25
HETATM   25  N6  UNL     1      25.298   2.804  53.610  1.00  0.00     0.083 N 
HETATM   26  H19 UNL     1      24.451   3.307  53.997  1.00  0.00     0.313 HD
HETATM   27  H20 UNL     1      25.493   2.048  54.303  1.00  0.00     0.313 HD
ENDBRANCH  13  25
TORSDOF 4
ENDMDL
