MODEL 1
REMARK VINA RESULT:     -10.3      0.000      0.000
REMARK  2 active torsions:
REMARK  status: ('A' for Active; 'I' for Inactive)
REMARK    1  A    between atoms: O1_2  and  C2_3 
REMARK    2  A    between atoms: C6_7  and  C7_8 
ROOT
HETATM    1  C7  UNL     1      23.996   3.345  51.267  1.00  0.00     0.082 C 
HETATM    2  C8  UNL     1      24.463   2.389  52.023  1.00  0.00     0.126 C 
HETATM    3  C9  UNL     1      25.674   2.170  52.665  1.00  0.00     0.024 C 
HETATM    4  C10 UNL     1      26.668   2.009  53.198  1.00  0.00    -0.175 C 
HETATM    5  C11 UNL     1      27.895   1.836  53.854  1.00  0.00     0.087 C 
HETATM    6  C12 UNL     1      27.959   0.633  54.773  1.00  0.00     0.030 C 
HETATM    7  C13 UNL     1      26.740   0.267  54.436  1.00  0.00     0.138 C 
HETATM    8  N1  UNL     1      25.918  -0.815  54.826  1.00  0.00    -0.263 N 
HETATM    9  O2  UNL     1      25.133  -1.883  55.039  1.00  0.00    -0.051 OA
HETATM   10  N2  UNL     1      23.973  -1.441  55.658  1.00  0.00     0.236 N 
HETATM   11  C14 UNL     1      22.679  -0.896  55.363  1.00  0.00     0.390 A 
HETATM   12  O3  UNL     1      23.401  -1.133  54.365  1.00  0.00    -0.120 OA
HETATM   13  C15 UNL     1      21.570  -0.388  54.460  1.00  0.00     0.084 C 
HETATM   14  C16 UNL     1      22.108  -0.392  53.075  1.00  0.00     0.005 C 
HETATM   15  C17 UNL     1      21.229   0.121  51.994  1.00  0.00     0.002 C 
HETATM   16  C18 UNL     1      20.809   1.556  52.186  1.00  0.00     0.027 C 
HETATM   17  C19 UNL     1      21.945   2.490  52.377  1.00  0.00     0.175 C 
HETATM   18  O4  UNL     1      22.896   2.460  51.328  1.00  0.00    -0.352 OA
HETATM   19  H11 UNL     1      25.611  -1.427  53.990  1.00  0.00     0.190 HD
HETATM   20  H12 UNL     1      23.979  -1.500  56.725  1.00  0.00     0.365 HD
ENDROOT
BRANCH   1  21
HETATM   21  C6  UNL     1      24.227   4.642  50.609  1.00  0.00     0.100 A 
HETATM   22  C5  UNL     1      25.281   5.043  49.870  1.00  0.00     0.024 A 
HETATM   23  C4  UNL     1      26.288   4.123  49.769  1.00  0.00     0.019 A 
HETATM   24  C21 UNL     1      25.207   6.300  49.335  1.00  0.00     0.073 A 
HETATM   25  C3  UNL     1      27.383   4.507  49.025  1.00  0.00     0.038 A 
HETATM   26  C2  UNL     1      27.425   5.773  48.425  1.00  0.00     0.070 A 
HETATM   27  C22 UNL     1      26.347   6.630  48.594  1.00  0.00     0.069 A 
HETATM   28  N4  UNL     1      24.157   7.114  49.519  1.00  0.00    -0.241 NA
HETATM   29  C20 UNL     1      23.120   6.694  50.259  1.00  0.00     0.234 A 
HETATM   30  N3  UNL     1      23.182   5.478  50.780  1.00  0.00    -0.239 NA
BRANCH  26  31
HETATM   31  O1  UNL     1      28.494   6.220  47.667  1.00  0.00    -0.356 OA
HETATM   32  C1  UNL     1      29.837   5.995  48.023  1.00  0.00     0.210 C 
ENDBRANCH  26  31
ENDBRANCH   1  21
TORSDOF 2
ENDMDL
MODEL 2
REMARK VINA RESULT:      -9.4      2.200      7.736
REMARK  2 active torsions:
REMARK  status: ('A' for Active; 'I' for Inactive)
REMARK    1  A    between atoms: O1_2  and  C2_3 
REMARK    2  A    between atoms: C6_7  and  C7_8 
ROOT
HETATM    1  C7  UNL     1      23.430   3.674  51.250  1.00  0.00     0.082 C 
HETATM    2  C8  UNL     1      24.102   4.576  50.590  1.00  0.00     0.126 C 
HETATM    3  C9  UNL     1      25.360   4.606  50.003  1.00  0.00     0.024 C 
HETATM    4  C10 UNL     1      26.388   4.613  49.512  1.00  0.00    -0.175 C 
HETATM    5  C11 UNL     1      27.653   4.596  48.908  1.00  0.00     0.087 C 
HETATM    6  C12 UNL     1      27.984   5.831  48.095  1.00  0.00     0.030 C 
HETATM    7  C13 UNL     1      26.844   6.398  48.427  1.00  0.00     0.138 C 
HETATM    8  N1  UNL     1      26.261   7.645  48.108  1.00  0.00    -0.263 N 
HETATM    9  O2  UNL     1      25.703   8.858  47.963  1.00  0.00    -0.051 OA
HETATM   10  N2  UNL     1      24.508   8.697  47.278  1.00  0.00     0.236 N 
HETATM   11  C14 UNL     1      23.122   8.391  47.490  1.00  0.00     0.390 A 
HETATM   12  O3  UNL     1      23.832   8.407  48.523  1.00  0.00    -0.120 OA
HETATM   13  C15 UNL     1      21.899   8.040  48.315  1.00  0.00     0.084 C 
HETATM   14  C16 UNL     1      22.367   7.832  49.711  1.00  0.00     0.005 C 
HETATM   15  C17 UNL     1      21.361   7.417  50.720  1.00  0.00     0.002 C 
HETATM   16  C18 UNL     1      20.685   6.109  50.397  1.00  0.00     0.027 C 
HETATM   17  C19 UNL     1      21.629   4.991  50.160  1.00  0.00     0.175 C 
HETATM   18  O4  UNL     1      22.522   4.757  51.234  1.00  0.00    -0.352 OA
HETATM   19  H11 UNL     1      26.040   8.239  48.983  1.00  0.00     0.190 HD
HETATM   20  H12 UNL     1      24.571   8.836  46.220  1.00  0.00     0.365 HD
ENDROOT
BRANCH   1  21
HETATM   21  C6  UNL     1      23.382   2.309  51.804  1.00  0.00     0.100 A 
HETATM   22  C5  UNL     1      24.273   1.683  52.599  1.00  0.00     0.024 A 
HETATM   23  C4  UNL     1      25.395   2.414  52.881  1.00  0.00     0.019 A 
HETATM   24  C21 UNL     1      23.944   0.419  53.005  1.00  0.00     0.073 A 
HETATM   25  C3  UNL     1      26.328   1.797  53.686  1.00  0.00     0.038 A 
HETATM   26  C2  UNL     1      26.106   0.500  54.166  1.00  0.00     0.070 A 
HETATM   27  C22 UNL     1      24.931  -0.151  53.817  1.00  0.00     0.069 A 
HETATM   28  N4  UNL     1      22.807  -0.193  52.646  1.00  0.00    -0.241 NA
HETATM   29  C20 UNL     1      21.935   0.448  51.854  1.00  0.00     0.234 A 
HETATM   30  N3  UNL     1      22.244   1.673  51.456  1.00  0.00    -0.239 NA
BRANCH  26  31
HETATM   31  O1  UNL     1      27.002  -0.175  54.978  1.00  0.00    -0.356 OA
HETATM   32  C1  UNL     1      28.394   0.019  54.913  1.00  0.00     0.210 C 
ENDBRANCH  26  31
ENDBRANCH   1  21
TORSDOF 2
ENDMDL
MODEL 3
REMARK VINA RESULT:      -9.4      3.824      7.514
REMARK  2 active torsions:
REMARK  status: ('A' for Active; 'I' for Inactive)
REMARK    1  A    between atoms: O1_2  and  C2_3 
REMARK    2  A    between atoms: C6_7  and  C7_8 
ROOT
HETATM    1  C7  UNL     1      22.760   0.274  52.299  1.00  0.00     0.082 C 
HETATM    2  C8  UNL     1      21.525   0.296  51.879  1.00  0.00     0.126 C 
HETATM    3  C9  UNL     1      20.329  -0.210  52.370  1.00  0.00     0.024 C 
HETATM    4  C10 UNL     1      19.352  -0.618  52.791  1.00  0.00    -0.175 C 
HETATM    5  C11 UNL     1      18.160  -1.120  53.332  1.00  0.00     0.087 C 
HETATM    6  C12 UNL     1      16.906  -0.727  52.578  1.00  0.00     0.030 C 
HETATM    7  C13 UNL     1      17.611  -0.094  51.665  1.00  0.00     0.138 C 
HETATM    8  N1  UNL     1      17.255   0.625  50.501  1.00  0.00    -0.263 N 
HETATM    9  O2  UNL     1      17.009   1.203  49.314  1.00  0.00    -0.051 OA
HETATM   10  N2  UNL     1      17.405   2.529  49.397  1.00  0.00     0.236 N 
HETATM   11  C14 UNL     1      18.560   3.369  49.253  1.00  0.00     0.390 A 
HETATM   12  O3  UNL     1      18.759   2.145  49.060  1.00  0.00    -0.120 OA
HETATM   13  C15 UNL     1      20.022   3.666  48.979  1.00  0.00     0.084 C 
HETATM   14  C16 UNL     1      20.702   2.356  48.803  1.00  0.00     0.005 C 
HETATM   15  C17 UNL     1      22.169   2.367  48.578  1.00  0.00     0.002 C 
HETATM   16  C18 UNL     1      22.949   2.998  49.703  1.00  0.00     0.027 C 
HETATM   17  C19 UNL     1      22.663   2.408  51.033  1.00  0.00     0.175 C 
HETATM   18  O4  UNL     1      22.875   1.010  51.098  1.00  0.00    -0.352 OA
HETATM   19  H11 UNL     1      17.706   0.221  49.607  1.00  0.00     0.190 HD
HETATM   20  H12 UNL     1      16.629   3.218  49.652  1.00  0.00     0.365 HD
ENDROOT
BRANCH   1  21
HETATM   21  C6  UNL     1      23.721  -0.154  53.330  1.00  0.00     0.100 A 
HETATM   22  C5  UNL     1      25.058   0.018  53.369  1.00  0.00     0.024 A 
HETATM   23  C4  UNL     1      25.583   0.635  52.266  1.00  0.00     0.019 A 
HETATM   24  C21 UNL     1      25.699  -0.446  54.484  1.00  0.00     0.073 A 
HETATM   25  C3  UNL     1      26.950   0.818  52.274  1.00  0.00     0.038 A 
HETATM   26  C2  UNL     1      27.719   0.385  53.362  1.00  0.00     0.070 A 
HETATM   27  C22 UNL     1      27.081  -0.230  54.429  1.00  0.00     0.069 A 
HETATM   28  N4  UNL     1      25.063  -1.046  55.499  1.00  0.00    -0.241 NA
HETATM   29  C20 UNL     1      23.733  -1.208  55.439  1.00  0.00     0.234 A 
HETATM   30  N3  UNL     1      23.102  -0.761  54.364  1.00  0.00    -0.239 NA
BRANCH  26  31
HETATM   31  O1  UNL     1      29.093   0.539  53.431  1.00  0.00    -0.356 OA
HETATM   32  C1  UNL     1      29.979  -0.539  53.616  1.00  0.00     0.210 C 
ENDBRANCH  26  31
ENDBRANCH   1  21
TORSDOF 2
ENDMDL
MODEL 4
REMARK VINA RESULT:      -9.2      1.854      2.634
REMARK  2 active torsions:
REMARK  status: ('A' for Active; 'I' for Inactive)
REMARK    1  A    between atoms: O1_2  and  C2_3 
REMARK    2  A    between atoms: C6_7  and  C7_8 
ROOT
HETATM    1  C7  UNL     1      25.164   2.984  50.531  1.00  0.00     0.082 C 
HETATM    2  C8  UNL     1      25.357   2.093  51.464  1.00  0.00     0.126 C 
HETATM    3  C9  UNL     1      26.419   1.787  52.304  1.00  0.00     0.024 C 
HETATM    4  C10 UNL     1      27.293   1.556  52.997  1.00  0.00    -0.175 C 
HETATM    5  C11 UNL     1      28.378   1.295  53.847  1.00  0.00     0.087 C 
HETATM    6  C12 UNL     1      28.112   0.249  54.911  1.00  0.00     0.030 C 
HETATM    7  C13 UNL     1      26.900   0.031  54.444  1.00  0.00     0.138 C 
HETATM    8  N1  UNL     1      25.860  -0.839  54.839  1.00  0.00    -0.263 N 
HETATM    9  O2  UNL     1      24.878  -1.728  55.066  1.00  0.00    -0.051 OA
HETATM   10  N2  UNL     1      23.745  -1.022  55.441  1.00  0.00     0.236 N 
HETATM   11  C14 UNL     1      22.614  -0.333  54.888  1.00  0.00     0.390 A 
HETATM   12  O3  UNL     1      23.405  -0.827  54.049  1.00  0.00    -0.120 OA
HETATM   13  C15 UNL     1      21.735   0.198  53.771  1.00  0.00     0.084 C 
HETATM   14  C16 UNL     1      22.437  -0.097  52.495  1.00  0.00     0.005 C 
HETATM   15  C17 UNL     1      21.806   0.377  51.237  1.00  0.00     0.002 C 
HETATM   16  C18 UNL     1      21.623   1.872  51.179  1.00  0.00     0.027 C 
HETATM   17  C19 UNL     1      22.871   2.636  51.418  1.00  0.00     0.175 C 
HETATM   18  O4  UNL     1      23.928   2.300  50.537  1.00  0.00    -0.352 OA
HETATM   19  H11 UNL     1      25.559  -1.515  54.052  1.00  0.00     0.190 HD
HETATM   20  H12 UNL     1      23.604  -0.920  56.496  1.00  0.00     0.365 HD
ENDROOT
BRANCH   1  21
HETATM   21  C6  UNL     1      25.701   4.115  49.755  1.00  0.00     0.100 A 
HETATM   22  C5  UNL     1      25.105   5.280  49.429  1.00  0.00     0.024 A 
HETATM   23  C4  UNL     1      23.805   5.389  49.842  1.00  0.00     0.019 A 
HETATM   24  C21 UNL     1      25.865   6.179  48.733  1.00  0.00     0.073 A 
HETATM   25  C3  UNL     1      23.166   6.566  49.516  1.00  0.00     0.038 A 
HETATM   26  C2  UNL     1      23.841   7.567  48.804  1.00  0.00     0.070 A 
HETATM   27  C22 UNL     1      25.161   7.351  48.434  1.00  0.00     0.069 A 
HETATM   28  N4  UNL     1      27.137   5.944  48.378  1.00  0.00    -0.241 NA
HETATM   29  C20 UNL     1      27.709   4.778  48.713  1.00  0.00     0.234 A 
HETATM   30  N3  UNL     1      26.981   3.901  49.387  1.00  0.00    -0.239 NA
BRANCH  26  31
HETATM   31  O1  UNL     1      23.258   8.770  48.446  1.00  0.00    -0.356 OA
HETATM   32  C1  UNL     1      24.002   9.898  48.051  1.00  0.00     0.210 C 
ENDBRANCH  26  31
ENDBRANCH   1  21
TORSDOF 2
ENDMDL
MODEL 5
REMARK VINA RESULT:      -9.0      3.345      5.924
REMARK  2 active torsions:
REMARK  status: ('A' for Active; 'I' for Inactive)
REMARK    1  A    between atoms: O1_2  and  C2_3 
REMARK    2  A    between atoms: C6_7  and  C7_8 
ROOT
HETATM    1  C7  UNL     1      23.110   2.120  50.580  1.00  0.00     0.082 C 
HETATM    2  C8  UNL     1      22.083   1.435  51.002  1.00  0.00     0.126 C 
HETATM    3  C9  UNL     1      21.888   0.523  52.030  1.00  0.00     0.024 C 
HETATM    4  C10 UNL     1      21.737  -0.214  52.887  1.00  0.00    -0.175 C 
HETATM    5  C11 UNL     1      21.572  -1.111  53.952  1.00  0.00     0.087 C 
HETATM    6  C12 UNL     1      20.145  -1.564  54.183  1.00  0.00     0.030 C 
HETATM    7  C13 UNL     1      19.721  -0.879  53.142  1.00  0.00     0.138 C 
HETATM    8  N1  UNL     1      18.445  -0.704  52.561  1.00  0.00    -0.263 N 
HETATM    9  O2  UNL     1      17.296  -0.596  51.873  1.00  0.00    -0.051 OA
HETATM   10  N2  UNL     1      16.905   0.734  51.905  1.00  0.00     0.236 N 
HETATM   11  C14 UNL     1      17.105   1.981  51.225  1.00  0.00     0.390 A 
HETATM   12  O3  UNL     1      17.750   1.009  50.763  1.00  0.00    -0.120 OA
HETATM   13  C15 UNL     1      17.702   2.898  50.173  1.00  0.00     0.084 C 
HETATM   14  C16 UNL     1      18.700   2.094  49.420  1.00  0.00     0.005 C 
HETATM   15  C17 UNL     1      19.477   2.782  48.358  1.00  0.00     0.002 C 
HETATM   16  C18 UNL     1      20.295   3.943  48.863  1.00  0.00     0.027 C 
HETATM   17  C19 UNL     1      21.202   3.593  49.982  1.00  0.00     0.175 C 
HETATM   18  O4  UNL     1      22.097   2.536  49.687  1.00  0.00    -0.352 OA
HETATM   19  H11 UNL     1      18.411  -1.013  51.527  1.00  0.00     0.190 HD
HETATM   20  H12 UNL     1      16.214   0.984  52.681  1.00  0.00     0.365 HD
ENDROOT
BRANCH   1  21
HETATM   21  C6  UNL     1      24.535   2.459  50.737  1.00  0.00     0.100 A 
HETATM   22  C5  UNL     1      25.387   2.110  51.721  1.00  0.00     0.024 A 
HETATM   23  C4  UNL     1      24.821   1.382  52.732  1.00  0.00     0.019 A 
HETATM   24  C21 UNL     1      26.681   2.531  51.584  1.00  0.00     0.073 A 
HETATM   25  C3  UNL     1      25.667   1.016  53.758  1.00  0.00     0.038 A 
HETATM   26  C2  UNL     1      27.018   1.388  53.731  1.00  0.00     0.070 A 
HETATM   27  C22 UNL     1      27.487   2.130  52.656  1.00  0.00     0.069 A 
HETATM   28  N4  UNL     1      27.110   3.255  50.540  1.00  0.00    -0.241 NA
HETATM   29  C20 UNL     1      26.244   3.591  49.573  1.00  0.00     0.234 A 
HETATM   30  N3  UNL     1      24.989   3.188  49.696  1.00  0.00    -0.239 NA
BRANCH  26  31
HETATM   31  O1  UNL     1      27.918   1.054  54.728  1.00  0.00    -0.356 OA
HETATM   32  C1  UNL     1      28.757  -0.074  54.660  1.00  0.00     0.210 C 
ENDBRANCH  26  31
ENDBRANCH   1  21
TORSDOF 2
ENDMDL
MODEL 6
REMARK VINA RESULT:      -8.9      1.622      2.194
REMARK  2 active torsions:
REMARK  status: ('A' for Active; 'I' for Inactive)
REMARK    1  A    between atoms: O1_2  and  C2_3 
REMARK    2  A    between atoms: C6_7  and  C7_8 
ROOT
HETATM    1  C7  UNL     1      24.138   4.690  49.866  1.00  0.00     0.082 C 
HETATM    2  C8  UNL     1      24.236   3.573  50.533  1.00  0.00     0.126 C 
HETATM    3  C9  UNL     1      25.283   2.909  51.156  1.00  0.00     0.024 C 
HETATM    4  C10 UNL     1      26.149   2.381  51.676  1.00  0.00    -0.175 C 
HETATM    5  C11 UNL     1      27.227   1.753  52.317  1.00  0.00     0.087 C 
HETATM    6  C12 UNL     1      26.857   0.523  53.121  1.00  0.00     0.030 C 
HETATM    7  C13 UNL     1      25.598   0.615  52.748  1.00  0.00     0.138 C 
HETATM    8  N1  UNL     1      24.451  -0.161  53.034  1.00  0.00    -0.263 N 
HETATM    9  O2  UNL     1      23.349  -0.920  53.145  1.00  0.00    -0.051 OA
HETATM   10  N2  UNL     1      22.381  -0.171  53.798  1.00  0.00     0.236 N 
HETATM   11  C14 UNL     1      21.352   0.797  53.550  1.00  0.00     0.390 A 
HETATM   12  O3  UNL     1      21.988   0.419  52.537  1.00  0.00    -0.120 OA
HETATM   13  C15 UNL     1      20.505   1.720  52.694  1.00  0.00     0.084 C 
HETATM   14  C16 UNL     1      21.058   1.656  51.316  1.00  0.00     0.005 C 
HETATM   15  C17 UNL     1      20.436   2.523  50.284  1.00  0.00     0.002 C 
HETATM   16  C18 UNL     1      20.510   3.994  50.605  1.00  0.00     0.027 C 
HETATM   17  C19 UNL     1      21.883   4.476  50.885  1.00  0.00     0.175 C 
HETATM   18  O4  UNL     1      22.805   4.220  49.841  1.00  0.00    -0.352 OA
HETATM   19  H11 UNL     1      23.987  -0.561  52.145  1.00  0.00     0.190 HD
HETATM   20  H12 UNL     1      22.331  -0.320  54.855  1.00  0.00     0.365 HD
ENDROOT
BRANCH   1  21
HETATM   21  C6  UNL     1      24.809   5.888  49.331  1.00  0.00     0.100 A 
HETATM   22  C5  UNL     1      26.069   6.021  48.871  1.00  0.00     0.024 A 
HETATM   23  C4  UNL     1      26.832   4.889  48.968  1.00  0.00     0.019 A 
HETATM   24  C21 UNL     1      26.413   7.252  48.383  1.00  0.00     0.073 A 
HETATM   25  C3  UNL     1      28.129   4.997  48.512  1.00  0.00     0.038 A 
HETATM   26  C2  UNL     1      28.600   6.208  47.989  1.00  0.00     0.070 A 
HETATM   27  C22 UNL     1      27.739   7.295  47.938  1.00  0.00     0.069 A 
HETATM   28  N4  UNL     1      25.565   8.290  48.353  1.00  0.00    -0.241 NA
HETATM   29  C20 UNL     1      24.317   8.135  48.817  1.00  0.00     0.234 A 
HETATM   30  N3  UNL     1      23.974   6.947  49.290  1.00  0.00    -0.239 NA
BRANCH  26  31
HETATM   31  O1  UNL     1      29.889   6.382  47.515  1.00  0.00    -0.356 OA
HETATM   32  C1  UNL     1      30.627   7.565  47.709  1.00  0.00     0.210 C 
ENDBRANCH  26  31
ENDBRANCH   1  21
TORSDOF 2
ENDMDL
MODEL 7
REMARK VINA RESULT:      -8.9      2.721      5.345
REMARK  2 active torsions:
REMARK  status: ('A' for Active; 'I' for Inactive)
REMARK    1  A    between atoms: O1_2  and  C2_3 
REMARK    2  A    between atoms: C6_7  and  C7_8 
ROOT
HETATM    1  C7  UNL     1      22.400   3.163  51.118  1.00  0.00     0.082 C 
HETATM    2  C8  UNL     1      22.773   2.257  51.979  1.00  0.00     0.126 C 
HETATM    3  C9  UNL     1      22.096   1.340  52.770  1.00  0.00     0.024 C 
HETATM    4  C10 UNL     1      21.528   0.581  53.404  1.00  0.00    -0.175 C 
HETATM    5  C11 UNL     1      20.810  -0.350  54.167  1.00  0.00     0.087 C 
HETATM    6  C12 UNL     1      21.667  -1.338  54.932  1.00  0.00     0.030 C 
HETATM    7  C13 UNL     1      22.772  -0.755  54.516  1.00  0.00     0.138 C 
HETATM    8  N1  UNL     1      24.142  -1.017  54.745  1.00  0.00    -0.263 N 
HETATM    9  O2  UNL     1      25.453  -1.116  55.019  1.00  0.00    -0.051 OA
HETATM   10  N2  UNL     1      26.113  -1.418  53.838  1.00  0.00     0.236 N 
HETATM   11  C14 UNL     1      26.687  -0.796  52.679  1.00  0.00     0.390 A 
HETATM   12  O3  UNL     1      26.169  -0.011  53.509  1.00  0.00    -0.120 OA
HETATM   13  C15 UNL     1      27.066   0.370  51.786  1.00  0.00     0.084 C 
HETATM   14  C16 UNL     1      26.483   1.590  52.403  1.00  0.00     0.005 C 
HETATM   15  C17 UNL     1      26.663   2.877  51.685  1.00  0.00     0.002 C 
HETATM   16  C18 UNL     1      26.068   2.886  50.300  1.00  0.00     0.027 C 
HETATM   17  C19 UNL     1      24.636   2.502  50.263  1.00  0.00     0.175 C 
HETATM   18  O4  UNL     1      23.807   3.299  51.089  1.00  0.00    -0.352 OA
HETATM   19  H11 UNL     1      24.659  -0.177  55.183  1.00  0.00     0.190 HD
HETATM   20  H12 UNL     1      26.289  -2.459  53.672  1.00  0.00     0.365 HD
ENDROOT
BRANCH   1  21
HETATM   21  C6  UNL     1      21.296   3.837  50.413  1.00  0.00     0.100 A 
HETATM   22  C5  UNL     1      21.057   5.157  50.274  1.00  0.00     0.024 A 
HETATM   23  C4  UNL     1      21.947   5.967  50.926  1.00  0.00     0.019 A 
HETATM   24  C21 UNL     1      19.971   5.503  49.519  1.00  0.00     0.073 A 
HETATM   25  C3  UNL     1      21.724   7.323  50.808  1.00  0.00     0.038 A 
HETATM   26  C2  UNL     1      20.641   7.802  50.059  1.00  0.00     0.070 A 
HETATM   27  C22 UNL     1      19.799   6.890  49.440  1.00  0.00     0.069 A 
HETATM   28  N4  UNL     1      19.166   4.603  48.938  1.00  0.00    -0.241 NA
HETATM   29  C20 UNL     1      19.422   3.295  49.090  1.00  0.00     0.234 A 
HETATM   30  N3  UNL     1      20.472   2.950  49.819  1.00  0.00    -0.239 NA
BRANCH  26  31
HETATM   31  O1  UNL     1      20.363   9.149  49.902  1.00  0.00    -0.356 OA
HETATM   32  C1  UNL     1      19.056   9.672  49.927  1.00  0.00     0.210 C 
ENDBRANCH  26  31
ENDBRANCH   1  21
TORSDOF 2
ENDMDL
MODEL 8
REMARK VINA RESULT:      -8.8      7.114     11.020
REMARK  2 active torsions:
REMARK  status: ('A' for Active; 'I' for Inactive)
REMARK    1  A    between atoms: O1_2  and  C2_3 
REMARK    2  A    between atoms: C6_7  and  C7_8 
ROOT
HETATM    1  C7  UNL     1      31.771   7.487  47.537  1.00  0.00     0.082 C 
HETATM    2  C8  UNL     1      30.488   7.727  47.550  1.00  0.00     0.126 C 
HETATM    3  C9  UNL     1      29.369   6.980  47.889  1.00  0.00     0.024 C 
HETATM    4  C10 UNL     1      28.459   6.360  48.184  1.00  0.00    -0.175 C 
HETATM    5  C11 UNL     1      27.355   5.583  48.562  1.00  0.00     0.087 C 
HETATM    6  C12 UNL     1      26.032   6.323  48.570  1.00  0.00     0.030 C 
HETATM    7  C13 UNL     1      26.604   7.422  48.124  1.00  0.00     0.138 C 
HETATM    8  N1  UNL     1      26.105   8.707  47.813  1.00  0.00    -0.263 N 
HETATM    9  O2  UNL     1      25.690   9.904  47.369  1.00  0.00    -0.051 OA
HETATM   10  N2  UNL     1      26.268  10.878  48.168  1.00  0.00     0.236 N 
HETATM   11  C14 UNL     1      27.467  11.656  48.305  1.00  0.00     0.390 A 
HETATM   12  O3  UNL     1      27.455  10.853  47.341  1.00  0.00    -0.120 OA
HETATM   13  C15 UNL     1      28.863  12.114  47.928  1.00  0.00     0.084 C 
HETATM   14  C16 UNL     1      29.308  11.253  46.801  1.00  0.00     0.005 C 
HETATM   15  C17 UNL     1      30.681  11.462  46.276  1.00  0.00     0.002 C 
HETATM   16  C18 UNL     1      31.760  11.247  47.306  1.00  0.00     0.027 C 
HETATM   17  C19 UNL     1      31.690   9.929  47.980  1.00  0.00     0.175 C 
HETATM   18  O4  UNL     1      31.723   8.827  47.091  1.00  0.00    -0.352 OA
HETATM   19  H11 UNL     1      26.296   8.992  46.789  1.00  0.00     0.190 HD
HETATM   20  H12 UNL     1      25.664  11.211  48.985  1.00  0.00     0.365 HD
ENDROOT
BRANCH   1  21
HETATM   21  C6  UNL     1      32.865   6.531  47.783  1.00  0.00     0.100 A 
HETATM   22  C5  UNL     1      32.887   5.197  47.586  1.00  0.00     0.024 A 
HETATM   23  C4  UNL     1      31.705   4.668  47.143  1.00  0.00     0.019 A 
HETATM   24  C21 UNL     1      34.066   4.561  47.859  1.00  0.00     0.073 A 
HETATM   25  C3  UNL     1      31.695   3.304  46.940  1.00  0.00     0.038 A 
HETATM   26  C2  UNL     1      32.844   2.541  47.184  1.00  0.00     0.070 A 
HETATM   27  C22 UNL     1      33.990   3.182  47.634  1.00  0.00     0.069 A 
HETATM   28  N4  UNL     1      35.158   5.201  48.301  1.00  0.00    -0.241 NA
HETATM   29  C20 UNL     1      35.113   6.528  48.490  1.00  0.00     0.234 A 
HETATM   30  N3  UNL     1      33.976   7.153  48.228  1.00  0.00    -0.239 NA
BRANCH  26  31
HETATM   31  O1  UNL     1      32.900   1.170  47.001  1.00  0.00    -0.356 OA
HETATM   32  C1  UNL     1      31.826   0.419  46.488  1.00  0.00     0.210 C 
ENDBRANCH  26  31
ENDBRANCH   1  21
TORSDOF 2
ENDMDL
MODEL 9
REMARK VINA RESULT:      -8.8      3.256      7.335
REMARK  2 active torsions:
REMARK  status: ('A' for Active; 'I' for Inactive)
REMARK    1  A    between atoms: O1_2  and  C2_3 
REMARK    2  A    between atoms: C6_7  and  C7_8 
ROOT
HETATM    1  C7  UNL     1      21.518   1.264  52.737  1.00  0.00     0.082 C 
HETATM    2  C8  UNL     1      21.293   2.425  52.186  1.00  0.00     0.126 C 
HETATM    3  C9  UNL     1      22.047   3.579  52.023  1.00  0.00     0.024 C 
HETATM    4  C10 UNL     1      22.682   4.515  51.883  1.00  0.00    -0.175 C 
HETATM    5  C11 UNL     1      23.484   5.653  51.713  1.00  0.00     0.087 C 
HETATM    6  C12 UNL     1      22.866   6.743  50.861  1.00  0.00     0.030 C 
HETATM    7  C13 UNL     1      21.752   6.055  50.728  1.00  0.00     0.138 C 
HETATM    8  N1  UNL     1      20.538   6.313  50.051  1.00  0.00    -0.263 N 
HETATM    9  O2  UNL     1      19.312   6.540  49.550  1.00  0.00    -0.051 OA
HETATM   10  N2  UNL     1      19.076   5.597  48.561  1.00  0.00     0.236 N 
HETATM   11  C14 UNL     1      18.599   4.257  48.376  1.00  0.00     0.390 A 
HETATM   12  O3  UNL     1      18.620   4.659  49.563  1.00  0.00    -0.120 OA
HETATM   13  C15 UNL     1      18.056   2.913  48.823  1.00  0.00     0.084 C 
HETATM   14  C16 UNL     1      18.036   2.931  50.309  1.00  0.00     0.005 C 
HETATM   15  C17 UNL     1      17.594   1.697  51.007  1.00  0.00     0.002 C 
HETATM   16  C18 UNL     1      18.445   0.491  50.699  1.00  0.00     0.027 C 
HETATM   17  C19 UNL     1      19.891   0.701  50.947  1.00  0.00     0.175 C 
HETATM   18  O4  UNL     1      20.194   1.111  52.268  1.00  0.00    -0.352 OA
HETATM   19  H11 UNL     1      19.682   6.294  50.708  1.00  0.00     0.190 HD
HETATM   20  H12 UNL     1      19.307   5.917  47.568  1.00  0.00     0.365 HD
ENDROOT
BRANCH   1  21
HETATM   21  C6  UNL     1      22.456   0.383  53.454  1.00  0.00     0.100 A 
HETATM   22  C5  UNL     1      23.788   0.251  53.295  1.00  0.00     0.024 A 
HETATM   23  C4  UNL     1      24.319   1.013  52.290  1.00  0.00     0.019 A 
HETATM   24  C21 UNL     1      24.420  -0.618  54.141  1.00  0.00     0.073 A 
HETATM   25  C3  UNL     1      25.679   0.894  52.098  1.00  0.00     0.038 A 
HETATM   26  C2  UNL     1      26.437   0.034  52.903  1.00  0.00     0.070 A 
HETATM   27  C22 UNL     1      25.795  -0.694  53.895  1.00  0.00     0.069 A 
HETATM   28  N4  UNL     1      23.776  -1.318  55.087  1.00  0.00    -0.241 NA
HETATM   29  C20 UNL     1      22.450  -1.172  55.227  1.00  0.00     0.234 A 
HETATM   30  N3  UNL     1      21.830  -0.331  54.412  1.00  0.00    -0.239 NA
BRANCH  26  31
HETATM   31  O1  UNL     1      27.804  -0.131  52.762  1.00  0.00    -0.356 OA
HETATM   32  C1  UNL     1      28.712   0.025  53.827  1.00  0.00     0.210 C 
ENDBRANCH  26  31
ENDBRANCH   1  21
TORSDOF 2
ENDMDL
