MODEL 1
REMARK VINA RESULT:      -7.9      0.000      0.000
REMARK  4 active torsions:
REMARK  status: ('A' for Active; 'I' for Inactive)
REMARK    1  A    between atoms: C2_2  and  O1_3 
REMARK    2  A    between atoms: O1_3  and  C3_4 
REMARK    3  A    between atoms: C7_9  and  N1_10 
REMARK    4  A    between atoms: N1_10  and  C8_11 
ROOT
HETATM    1  C3  UNL     1      20.360  -0.033  53.702  1.00  0.00     0.319 A 
HETATM    2  O2  UNL     1      20.265   0.726  52.518  1.00  0.00    -0.326 OA
HETATM    3  C4  UNL     1      21.387   1.092  51.794  1.00  0.00     0.139 A 
HETATM    4  C5  UNL     1      22.659   0.802  52.087  1.00  0.00     0.041 A 
HETATM    5  C6  UNL     1      22.908   0.029  53.276  1.00  0.00     0.041 A 
HETATM    6  C7  UNL     1      24.171  -0.324  53.693  1.00  0.00     0.141 A 
HETATM    7  N2  UNL     1      24.262  -1.039  54.830  1.00  0.00    -0.224 NA
HETATM    8  C15 UNL     1      23.179  -1.400  55.541  1.00  0.00     0.235 A 
HETATM    9  N3  UNL     1      21.947  -1.053  55.131  1.00  0.00    -0.240 NA
HETATM   10  C16 UNL     1      21.783  -0.330  53.989  1.00  0.00     0.105 A 
ENDROOT
BRANCH   6  11
HETATM   11  N1  UNL     1      25.214   0.119  52.842  1.00  0.00    -0.340 N 
HETATM   12  H9  UNL     1      24.771   0.124  51.896  1.00  0.00     0.167 HD
BRANCH  11  13
HETATM   13  C8  UNL     1      26.545   0.486  53.106  1.00  0.00     0.034 A 
HETATM   14  C9  UNL     1      26.785   1.847  53.257  1.00  0.00     0.029 A 
HETATM   15  C10 UNL     1      28.082   2.231  53.528  1.00  0.00     0.003 A 
HETATM   16  C11 UNL     1      29.062   1.263  53.635  1.00  0.00     0.007 A 
HETATM   17  C12 UNL     1      28.812  -0.098  53.482  1.00  0.00    -0.060 A 
HETATM   18  C13 UNL     1      29.960  -1.043  53.626  1.00  0.00     0.048 C 
HETATM   19  C14 UNL     1      27.504  -0.489  53.208  1.00  0.00     0.036 A 
ENDBRANCH  11  13
ENDBRANCH   6  11
BRANCH   1  20
HETATM   20  O1  UNL     1      19.578  -1.175  53.504  1.00  0.00    -0.355 OA
BRANCH  20  21
HETATM   21  C2  UNL     1      18.454  -0.714  52.788  1.00  0.00     0.167 C 
HETATM   22  C1  UNL     1      17.221  -1.542  53.078  1.00  0.00     0.033 C 
ENDBRANCH  20  21
ENDBRANCH   1  20
TORSDOF 4
ENDMDL
MODEL 2
REMARK VINA RESULT:      -7.5      2.529      7.167
REMARK  4 active torsions:
REMARK  status: ('A' for Active; 'I' for Inactive)
REMARK    1  A    between atoms: C2_2  and  O1_3 
REMARK    2  A    between atoms: O1_3  and  C3_4 
REMARK    3  A    between atoms: C7_9  and  N1_10 
REMARK    4  A    between atoms: N1_10  and  C8_11 
ROOT
HETATM    1  C3  UNL     1      26.845  -0.306  53.528  1.00  0.00     0.319 A 
HETATM    2  O2  UNL     1      26.968   0.602  52.458  1.00  0.00    -0.326 OA
HETATM    3  C4  UNL     1      25.871   1.267  51.935  1.00  0.00     0.139 A 
HETATM    4  C5  UNL     1      24.601   1.157  52.337  1.00  0.00     0.041 A 
HETATM    5  C6  UNL     1      24.325   0.258  53.428  1.00  0.00     0.041 A 
HETATM    6  C7  UNL     1      23.059   0.047  53.928  1.00  0.00     0.141 A 
HETATM    7  N2  UNL     1      22.941  -0.829  54.942  1.00  0.00    -0.224 NA
HETATM    8  C15 UNL     1      23.999  -1.479  55.459  1.00  0.00     0.235 A 
HETATM    9  N3  UNL     1      25.233  -1.271  54.968  1.00  0.00    -0.240 NA
HETATM   10  C16 UNL     1      25.425  -0.398  53.942  1.00  0.00     0.105 A 
ENDROOT
BRANCH   6  11
HETATM   11  N1  UNL     1      22.045   0.806  53.292  1.00  0.00    -0.340 N 
HETATM   12  H9  UNL     1      22.418   1.781  53.317  1.00  0.00     0.167 HD
BRANCH  11  13
HETATM   13  C8  UNL     1      20.812   0.434  52.730  1.00  0.00     0.034 A 
HETATM   14  C9  UNL     1      20.520   0.972  51.482  1.00  0.00     0.029 A 
HETATM   15  C10 UNL     1      19.319   0.612  50.906  1.00  0.00     0.003 A 
HETATM   16  C11 UNL     1      18.480  -0.250  51.584  1.00  0.00     0.007 A 
HETATM   17  C12 UNL     1      18.781  -0.785  52.834  1.00  0.00    -0.060 A 
HETATM   18  C13 UNL     1      17.788  -1.711  53.459  1.00  0.00     0.048 C 
HETATM   19  C14 UNL     1      19.991  -0.423  53.418  1.00  0.00     0.036 A 
ENDBRANCH  11  13
ENDBRANCH   6  11
BRANCH   1  20
HETATM   20  O1  UNL     1      27.693   0.156  54.539  1.00  0.00    -0.355 OA
BRANCH  20  21
HETATM   21  C2  UNL     1      28.929   0.367  53.893  1.00  0.00     0.167 C 
HETATM   22  C1  UNL     1      29.758  -0.899  53.832  1.00  0.00     0.033 C 
ENDBRANCH  20  21
ENDBRANCH   1  20
TORSDOF 4
ENDMDL
MODEL 3
REMARK VINA RESULT:      -7.5      1.339      2.258
REMARK  4 active torsions:
REMARK  status: ('A' for Active; 'I' for Inactive)
REMARK    1  A    between atoms: C2_2  and  O1_3 
REMARK    2  A    between atoms: O1_3  and  C3_4 
REMARK    3  A    between atoms: C7_9  and  N1_10 
REMARK    4  A    between atoms: N1_10  and  C8_11 
ROOT
HETATM    1  C3  UNL     1      20.677  -0.753  53.002  1.00  0.00     0.319 A 
HETATM    2  O2  UNL     1      20.768  -1.512  54.186  1.00  0.00    -0.326 OA
HETATM    3  C4  UNL     1      21.923  -1.537  54.950  1.00  0.00     0.139 A 
HETATM    4  C5  UNL     1      23.063  -0.887  54.699  1.00  0.00     0.041 A 
HETATM    5  C6  UNL     1      23.116  -0.070  53.514  1.00  0.00     0.041 A 
HETATM    6  C7  UNL     1      24.235   0.639  53.138  1.00  0.00     0.141 A 
HETATM    7  N2  UNL     1      24.151   1.353  52.000  1.00  0.00    -0.224 NA
HETATM    8  C15 UNL     1      23.035   1.386  51.251  1.00  0.00     0.235 A 
HETATM    9  N3  UNL     1      21.945   0.692  51.621  1.00  0.00    -0.240 NA
HETATM   10  C16 UNL     1      21.960  -0.052  52.761  1.00  0.00     0.105 A 
ENDROOT
BRANCH   6  11
HETATM   11  N1  UNL     1      25.332   0.516  54.026  1.00  0.00    -0.340 N 
HETATM   12  H9  UNL     1      24.889   0.200  54.918  1.00  0.00     0.167 HD
BRANCH  11  13
HETATM   13  C8  UNL     1      26.708   0.738  53.850  1.00  0.00     0.034 A 
HETATM   14  C9  UNL     1      27.100   2.063  53.703  1.00  0.00     0.029 A 
HETATM   15  C10 UNL     1      28.449   2.307  53.540  1.00  0.00     0.003 A 
HETATM   16  C11 UNL     1      29.328   1.242  53.531  1.00  0.00     0.007 A 
HETATM   17  C12 UNL     1      28.926  -0.084  53.679  1.00  0.00    -0.060 A 
HETATM   18  C13 UNL     1      29.979  -1.143  53.655  1.00  0.00     0.048 C 
HETATM   19  C14 UNL     1      27.566  -0.332  53.843  1.00  0.00     0.036 A 
ENDBRANCH  11  13
ENDBRANCH   6  11
BRANCH   1  20
HETATM   20  O1  UNL     1      19.590   0.110  53.167  1.00  0.00    -0.355 OA
BRANCH  20  21
HETATM   21  C2  UNL     1      18.528  -0.525  52.489  1.00  0.00     0.167 C 
HETATM   22  C1  UNL     1      18.205   0.160  51.178  1.00  0.00     0.033 C 
ENDBRANCH  20  21
ENDBRANCH   1  20
TORSDOF 4
ENDMDL
MODEL 4
REMARK VINA RESULT:      -7.4      4.114      5.460
REMARK  4 active torsions:
REMARK  status: ('A' for Active; 'I' for Inactive)
REMARK    1  A    between atoms: C2_2  and  O1_3 
REMARK    2  A    between atoms: O1_3  and  C3_4 
REMARK    3  A    between atoms: C7_9  and  N1_10 
REMARK    4  A    between atoms: N1_10  and  C8_11 
ROOT
HETATM    1  C3  UNL     1      23.632   0.956  53.046  1.00  0.00     0.319 A 
HETATM    2  O2  UNL     1      22.598   1.156  52.110  1.00  0.00    -0.326 OA
HETATM    3  C4  UNL     1      22.822   1.785  50.897  1.00  0.00     0.139 A 
HETATM    4  C5  UNL     1      23.984   2.274  50.451  1.00  0.00     0.041 A 
HETATM    5  C6  UNL     1      25.133   2.141  51.308  1.00  0.00     0.041 A 
HETATM    6  C7  UNL     1      26.382   2.613  50.971  1.00  0.00     0.141 A 
HETATM    7  N2  UNL     1      27.367   2.432  51.871  1.00  0.00    -0.224 NA
HETATM    8  C15 UNL     1      27.161   1.822  53.051  1.00  0.00     0.235 A 
HETATM    9  N3  UNL     1      25.940   1.363  53.377  1.00  0.00    -0.240 NA
HETATM   10  C16 UNL     1      24.898   1.512  52.513  1.00  0.00     0.105 A 
ENDROOT
BRANCH   6  11
HETATM   11  N1  UNL     1      26.451   3.225  49.695  1.00  0.00    -0.340 N 
HETATM   12  H9  UNL     1      26.288   2.433  49.035  1.00  0.00     0.167 HD
BRANCH  11  13
HETATM   13  C8  UNL     1      26.677   4.557  49.308  1.00  0.00     0.034 A 
HETATM   14  C9  UNL     1      25.704   5.476  49.681  1.00  0.00     0.029 A 
HETATM   15  C10 UNL     1      25.909   6.793  49.322  1.00  0.00     0.003 A 
HETATM   16  C11 UNL     1      27.051   7.128  48.622  1.00  0.00     0.007 A 
HETATM   17  C12 UNL     1      28.022   6.200  48.252  1.00  0.00    -0.060 A 
HETATM   18  C13 UNL     1      29.214   6.694  47.499  1.00  0.00     0.048 C 
HETATM   19  C14 UNL     1      27.817   4.871  48.612  1.00  0.00     0.036 A 
ENDBRANCH  11  13
ENDBRANCH   6  11
BRANCH   1  20
HETATM   20  O1  UNL     1      23.684  -0.419  53.292  1.00  0.00    -0.355 OA
BRANCH  20  21
HETATM   21  C2  UNL     1      22.337  -0.798  53.464  1.00  0.00     0.167 C 
HETATM   22  C1  UNL     1      21.977  -0.956  54.926  1.00  0.00     0.033 C 
ENDBRANCH  20  21
ENDBRANCH   1  20
TORSDOF 4
ENDMDL
MODEL 5
REMARK VINA RESULT:      -7.2      2.938      7.313
REMARK  4 active torsions:
REMARK  status: ('A' for Active; 'I' for Inactive)
REMARK    1  A    between atoms: C2_2  and  O1_3 
REMARK    2  A    between atoms: O1_3  and  C3_4 
REMARK    3  A    between atoms: C7_9  and  N1_10 
REMARK    4  A    between atoms: N1_10  and  C8_11 
ROOT
HETATM    1  C3  UNL     1      27.348  -0.154  53.507  1.00  0.00     0.319 A 
HETATM    2  O2  UNL     1      26.496  -0.914  54.332  1.00  0.00    -0.326 OA
HETATM    3  C4  UNL     1      25.129  -0.696  54.368  1.00  0.00     0.139 A 
HETATM    4  C5  UNL     1      24.445   0.216  53.670  1.00  0.00     0.041 A 
HETATM    5  C6  UNL     1      25.191   1.070  52.782  1.00  0.00     0.041 A 
HETATM    6  C7  UNL     1      24.607   2.055  52.018  1.00  0.00     0.141 A 
HETATM    7  N2  UNL     1      25.423   2.789  51.239  1.00  0.00    -0.224 NA
HETATM    8  C15 UNL     1      26.751   2.585  51.195  1.00  0.00     0.235 A 
HETATM    9  N3  UNL     1      27.318   1.623  51.943  1.00  0.00    -0.240 NA
HETATM   10  C16 UNL     1      26.551   0.843  52.754  1.00  0.00     0.105 A 
ENDROOT
BRANCH   6  11
HETATM   11  N1  UNL     1      23.200   2.149  52.160  1.00  0.00    -0.340 N 
HETATM   12  H9  UNL     1      23.080   2.717  53.029  1.00  0.00     0.167 HD
BRANCH  11  13
HETATM   13  C8  UNL     1      22.145   1.643  51.382  1.00  0.00     0.034 A 
HETATM   14  C9  UNL     1      22.311   1.717  50.004  1.00  0.00     0.029 A 
HETATM   15  C10 UNL     1      21.293   1.216  49.219  1.00  0.00     0.003 A 
HETATM   16  C11 UNL     1      20.179   0.674  49.829  1.00  0.00     0.007 A 
HETATM   17  C12 UNL     1      20.020   0.604  51.211  1.00  0.00    -0.060 A 
HETATM   18  C13 UNL     1      18.767  -0.010  51.743  1.00  0.00     0.048 C 
HETATM   19  C14 UNL     1      21.046   1.110  52.005  1.00  0.00     0.036 A 
ENDBRANCH  11  13
ENDBRANCH   6  11
BRANCH   1  20
HETATM   20  O1  UNL     1      28.023  -1.064  52.689  1.00  0.00    -0.355 OA
BRANCH  20  21
HETATM   21  C2  UNL     1      29.220  -1.341  53.381  1.00  0.00     0.167 C 
HETATM   22  C1  UNL     1      30.024  -0.086  53.645  1.00  0.00     0.033 C 
ENDBRANCH  20  21
ENDBRANCH   1  20
TORSDOF 4
ENDMDL
MODEL 6
REMARK VINA RESULT:      -7.2      3.179      6.994
REMARK  4 active torsions:
REMARK  status: ('A' for Active; 'I' for Inactive)
REMARK    1  A    between atoms: C2_2  and  O1_3 
REMARK    2  A    between atoms: O1_3  and  C3_4 
REMARK    3  A    between atoms: C7_9  and  N1_10 
REMARK    4  A    between atoms: N1_10  and  C8_11 
ROOT
HETATM    1  C3  UNL     1      27.718   0.706  53.243  1.00  0.00     0.319 A 
HETATM    2  O2  UNL     1      27.926   1.818  52.402  1.00  0.00    -0.326 OA
HETATM    3  C4  UNL     1      26.870   2.533  51.862  1.00  0.00     0.139 A 
HETATM    4  C5  UNL     1      25.567   2.294  52.040  1.00  0.00     0.041 A 
HETATM    5  C6  UNL     1      25.204   1.181  52.879  1.00  0.00     0.041 A 
HETATM    6  C7  UNL     1      23.899   0.824  53.132  1.00  0.00     0.141 A 
HETATM    7  N2  UNL     1      23.701  -0.245  53.925  1.00  0.00    -0.224 NA
HETATM    8  C15 UNL     1      24.718  -0.946  54.456  1.00  0.00     0.235 A 
HETATM    9  N3  UNL     1      25.991  -0.595  54.207  1.00  0.00    -0.240 NA
HETATM   10  C16 UNL     1      26.264   0.477  53.412  1.00  0.00     0.105 A 
ENDROOT
BRANCH   6  11
HETATM   11  N1  UNL     1      22.934   1.657  52.513  1.00  0.00    -0.340 N 
HETATM   12  H9  UNL     1      22.877   2.481  53.151  1.00  0.00     0.167 HD
BRANCH  11  13
HETATM   13  C8  UNL     1      22.184   1.504  51.334  1.00  0.00     0.034 A 
HETATM   14  C9  UNL     1      20.918   0.949  51.481  1.00  0.00     0.029 A 
HETATM   15  C10 UNL     1      20.159   0.800  50.338  1.00  0.00     0.003 A 
HETATM   16  C11 UNL     1      20.684   1.202  49.126  1.00  0.00     0.007 A 
HETATM   17  C12 UNL     1      21.953   1.757  48.987  1.00  0.00    -0.060 A 
HETATM   18  C13 UNL     1      22.400   2.154  47.619  1.00  0.00     0.048 C 
HETATM   19  C14 UNL     1      22.722   1.908  50.139  1.00  0.00     0.036 A 
ENDBRANCH  11  13
ENDBRANCH   6  11
BRANCH   1  20
HETATM   20  O1  UNL     1      28.384   0.984  54.439  1.00  0.00    -0.355 OA
BRANCH  20  21
HETATM   21  C2  UNL     1      29.699   0.519  54.229  1.00  0.00     0.167 C 
HETATM   22  C1  UNL     1      29.719  -0.906  53.719  1.00  0.00     0.033 C 
ENDBRANCH  20  21
ENDBRANCH   1  20
TORSDOF 4
ENDMDL
MODEL 7
REMARK VINA RESULT:      -6.9      5.424      7.758
REMARK  4 active torsions:
REMARK  status: ('A' for Active; 'I' for Inactive)
REMARK    1  A    between atoms: C2_2  and  O1_3 
REMARK    2  A    between atoms: O1_3  and  C3_4 
REMARK    3  A    between atoms: C7_9  and  N1_10 
REMARK    4  A    between atoms: N1_10  and  C8_11 
ROOT
HETATM    1  C3  UNL     1      26.492   6.960  49.309  1.00  0.00     0.319 A 
HETATM    2  O2  UNL     1      27.485   6.237  48.618  1.00  0.00    -0.326 OA
HETATM    3  C4  UNL     1      27.532   4.853  48.643  1.00  0.00     0.139 A 
HETATM    4  C5  UNL     1      26.695   4.036  49.290  1.00  0.00     0.041 A 
HETATM    5  C6  UNL     1      25.627   4.638  50.044  1.00  0.00     0.041 A 
HETATM    6  C7  UNL     1      24.707   3.907  50.761  1.00  0.00     0.141 A 
HETATM    7  N2  UNL     1      23.766   4.599  51.431  1.00  0.00    -0.224 NA
HETATM    8  C15 UNL     1      23.710   5.942  51.413  1.00  0.00     0.235 A 
HETATM    9  N3  UNL     1      24.610   6.652  50.711  1.00  0.00    -0.240 NA
HETATM   10  C16 UNL     1      25.589   6.017  50.010  1.00  0.00     0.105 A 
ENDROOT
BRANCH   6  11
HETATM   11  N1  UNL     1      24.884   2.504  50.682  1.00  0.00    -0.340 N 
HETATM   12  H9  UNL     1      24.822   2.307  49.659  1.00  0.00     0.167 HD
BRANCH  11  13
HETATM   13  C8  UNL     1      25.099   1.531  51.673  1.00  0.00     0.034 A 
HETATM   14  C9  UNL     1      23.994   1.185  52.442  1.00  0.00     0.029 A 
HETATM   15  C10 UNL     1      24.178   0.223  53.414  1.00  0.00     0.003 A 
HETATM   16  C11 UNL     1      25.429  -0.340  53.573  1.00  0.00     0.007 A 
HETATM   17  C12 UNL     1      26.531   0.011  52.798  1.00  0.00    -0.060 A 
HETATM   18  C13 UNL     1      27.829  -0.678  53.069  1.00  0.00     0.048 C 
HETATM   19  C14 UNL     1      26.348   0.982  51.817  1.00  0.00     0.036 A 
ENDBRANCH  11  13
ENDBRANCH   6  11
BRANCH   1  20
HETATM   20  O1  UNL     1      25.844   7.752  48.357  1.00  0.00    -0.355 OA
BRANCH  20  21
HETATM   21  C2  UNL     1      26.597   8.944  48.318  1.00  0.00     0.167 C 
HETATM   22  C1  UNL     1      26.828   9.512  49.702  1.00  0.00     0.033 C 
ENDBRANCH  20  21
ENDBRANCH   1  20
TORSDOF 4
ENDMDL
MODEL 8
REMARK VINA RESULT:      -6.9      2.884      7.469
REMARK  4 active torsions:
REMARK  status: ('A' for Active; 'I' for Inactive)
REMARK    1  A    between atoms: C2_2  and  O1_3 
REMARK    2  A    between atoms: O1_3  and  C3_4 
REMARK    3  A    between atoms: C7_9  and  N1_10 
REMARK    4  A    between atoms: N1_10  and  C8_11 
ROOT
HETATM    1  C3  UNL     1      27.076   1.377  54.225  1.00  0.00     0.319 A 
HETATM    2  O2  UNL     1      26.974   0.382  55.218  1.00  0.00    -0.326 OA
HETATM    3  C4  UNL     1      25.885  -0.472  55.286  1.00  0.00     0.139 A 
HETATM    4  C5  UNL     1      24.825  -0.484  54.473  1.00  0.00     0.041 A 
HETATM    5  C6  UNL     1      24.793   0.485  53.408  1.00  0.00     0.041 A 
HETATM    6  C7  UNL     1      23.752   0.584  52.511  1.00  0.00     0.141 A 
HETATM    7  N2  UNL     1      23.845   1.542  51.571  1.00  0.00    -0.224 NA
HETATM    8  C15 UNL     1      24.897   2.375  51.494  1.00  0.00     0.235 A 
HETATM    9  N3  UNL     1      25.912   2.276  52.371  1.00  0.00    -0.240 NA
HETATM   10  C16 UNL     1      25.883   1.329  53.349  1.00  0.00     0.105 A 
ENDROOT
BRANCH   6  11
HETATM   11  N1  UNL     1      22.718  -0.364  52.709  1.00  0.00    -0.340 N 
HETATM   12  H9  UNL     1      23.224  -1.211  53.050  1.00  0.00     0.167 HD
BRANCH  11  13
HETATM   13  C8  UNL     1      21.326  -0.282  52.525  1.00  0.00     0.034 A 
HETATM   14  C9  UNL     1      20.542  -0.824  53.536  1.00  0.00     0.029 A 
HETATM   15  C10 UNL     1      19.173  -0.746  53.383  1.00  0.00     0.003 A 
HETATM   16  C11 UNL     1      18.657  -0.142  52.253  1.00  0.00     0.007 A 
HETATM   17  C12 UNL     1      19.450   0.400  51.245  1.00  0.00    -0.060 A 
HETATM   18  C13 UNL     1      18.767   1.030  50.076  1.00  0.00     0.048 C 
HETATM   19  C14 UNL     1      20.832   0.321  51.397  1.00  0.00     0.036 A 
ENDBRANCH  11  13
ENDBRANCH   6  11
BRANCH   1  20
HETATM   20  O1  UNL     1      28.277   1.140  53.549  1.00  0.00    -0.355 OA
BRANCH  20  21
HETATM   21  C2  UNL     1      28.985   0.254  54.387  1.00  0.00     0.167 C 
HETATM   22  C1  UNL     1      29.563  -0.913  53.616  1.00  0.00     0.033 C 
ENDBRANCH  20  21
ENDBRANCH   1  20
TORSDOF 4
ENDMDL
MODEL 9
REMARK VINA RESULT:      -6.9      4.727      6.162
REMARK  4 active torsions:
REMARK  status: ('A' for Active; 'I' for Inactive)
REMARK    1  A    between atoms: C2_2  and  O1_3 
REMARK    2  A    between atoms: O1_3  and  C3_4 
REMARK    3  A    between atoms: C7_9  and  N1_10 
REMARK    4  A    between atoms: N1_10  and  C8_11 
ROOT
HETATM    1  C3  UNL     1      25.209   5.920  49.716  1.00  0.00     0.319 A 
HETATM    2  O2  UNL     1      26.285   5.550  48.883  1.00  0.00    -0.326 OA
HETATM    3  C4  UNL     1      26.919   4.326  49.010  1.00  0.00     0.139 A 
HETATM    4  C5  UNL     1      26.630   3.361  49.889  1.00  0.00     0.041 A 
HETATM    5  C6  UNL     1      25.548   3.603  50.809  1.00  0.00     0.041 A 
HETATM    6  C7  UNL     1      25.159   2.695  51.769  1.00  0.00     0.141 A 
HETATM    7  N2  UNL     1      24.140   3.054  52.571  1.00  0.00    -0.224 NA
HETATM    8  C15 UNL     1      23.516   4.239  52.457  1.00  0.00     0.235 A 
HETATM    9  N3  UNL     1      23.898   5.123  51.518  1.00  0.00    -0.240 NA
HETATM   10  C16 UNL     1      24.923   4.825  50.673  1.00  0.00     0.105 A 
ENDROOT
BRANCH   6  11
HETATM   11  N1  UNL     1      25.901   1.488  51.767  1.00  0.00    -0.340 N 
HETATM   12  H9  UNL     1      25.412   0.902  51.054  1.00  0.00     0.167 HD
BRANCH  11  13
HETATM   13  C8  UNL     1      27.029   1.081  52.500  1.00  0.00     0.034 A 
HETATM   14  C9  UNL     1      27.692   2.078  53.205  1.00  0.00     0.029 A 
HETATM   15  C10 UNL     1      28.796   1.701  53.942  1.00  0.00     0.003 A 
HETATM   16  C11 UNL     1      29.182   0.375  53.944  1.00  0.00     0.007 A 
HETATM   17  C12 UNL     1      28.511  -0.618  53.234  1.00  0.00    -0.060 A 
HETATM   18  C13 UNL     1      29.029  -2.016  53.323  1.00  0.00     0.048 C 
HETATM   19  C14 UNL     1      27.397  -0.240  52.489  1.00  0.00     0.036 A 
ENDBRANCH  11  13
ENDBRANCH   6  11
BRANCH   1  20
HETATM   20  O1  UNL     1      24.137   6.217  48.869  1.00  0.00    -0.355 OA
BRANCH  20  21
HETATM   21  C2  UNL     1      24.166   7.621  48.743  1.00  0.00     0.167 C 
HETATM   22  C1  UNL     1      23.050   8.281  49.525  1.00  0.00     0.033 C 
ENDBRANCH  20  21
ENDBRANCH   1  20
TORSDOF 4
ENDMDL
