MODEL 1
REMARK VINA RESULT:      -7.8      0.000      0.000
REMARK  5 active torsions:
REMARK  status: ('A' for Active; 'I' for Inactive)
REMARK    1  A    between atoms: C2_2  and  C3_3 
REMARK    2  A    between atoms: C3_3  and  C4_4 
REMARK    3  A    between atoms: C13_16  and  O1_17 
REMARK    4  A    between atoms: C17_22  and  C19_24 
REMARK    5  A    between atoms: C19_24  and  C20_25 
ROOT
HETATM    1  C4  UNL     1      22.572   1.389  51.862  1.00  0.00     0.070 A 
HETATM    2  C5  UNL     1      22.033   0.023  52.169  1.00  0.00     0.008 A 
HETATM    3  C6  UNL     1      20.955  -0.449  52.725  1.00  0.00     0.000 A 
HETATM    4  C7  UNL     1      20.010   0.562  53.173  1.00  0.00     0.017 A 
HETATM    5  C8  UNL     1      20.306   1.851  52.994  1.00  0.00     0.088 A 
HETATM    6  N1  UNL     1      21.503   2.320  52.385  1.00  0.00    -0.356 N 
HETATM    7  C9  UNL     1      21.488   3.792  52.396  1.00  0.00     0.275 C 
HETATM    8  N2  UNL     1      22.527   4.384  51.632  1.00  0.00    -0.263 NA
HETATM    9  C10 UNL     1      22.486   5.095  50.604  1.00  0.00     0.228 C 
HETATM   10  N3  UNL     1      22.915   5.888  49.495  1.00  0.00    -0.254 NA
HETATM   11  C11 UNL     1      24.092   5.815  48.971  1.00  0.00     0.120 C 
HETATM   12  C12 UNL     1      25.462   5.374  48.770  1.00  0.00     0.053 C 
HETATM   13  C13 UNL     1      26.219   4.565  49.482  1.00  0.00     0.064 C 
HETATM   14  C15 UNL     1      26.038   3.833  50.755  1.00  0.00     0.178 C 
HETATM   15  N4  UNL     1      25.928   2.507  50.583  1.00  0.00    -0.415 N 
HETATM   16  C16 UNL     1      26.003   1.436  51.399  1.00  0.00     0.123 C 
HETATM   17  C17 UNL     1      25.128   1.187  52.572  1.00  0.00    -0.025 C 
HETATM   18  C18 UNL     1      25.817   2.251  53.606  1.00  0.00     0.017 C 
HETATM   19  C22 UNL     1      23.766   1.620  52.655  1.00  0.00     0.050 C 
HETATM   20  H20 UNL     1      26.219   2.254  49.588  1.00  0.00     0.153 HD
ENDROOT
BRANCH  17  21
HETATM   21  C19 UNL     1      25.489  -0.078  53.290  1.00  0.00     0.015 C 
BRANCH  21  22
HETATM   22  C20 UNL     1      26.759  -0.715  53.002  1.00  0.00    -0.010 C 
HETATM   23  C21 UNL     1      26.761  -1.964  52.541  1.00  0.00     0.005 C 
ENDBRANCH  21  22
ENDBRANCH  17  21
BRANCH   1  24
HETATM   24  C3  UNL     1      22.560   1.505  50.421  1.00  0.00     0.004 C 
BRANCH  24  25
HETATM   25  C2  UNL     1      22.186   1.725  49.159  1.00  0.00    -0.032 C 
HETATM   26  C1  UNL     1      22.659   2.470  47.997  1.00  0.00     0.036 C 
ENDBRANCH  24  25
ENDBRANCH   1  24
BRANCH  13  27
HETATM   27  O1  UNL     1      27.495   4.336  48.981  1.00  0.00    -0.359 OA
HETATM   28  C14 UNL     1      28.307   5.329  48.405  1.00  0.00     0.209 C 
ENDBRANCH  13  27
TORSDOF 5
ENDMDL
MODEL 2
REMARK VINA RESULT:      -7.6      1.590      2.040
REMARK  5 active torsions:
REMARK  status: ('A' for Active; 'I' for Inactive)
REMARK    1  A    between atoms: C2_2  and  C3_3 
REMARK    2  A    between atoms: C3_3  and  C4_4 
REMARK    3  A    between atoms: C13_16  and  O1_17 
REMARK    4  A    between atoms: C17_22  and  C19_24 
REMARK    5  A    between atoms: C19_24  and  C20_25 
ROOT
HETATM    1  C4  UNL     1      22.325   0.658  52.364  1.00  0.00     0.070 A 
HETATM    2  C5  UNL     1      22.607  -0.756  52.775  1.00  0.00     0.008 A 
HETATM    3  C6  UNL     1      22.022  -1.641  53.529  1.00  0.00     0.000 A 
HETATM    4  C7  UNL     1      20.782  -1.192  54.144  1.00  0.00     0.017 A 
HETATM    5  C8  UNL     1      20.353   0.048  53.904  1.00  0.00     0.088 A 
HETATM    6  N1  UNL     1      21.032   0.985  53.076  1.00  0.00    -0.356 N 
HETATM    7  C9  UNL     1      20.277   2.249  53.082  1.00  0.00     0.275 C 
HETATM    8  N2  UNL     1      20.735   3.197  52.131  1.00  0.00    -0.263 NA
HETATM    9  C10 UNL     1      20.174   3.687  51.126  1.00  0.00     0.228 C 
HETATM   10  N3  UNL     1      19.957   4.472  49.951  1.00  0.00    -0.254 NA
HETATM   11  C11 UNL     1      20.907   4.939  49.213  1.00  0.00     0.120 C 
HETATM   12  C12 UNL     1      22.259   5.217  48.758  1.00  0.00     0.053 C 
HETATM   13  C13 UNL     1      23.425   4.966  49.316  1.00  0.00     0.064 C 
HETATM   14  C15 UNL     1      23.847   4.372  50.605  1.00  0.00     0.178 C 
HETATM   15  N4  UNL     1      24.396   3.156  50.463  1.00  0.00    -0.415 N 
HETATM   16  C16 UNL     1      25.133   2.352  51.256  1.00  0.00     0.123 C 
HETATM   17  C17 UNL     1      24.707   1.822  52.576  1.00  0.00    -0.025 C 
HETATM   18  C18 UNL     1      24.920   3.185  53.454  1.00  0.00     0.017 C 
HETATM   19  C22 UNL     1      23.347   1.529  52.914  1.00  0.00     0.050 C 
HETATM   20  H20 UNL     1      24.610   2.982  49.432  1.00  0.00     0.153 HD
ENDROOT
BRANCH  17  21
HETATM   21  C19 UNL     1      25.769   0.981  53.219  1.00  0.00     0.015 C 
BRANCH  21  22
HETATM   22  C20 UNL     1      26.500   0.027  52.408  1.00  0.00    -0.010 C 
HETATM   23  C21 UNL     1      26.417  -1.267  52.707  1.00  0.00     0.005 C 
ENDBRANCH  21  22
ENDBRANCH  17  21
BRANCH   1  24
HETATM   24  C3  UNL     1      22.022   0.607  50.951  1.00  0.00     0.004 C 
BRANCH  24  25
HETATM   25  C2  UNL     1      21.471   0.813  49.753  1.00  0.00    -0.032 C 
HETATM   26  C1  UNL     1      21.835   1.419  48.476  1.00  0.00     0.036 C 
ENDBRANCH  24  25
ENDBRANCH   1  24
BRANCH  13  27
HETATM   27  O1  UNL     1      24.541   5.349  48.582  1.00  0.00    -0.359 OA
HETATM   28  C14 UNL     1      25.522   6.244  49.047  1.00  0.00     0.209 C 
ENDBRANCH  13  27
TORSDOF 5
ENDMDL
MODEL 3
REMARK VINA RESULT:      -7.4      2.382      4.456
REMARK  5 active torsions:
REMARK  status: ('A' for Active; 'I' for Inactive)
REMARK    1  A    between atoms: C2_2  and  C3_3 
REMARK    2  A    between atoms: C3_3  and  C4_4 
REMARK    3  A    between atoms: C13_16  and  O1_17 
REMARK    4  A    between atoms: C17_22  and  C19_24 
REMARK    5  A    between atoms: C19_24  and  C20_25 
ROOT
HETATM    1  C4  UNL     1      19.789   0.929  51.302  1.00  0.00     0.070 A 
HETATM    2  C5  UNL     1      18.642   0.087  50.828  1.00  0.00     0.008 A 
HETATM    3  C6  UNL     1      17.417   0.311  50.450  1.00  0.00     0.000 A 
HETATM    4  C7  UNL     1      17.019   1.710  50.475  1.00  0.00     0.017 A 
HETATM    5  C8  UNL     1      17.902   2.628  50.872  1.00  0.00     0.088 A 
HETATM    6  N1  UNL     1      19.231   2.334  51.283  1.00  0.00    -0.356 N 
HETATM    7  C9  UNL     1      19.887   3.591  51.681  1.00  0.00     0.275 C 
HETATM    8  N2  UNL     1      21.282   3.465  51.913  1.00  0.00    -0.263 NA
HETATM    9  C10 UNL     1      22.261   3.966  51.318  1.00  0.00     0.228 C 
HETATM   10  N3  UNL     1      23.611   4.284  50.974  1.00  0.00    -0.254 NA
HETATM   11  C11 UNL     1      24.626   3.551  51.290  1.00  0.00     0.120 C 
HETATM   12  C12 UNL     1      25.373   2.445  51.865  1.00  0.00     0.053 C 
HETATM   13  C13 UNL     1      24.985   1.454  52.639  1.00  0.00     0.064 C 
HETATM   14  C15 UNL     1      23.701   1.079  53.273  1.00  0.00     0.178 C 
HETATM   15  N4  UNL     1      23.144  -0.009  52.719  1.00  0.00    -0.415 N 
HETATM   16  C16 UNL     1      22.160  -0.858  53.081  1.00  0.00     0.123 C 
HETATM   17  C17 UNL     1      20.751  -0.477  53.345  1.00  0.00    -0.025 C 
HETATM   18  C18 UNL     1      20.964   0.193  54.822  1.00  0.00     0.017 C 
HETATM   19  C22 UNL     1      20.082   0.604  52.686  1.00  0.00     0.050 C 
HETATM   20  H20 UNL     1      23.860  -0.493  52.093  1.00  0.00     0.153 HD
ENDROOT
BRANCH  17  21
HETATM   21  C19 UNL     1      19.914  -1.650  53.757  1.00  0.00     0.015 C 
BRANCH  21  22
HETATM   22  C20 UNL     1      18.469  -1.548  53.679  1.00  0.00    -0.010 C 
HETATM   23  C21 UNL     1      17.750  -2.665  53.588  1.00  0.00     0.005 C 
ENDBRANCH  21  22
ENDBRANCH  17  21
BRANCH   1  24
HETATM   24  C3  UNL     1      20.787   0.862  50.258  1.00  0.00     0.004 C 
BRANCH  24  25
HETATM   25  C2  UNL     1      21.468   1.050  49.126  1.00  0.00    -0.032 C 
HETATM   26  C1  UNL     1      21.642   2.092  48.119  1.00  0.00     0.036 C 
ENDBRANCH  24  25
ENDBRANCH   1  24
BRANCH  13  27
HETATM   27  O1  UNL     1      25.972   0.540  52.990  1.00  0.00    -0.359 OA
HETATM   28  C14 UNL     1      26.727  -0.200  52.063  1.00  0.00     0.209 C 
ENDBRANCH  13  27
TORSDOF 5
ENDMDL
MODEL 4
REMARK VINA RESULT:      -7.0      6.409     10.947
REMARK  5 active torsions:
REMARK  status: ('A' for Active; 'I' for Inactive)
REMARK    1  A    between atoms: C2_2  and  C3_3 
REMARK    2  A    between atoms: C3_3  and  C4_4 
REMARK    3  A    between atoms: C13_16  and  O1_17 
REMARK    4  A    between atoms: C17_22  and  C19_24 
REMARK    5  A    between atoms: C19_24  and  C20_25 
ROOT
HETATM    1  C4  UNL     1      31.819   6.070  47.215  1.00  0.00     0.070 A 
HETATM    2  C5  UNL     1      31.875   4.645  47.681  1.00  0.00     0.008 A 
HETATM    3  C6  UNL     1      32.316   3.523  47.193  1.00  0.00     0.000 A 
HETATM    4  C7  UNL     1      32.914   3.628  45.870  1.00  0.00     0.017 A 
HETATM    5  C8  UNL     1      32.962   4.820  45.274  1.00  0.00     0.088 A 
HETATM    6  N1  UNL     1      32.459   6.022  45.846  1.00  0.00    -0.356 N 
HETATM    7  C9  UNL     1      32.657   7.118  44.882  1.00  0.00     0.275 C 
HETATM    8  N2  UNL     1      32.389   8.406  45.413  1.00  0.00    -0.263 NA
HETATM    9  C10 UNL     1      33.141   9.386  45.607  1.00  0.00     0.228 C 
HETATM   10  N3  UNL     1      33.586  10.690  45.988  1.00  0.00    -0.254 NA
HETATM   11  C11 UNL     1      32.976  11.436  46.847  1.00  0.00     0.120 C 
HETATM   12  C12 UNL     1      31.969  11.851  47.810  1.00  0.00     0.053 C 
HETATM   13  C13 UNL     1      30.838  11.283  48.171  1.00  0.00     0.064 C 
HETATM   14  C15 UNL     1      30.107  10.069  47.742  1.00  0.00     0.178 C 
HETATM   15  N4  UNL     1      30.124   9.097  48.667  1.00  0.00    -0.415 N 
HETATM   16  C16 UNL     1      29.427   7.958  48.856  1.00  0.00     0.123 C 
HETATM   17  C17 UNL     1      29.363   6.821  47.904  1.00  0.00    -0.025 C 
HETATM   18  C18 UNL     1      28.334   7.485  46.819  1.00  0.00     0.017 C 
HETATM   19  C22 UNL     1      30.434   6.457  47.026  1.00  0.00     0.050 C 
HETATM   20  H20 UNL     1      30.470   9.496  49.594  1.00  0.00     0.153 HD
ENDROOT
BRANCH  17  21
HETATM   21  C19 UNL     1      28.477   5.717  48.397  1.00  0.00     0.015 C 
BRANCH  21  22
HETATM   22  C20 UNL     1      27.060   5.974  48.570  1.00  0.00    -0.010 C 
HETATM   23  C21 UNL     1      26.305   5.044  49.149  1.00  0.00     0.005 C 
ENDBRANCH  21  22
ENDBRANCH  17  21
BRANCH   1  24
HETATM   24  C3  UNL     1      32.724   6.803  48.073  1.00  0.00     0.004 C 
BRANCH  24  25
HETATM   25  C2  UNL     1      33.818   7.337  48.619  1.00  0.00    -0.032 C 
HETATM   26  C1  UNL     1      35.224   7.526  48.278  1.00  0.00     0.036 C 
ENDBRANCH  24  25
ENDBRANCH   1  24
BRANCH  13  27
HETATM   27  O1  UNL     1      30.116  11.948  49.155  1.00  0.00    -0.359 OA
HETATM   28  C14 UNL     1      28.943  12.684  48.911  1.00  0.00     0.209 C 
ENDBRANCH  13  27
TORSDOF 5
ENDMDL
MODEL 5
REMARK VINA RESULT:      -7.0      2.778      5.344
REMARK  5 active torsions:
REMARK  status: ('A' for Active; 'I' for Inactive)
REMARK    1  A    between atoms: C2_2  and  C3_3 
REMARK    2  A    between atoms: C3_3  and  C4_4 
REMARK    3  A    between atoms: C13_16  and  O1_17 
REMARK    4  A    between atoms: C17_22  and  C19_24 
REMARK    5  A    between atoms: C19_24  and  C20_25 
ROOT
HETATM    1  C4  UNL     1      23.935   2.794  52.033  1.00  0.00     0.070 A 
HETATM    2  C5  UNL     1      24.795   2.429  53.206  1.00  0.00     0.008 A 
HETATM    3  C6  UNL     1      26.050   2.134  53.384  1.00  0.00     0.000 A 
HETATM    4  C7  UNL     1      26.856   2.153  52.173  1.00  0.00     0.017 A 
HETATM    5  C8  UNL     1      26.274   2.456  51.012  1.00  0.00     0.088 A 
HETATM    6  N1  UNL     1      24.894   2.766  50.865  1.00  0.00    -0.356 N 
HETATM    7  C9  UNL     1      24.617   3.009  49.439  1.00  0.00     0.275 C 
HETATM    8  N2  UNL     1      23.322   3.533  49.185  1.00  0.00    -0.263 NA
HETATM    9  C10 UNL     1      22.960   4.634  48.717  1.00  0.00     0.228 C 
HETATM   10  N3  UNL     1      22.116   5.691  48.255  1.00  0.00    -0.254 NA
HETATM   11  C11 UNL     1      20.884   5.835  48.610  1.00  0.00     0.120 C 
HETATM   12  C12 UNL     1      19.623   5.556  49.279  1.00  0.00     0.053 C 
HETATM   13  C13 UNL     1      19.248   4.531  50.014  1.00  0.00     0.064 C 
HETATM   14  C15 UNL     1      19.887   3.258  50.418  1.00  0.00     0.178 C 
HETATM   15  N4  UNL     1      20.212   3.228  51.719  1.00  0.00    -0.415 N 
HETATM   16  C16 UNL     1      20.560   2.255  52.586  1.00  0.00     0.123 C 
HETATM   17  C17 UNL     1      21.734   1.358  52.444  1.00  0.00    -0.025 C 
HETATM   18  C18 UNL     1      21.130   0.366  51.292  1.00  0.00     0.017 C 
HETATM   19  C22 UNL     1      22.958   1.744  51.810  1.00  0.00     0.050 C 
HETATM   20  H20 UNL     1      19.735   4.040  52.222  1.00  0.00     0.153 HD
ENDROOT
BRANCH  17  21
HETATM   21  C19 UNL     1      21.826   0.363  53.561  1.00  0.00     0.015 C 
BRANCH  21  22
HETATM   22  C20 UNL     1      22.795  -0.712  53.470  1.00  0.00    -0.010 C 
HETATM   23  C21 UNL     1      23.659  -0.884  54.469  1.00  0.00     0.005 C 
ENDBRANCH  21  22
ENDBRANCH  17  21
BRANCH   1  24
HETATM   24  C3  UNL     1      23.560   4.177  52.232  1.00  0.00     0.004 C 
BRANCH  24  25
HETATM   25  C2  UNL     1      23.530   5.511  52.205  1.00  0.00    -0.032 C 
HETATM   26  C1  UNL     1      24.093   6.597  51.409  1.00  0.00     0.036 C 
ENDBRANCH  24  25
ENDBRANCH   1  24
BRANCH  13  27
HETATM   27  O1  UNL     1      17.959   4.598  50.530  1.00  0.00    -0.359 OA
HETATM   28  C14 UNL     1      16.824   4.072  49.889  1.00  0.00     0.209 C 
ENDBRANCH  13  27
TORSDOF 5
ENDMDL
MODEL 6
REMARK VINA RESULT:      -6.9      2.172      4.918
REMARK  5 active torsions:
REMARK  status: ('A' for Active; 'I' for Inactive)
REMARK    1  A    between atoms: C2_2  and  C3_3 
REMARK    2  A    between atoms: C3_3  and  C4_4 
REMARK    3  A    between atoms: C13_16  and  O1_17 
REMARK    4  A    between atoms: C17_22  and  C19_24 
REMARK    5  A    between atoms: C19_24  and  C20_25 
ROOT
HETATM    1  C4  UNL     1      23.985   2.574  51.191  1.00  0.00     0.070 A 
HETATM    2  C5  UNL     1      23.545   1.692  52.321  1.00  0.00     0.008 A 
HETATM    3  C6  UNL     1      24.123   0.843  53.119  1.00  0.00     0.000 A 
HETATM    4  C7  UNL     1      25.552   0.676  52.897  1.00  0.00     0.017 A 
HETATM    5  C8  UNL     1      26.142   1.376  51.927  1.00  0.00     0.088 A 
HETATM    6  N1  UNL     1      25.466   2.291  51.074  1.00  0.00    -0.356 N 
HETATM    7  C9  UNL     1      26.436   2.839  50.112  1.00  0.00     0.275 C 
HETATM    8  N2  UNL     1      25.933   3.920  49.340  1.00  0.00    -0.263 NA
HETATM    9  C10 UNL     1      26.274   5.122  49.293  1.00  0.00     0.228 C 
HETATM   10  N3  UNL     1      26.306   6.501  48.918  1.00  0.00    -0.254 NA
HETATM   11  C11 UNL     1      25.304   7.129  48.401  1.00  0.00     0.120 C 
HETATM   12  C12 UNL     1      23.966   7.351  47.877  1.00  0.00     0.053 C 
HETATM   13  C13 UNL     1      22.982   6.508  47.644  1.00  0.00     0.064 C 
HETATM   14  C15 UNL     1      22.830   5.039  47.757  1.00  0.00     0.178 C 
HETATM   15  N4  UNL     1      22.023   4.675  48.765  1.00  0.00    -0.415 N 
HETATM   16  C16 UNL     1      21.392   3.533  49.108  1.00  0.00     0.123 C 
HETATM   17  C17 UNL     1      22.056   2.236  49.391  1.00  0.00    -0.025 C 
HETATM   18  C18 UNL     1      22.389   1.803  47.849  1.00  0.00     0.017 C 
HETATM   19  C22 UNL     1      23.364   2.120  49.960  1.00  0.00     0.050 C 
HETATM   20  H20 UNL     1      21.495   5.530  49.122  1.00  0.00     0.153 HD
ENDROOT
BRANCH  17  21
HETATM   21  C19 UNL     1      21.071   1.154  49.713  1.00  0.00     0.015 C 
BRANCH  21  22
HETATM   22  C20 UNL     1      20.187   1.320  50.850  1.00  0.00    -0.010 C 
HETATM   23  C21 UNL     1      20.107   0.343  51.751  1.00  0.00     0.005 C 
ENDBRANCH  21  22
ENDBRANCH  17  21
BRANCH   1  24
HETATM   24  C3  UNL     1      23.857   3.931  51.674  1.00  0.00     0.004 C 
BRANCH  24  25
HETATM   25  C2  UNL     1      23.392   5.150  51.956  1.00  0.00    -0.032 C 
HETATM   26  C1  UNL     1      23.553   6.517  51.471  1.00  0.00     0.036 C 
ENDBRANCH  24  25
ENDBRANCH   1  24
BRANCH  13  27
HETATM   27  O1  UNL     1      21.808   7.070  47.158  1.00  0.00    -0.359 OA
HETATM   28  C14 UNL     1      21.314   6.864  45.857  1.00  0.00     0.209 C 
ENDBRANCH  13  27
TORSDOF 5
ENDMDL
MODEL 7
REMARK VINA RESULT:      -6.9      2.756      6.058
REMARK  5 active torsions:
REMARK  status: ('A' for Active; 'I' for Inactive)
REMARK    1  A    between atoms: C2_2  and  C3_3 
REMARK    2  A    between atoms: C3_3  and  C4_4 
REMARK    3  A    between atoms: C13_16  and  O1_17 
REMARK    4  A    between atoms: C17_22  and  C19_24 
REMARK    5  A    between atoms: C19_24  and  C20_25 
ROOT
HETATM    1  C4  UNL     1      24.260   3.682  50.144  1.00  0.00     0.070 A 
HETATM    2  C5  UNL     1      25.570   3.241  49.563  1.00  0.00     0.008 A 
HETATM    3  C6  UNL     1      26.640   2.657  50.017  1.00  0.00     0.000 A 
HETATM    4  C7  UNL     1      26.599   2.329  51.434  1.00  0.00     0.017 A 
HETATM    5  C8  UNL     1      25.512   2.643  52.140  1.00  0.00     0.088 A 
HETATM    6  N1  UNL     1      24.365   3.289  51.600  1.00  0.00    -0.356 N 
HETATM    7  C9  UNL     1      23.392   3.500  52.684  1.00  0.00     0.275 C 
HETATM    8  N2  UNL     1      22.121   3.946  52.237  1.00  0.00    -0.263 NA
HETATM    9  C10 UNL     1      20.996   3.402  52.288  1.00  0.00     0.228 C 
HETATM   10  N3  UNL     1      19.591   3.192  52.127  1.00  0.00    -0.254 NA
HETATM   11  C11 UNL     1      18.870   3.794  51.243  1.00  0.00     0.120 C 
HETATM   12  C12 UNL     1      18.534   4.689  50.147  1.00  0.00     0.053 C 
HETATM   13  C13 UNL     1      19.258   5.593  49.521  1.00  0.00     0.064 C 
HETATM   14  C15 UNL     1      20.638   6.105  49.681  1.00  0.00     0.178 C 
HETATM   15  N4  UNL     1      21.454   5.721  48.688  1.00  0.00    -0.415 N 
HETATM   16  C16 UNL     1      22.672   6.113  48.259  1.00  0.00     0.123 C 
HETATM   17  C17 UNL     1      23.916   6.090  49.067  1.00  0.00    -0.025 C 
HETATM   18  C18 UNL     1      23.618   7.407  49.990  1.00  0.00     0.017 C 
HETATM   19  C22 UNL     1      24.179   5.130  50.096  1.00  0.00     0.050 C 
HETATM   20  H20 UNL     1      20.875   5.318  47.889  1.00  0.00     0.153 HD
ENDROOT
BRANCH  17  21
HETATM   21  C19 UNL     1      25.095   6.619  48.308  1.00  0.00     0.015 C 
BRANCH  21  22
HETATM   22  C20 UNL     1      26.377   6.722  48.978  1.00  0.00    -0.010 C 
HETATM   23  C21 UNL     1      27.442   6.153  48.417  1.00  0.00     0.005 C 
ENDBRANCH  21  22
ENDBRANCH  17  21
BRANCH   1  24
HETATM   24  C3  UNL     1      23.256   2.826  49.552  1.00  0.00     0.004 C 
BRANCH  24  25
HETATM   25  C2  UNL     1      22.355   2.296  48.722  1.00  0.00    -0.032 C 
HETATM   26  C1  UNL     1      21.232   1.365  48.784  1.00  0.00     0.036 C 
ENDBRANCH  24  25
ENDBRANCH   1  24
BRANCH  13  27
HETATM   27  O1  UNL     1      18.620   6.264  48.484  1.00  0.00    -0.359 OA
HETATM   28  C14 UNL     1      17.847   5.633  47.493  1.00  0.00     0.209 C 
ENDBRANCH  13  27
TORSDOF 5
ENDMDL
MODEL 8
REMARK VINA RESULT:      -6.8      2.312      2.841
REMARK  5 active torsions:
REMARK  status: ('A' for Active; 'I' for Inactive)
REMARK    1  A    between atoms: C2_2  and  C3_3 
REMARK    2  A    between atoms: C3_3  and  C4_4 
REMARK    3  A    between atoms: C13_16  and  O1_17 
REMARK    4  A    between atoms: C17_22  and  C19_24 
REMARK    5  A    between atoms: C19_24  and  C20_25 
ROOT
HETATM    1  C4  UNL     1      22.011   2.912  49.995  1.00  0.00     0.070 A 
HETATM    2  C5  UNL     1      21.895   1.472  49.590  1.00  0.00     0.008 A 
HETATM    3  C6  UNL     1      20.930   0.605  49.502  1.00  0.00     0.000 A 
HETATM    4  C7  UNL     1      19.620   1.113  49.877  1.00  0.00     0.017 A 
HETATM    5  C8  UNL     1      19.507   2.382  50.274  1.00  0.00     0.088 A 
HETATM    6  N1  UNL     1      20.595   3.294  50.360  1.00  0.00    -0.356 N 
HETATM    7  C9  UNL     1      20.090   4.580  50.867  1.00  0.00     0.275 C 
HETATM    8  N2  UNL     1      21.035   5.637  50.802  1.00  0.00    -0.263 NA
HETATM    9  C10 UNL     1      21.033   6.700  50.144  1.00  0.00     0.228 C 
HETATM   10  N3  UNL     1      21.451   7.963  49.621  1.00  0.00    -0.254 NA
HETATM   11  C11 UNL     1      22.679   8.357  49.588  1.00  0.00     0.120 C 
HETATM   12  C12 UNL     1      24.119   8.326  49.781  1.00  0.00     0.053 C 
HETATM   13  C13 UNL     1      24.885   7.454  50.403  1.00  0.00     0.064 C 
HETATM   14  C15 UNL     1      24.628   6.221  51.181  1.00  0.00     0.178 C 
HETATM   15  N4  UNL     1      25.015   5.109  50.538  1.00  0.00    -0.415 N 
HETATM   16  C16 UNL     1      25.224   3.827  50.904  1.00  0.00     0.123 C 
HETATM   17  C17 UNL     1      24.205   2.928  51.500  1.00  0.00    -0.025 C 
HETATM   18  C18 UNL     1      24.201   3.549  53.013  1.00  0.00     0.017 C 
HETATM   19  C22 UNL     1      22.806   3.005  51.206  1.00  0.00     0.050 C 
HETATM   20  H20 UNL     1      25.626   5.376  49.705  1.00  0.00     0.153 HD
ENDROOT
BRANCH  17  21
HETATM   21  C19 UNL     1      24.762   1.574  51.822  1.00  0.00     0.015 C 
BRANCH  21  22
HETATM   22  C20 UNL     1      23.969   0.655  52.615  1.00  0.00    -0.010 C 
HETATM   23  C21 UNL     1      24.588  -0.314  53.285  1.00  0.00     0.005 C 
ENDBRANCH  21  22
ENDBRANCH  17  21
BRANCH   1  24
HETATM   24  C3  UNL     1      22.342   3.638  48.789  1.00  0.00     0.004 C 
BRANCH  24  25
HETATM   25  C2  UNL     1      22.383   4.069  47.527  1.00  0.00    -0.032 C 
HETATM   26  C1  UNL     1      21.856   3.678  46.224  1.00  0.00     0.036 C 
ENDBRANCH  24  25
ENDBRANCH   1  24
BRANCH  13  27
HETATM   27  O1  UNL     1      26.250   7.720  50.373  1.00  0.00    -0.359 OA
HETATM   28  C14 UNL     1      26.802   8.977  50.070  1.00  0.00     0.209 C 
ENDBRANCH  13  27
TORSDOF 5
ENDMDL
MODEL 9
REMARK VINA RESULT:      -6.5      8.466     11.676
REMARK  5 active torsions:
REMARK  status: ('A' for Active; 'I' for Inactive)
REMARK    1  A    between atoms: C2_2  and  C3_3 
REMARK    2  A    between atoms: C3_3  and  C4_4 
REMARK    3  A    between atoms: C13_16  and  O1_17 
REMARK    4  A    between atoms: C17_22  and  C19_24 
REMARK    5  A    between atoms: C19_24  and  C20_25 
ROOT
HETATM    1  C4  UNL     1      33.121   5.523  46.529  1.00  0.00     0.070 A 
HETATM    2  C5  UNL     1      33.447   4.168  45.976  1.00  0.00     0.008 A 
HETATM    3  C6  UNL     1      34.211   3.176  46.331  1.00  0.00     0.000 A 
HETATM    4  C7  UNL     1      34.948   3.390  47.567  1.00  0.00     0.017 A 
HETATM    5  C8  UNL     1      34.798   4.543  48.220  1.00  0.00     0.088 A 
HETATM    6  N1  UNL     1      33.954   5.604  47.788  1.00  0.00    -0.356 N 
HETATM    7  C9  UNL     1      34.078   6.719  48.741  1.00  0.00     0.275 C 
HETATM    8  N2  UNL     1      33.130   7.757  48.540  1.00  0.00    -0.263 NA
HETATM    9  C10 UNL     1      32.198   8.168  49.264  1.00  0.00     0.228 C 
HETATM   10  N3  UNL     1      31.080   8.935  49.717  1.00  0.00    -0.254 NA
HETATM   11  C11 UNL     1      30.283   9.578  48.932  1.00  0.00     0.120 C 
HETATM   12  C12 UNL     1      29.725  10.096  47.694  1.00  0.00     0.053 C 
HETATM   13  C13 UNL     1      30.171  10.034  46.456  1.00  0.00     0.064 C 
HETATM   14  C15 UNL     1      31.392   9.488  45.823  1.00  0.00     0.178 C 
HETATM   15  N4  UNL     1      31.154   8.389  45.092  1.00  0.00    -0.415 N 
HETATM   16  C16 UNL     1      31.847   7.702  44.160  1.00  0.00     0.123 C 
HETATM   17  C17 UNL     1      33.175   7.073  44.368  1.00  0.00    -0.025 C 
HETATM   18  C18 UNL     1      34.087   8.429  44.309  1.00  0.00     0.017 C 
HETATM   19  C22 UNL     1      33.616   6.542  45.622  1.00  0.00     0.050 C 
HETATM   20  H20 UNL     1      30.102   8.281  44.948  1.00  0.00     0.153 HD
ENDROOT
BRANCH  17  21
HETATM   21  C19 UNL     1      33.689   6.410  43.126  1.00  0.00     0.015 C 
BRANCH  21  22
HETATM   22  C20 UNL     1      32.850   5.446  42.442  1.00  0.00    -0.010 C 
HETATM   23  C21 UNL     1      33.399   4.319  41.994  1.00  0.00     0.005 C 
ENDBRANCH  21  22
ENDBRANCH  17  21
BRANCH   1  24
HETATM   24  C3  UNL     1      31.738   5.458  46.948  1.00  0.00     0.004 C 
BRANCH  24  25
HETATM   25  C2  UNL     1      30.620   5.215  47.633  1.00  0.00    -0.032 C 
HETATM   26  C1  UNL     1      29.406   5.925  48.026  1.00  0.00     0.036 C 
ENDBRANCH  24  25
ENDBRANCH   1  24
BRANCH  13  27
HETATM   27  O1  UNL     1      29.360  10.623  45.492  1.00  0.00    -0.359 OA
HETATM   28  C14 UNL     1      27.962  10.728  45.596  1.00  0.00     0.209 C 
ENDBRANCH  13  27
TORSDOF 5
ENDMDL
