MODEL 1
REMARK VINA RESULT:      -8.9      0.000      0.000
REMARK  2 active torsions:
REMARK  status: ('A' for Active; 'I' for Inactive)
REMARK    1  A    between atoms: C4_5  and  N1_6 
REMARK    2  A    between atoms: N1_6  and  C5_7 
ROOT
HETATM    1  C5  UNL     1      24.304   0.482  52.959  1.00  0.00     0.210 C 
HETATM    2  C6  UNL     1      23.941   1.801  52.215  1.00  0.00     0.093 C 
HETATM    3  C7  UNL     1      22.975   1.551  51.187  1.00  0.00     0.204 C 
HETATM    4  C8  UNL     1      21.881   0.715  51.926  1.00  0.00    -0.060 C 
HETATM    5  C9  UNL     1      21.175   0.191  52.381  1.00  0.00    -0.012 C 
HETATM    6  O1  UNL     1      20.224  -0.494  52.965  1.00  0.00     0.000 OA
HETATM    7  C10 UNL     1      18.985  -0.264  52.133  1.00  0.00     0.136 A 
HETATM    8  C11 UNL     1      19.215  -0.803  53.363  1.00  0.00     0.063 A 
HETATM    9  C12 UNL     1      20.475  -0.985  54.096  1.00  0.00     0.142 A 
HETATM   10  N2  UNL     1      21.477  -1.186  54.800  1.00  0.00    -0.275 NA
HETATM   11  C13 UNL     1      22.860  -0.873  54.498  1.00  0.00     0.223 C 
HETATM   12  N3  UNL     1      23.251  -0.117  53.618  1.00  0.00    -0.258 NA
HETATM   13  O2  UNL     1      19.728   0.321  51.065  1.00  0.00    -0.371 OA
HETATM   14  C14 UNL     1      19.817   1.570  50.595  1.00  0.00     0.195 C 
HETATM   15  C15 UNL     1      21.011   2.325  50.104  1.00  0.00     0.195 C 
HETATM   16  O3  UNL     1      22.073   2.599  50.900  1.00  0.00    -0.371 OA
ENDROOT
BRANCH   1  17
HETATM   17  N1  UNL     1      25.382   0.847  53.902  1.00  0.00    -0.367 N 
HETATM   18  H3  UNL     1      25.074   1.397  54.738  1.00  0.00     0.161 HD
BRANCH  17  19
HETATM   19  C4  UNL     1      26.754   0.533  53.786  1.00  0.00     0.031 A 
HETATM   20  C3  UNL     1      27.794   1.418  53.948  1.00  0.00     0.032 A 
HETATM   21  C2  UNL     1      29.125   1.074  53.840  1.00  0.00     0.046 A 
HETATM   22  C1  UNL     1      29.482  -0.214  53.557  1.00  0.00     0.138 A 
HETATM   23  F1  UNL     1      30.790  -0.526  53.458  1.00  0.00    -0.204 F 
HETATM   24  C17 UNL     1      28.456  -1.116  53.390  1.00  0.00     0.074 A 
HETATM   25  C16 UNL     1      27.137  -0.751  53.502  1.00  0.00     0.056 A 
HETATM   26 CL1  UNL     1      28.846  -2.784  53.025  1.00  0.00    -0.081 Cl
ENDBRANCH  17  19
ENDBRANCH   1  17
TORSDOF 2
ENDMDL
MODEL 2
REMARK VINA RESULT:      -8.5      1.810      3.239
REMARK  2 active torsions:
REMARK  status: ('A' for Active; 'I' for Inactive)
REMARK    1  A    between atoms: C4_5  and  N1_6 
REMARK    2  A    between atoms: N1_6  and  C5_7 
ROOT
HETATM    1  C5  UNL     1      24.102   1.116  52.342  1.00  0.00     0.210 C 
HETATM    2  C6  UNL     1      23.910  -0.218  53.122  1.00  0.00     0.093 C 
HETATM    3  C7  UNL     1      22.653  -0.225  53.808  1.00  0.00     0.204 C 
HETATM    4  C8  UNL     1      21.642   0.213  52.700  1.00  0.00    -0.060 C 
HETATM    5  C9  UNL     1      20.987   0.482  52.008  1.00  0.00    -0.012 C 
HETATM    6  O1  UNL     1      20.103   0.826  51.105  1.00  0.00     0.000 OA
HETATM    7  C10 UNL     1      18.786   0.271  51.593  1.00  0.00     0.136 A 
HETATM    8  C11 UNL     1      19.213   0.801  50.412  1.00  0.00     0.063 A 
HETATM    9  C12 UNL     1      20.533   1.320  50.032  1.00  0.00     0.142 A 
HETATM   10  N2  UNL     1      21.604   1.782  49.606  1.00  0.00    -0.275 NA
HETATM   11  C13 UNL     1      22.865   1.911  50.309  1.00  0.00     0.223 C 
HETATM   12  N3  UNL     1      23.169   1.344  51.351  1.00  0.00    -0.258 NA
HETATM   13  O2  UNL     1      19.309  -0.019  52.887  1.00  0.00    -0.371 OA
HETATM   14  C14 UNL     1      19.593  -1.164  53.520  1.00  0.00     0.195 C 
HETATM   15  C15 UNL     1      20.747  -1.505  54.408  1.00  0.00     0.195 C 
HETATM   16  O3  UNL     1      22.030  -1.482  53.971  1.00  0.00    -0.371 OA
ENDROOT
BRANCH   1  17
HETATM   17  N1  UNL     1      25.467   1.051  51.781  1.00  0.00    -0.367 N 
HETATM   18  H3  UNL     1      25.567   1.429  50.809  1.00  0.00     0.161 HD
BRANCH  17  19
HETATM   19  C4  UNL     1      26.622   0.540  52.413  1.00  0.00     0.031 A 
HETATM   20  C3  UNL     1      27.036  -0.771  52.385  1.00  0.00     0.032 A 
HETATM   21  C2  UNL     1      28.178  -1.234  53.003  1.00  0.00     0.046 A 
HETATM   22  C1  UNL     1      28.979  -0.374  53.700  1.00  0.00     0.138 A 
HETATM   23  F1  UNL     1      30.092  -0.850  54.296  1.00  0.00    -0.204 F 
HETATM   24  C17 UNL     1      28.582   0.943  53.742  1.00  0.00     0.074 A 
HETATM   25  C16 UNL     1      27.441   1.382  53.118  1.00  0.00     0.056 A 
HETATM   26 CL1  UNL     1      29.566   2.096  54.619  1.00  0.00    -0.081 Cl
ENDBRANCH  17  19
ENDBRANCH   1  17
TORSDOF 2
ENDMDL
MODEL 3
REMARK VINA RESULT:      -8.5      4.964      6.189
REMARK  2 active torsions:
REMARK  status: ('A' for Active; 'I' for Inactive)
REMARK    1  A    between atoms: C4_5  and  N1_6 
REMARK    2  A    between atoms: N1_6  and  C5_7 
ROOT
HETATM    1  C5  UNL     1      25.507   3.217  50.679  1.00  0.00     0.210 C 
HETATM    2  C6  UNL     1      26.716   2.284  50.987  1.00  0.00     0.093 C 
HETATM    3  C7  UNL     1      26.624   1.762  52.317  1.00  0.00     0.204 C 
HETATM    4  C8  UNL     1      25.157   1.229  52.387  1.00  0.00    -0.060 C 
HETATM    5  C9  UNL     1      24.233   0.879  52.447  1.00  0.00    -0.012 C 
HETATM    6  O1  UNL     1      23.018   0.401  52.543  1.00  0.00     0.000 OA
HETATM    7  C10 UNL     1      23.074  -0.638  53.638  1.00  0.00     0.136 A 
HETATM    8  C11 UNL     1      22.154  -0.310  52.688  1.00  0.00     0.063 A 
HETATM    9  C12 UNL     1      22.193   0.731  51.653  1.00  0.00     0.142 A 
HETATM   10  N2  UNL     1      22.120   1.576  50.746  1.00  0.00    -0.275 NA
HETATM   11  C13 UNL     1      23.099   2.579  50.377  1.00  0.00     0.223 C 
HETATM   12  N3  UNL     1      24.275   2.596  50.719  1.00  0.00    -0.258 NA
HETATM   13  O2  UNL     1      24.365  -0.212  54.069  1.00  0.00    -0.371 OA
HETATM   14  C14 UNL     1      25.579  -0.769  53.998  1.00  0.00     0.195 C 
HETATM   15  C15 UNL     1      26.904  -0.141  53.706  1.00  0.00     0.195 C 
HETATM   16  O3  UNL     1      27.170   0.477  52.529  1.00  0.00    -0.371 OA
ENDROOT
BRANCH   1  17
HETATM   17  N1  UNL     1      25.775   3.779  49.338  1.00  0.00    -0.367 N 
HETATM   18  H3  UNL     1      25.345   3.253  48.541  1.00  0.00     0.161 HD
BRANCH  17  19
HETATM   19  C4  UNL     1      26.537   4.928  49.037  1.00  0.00     0.031 A 
HETATM   20  C3  UNL     1      26.107   6.229  49.159  1.00  0.00     0.032 A 
HETATM   21  C2  UNL     1      26.884   7.330  48.868  1.00  0.00     0.046 A 
HETATM   22  C1  UNL     1      28.168   7.169  48.428  1.00  0.00     0.138 A 
HETATM   23  F1  UNL     1      28.909   8.262  48.151  1.00  0.00    -0.204 F 
HETATM   24  C17 UNL     1      28.618   5.875  48.298  1.00  0.00     0.074 A 
HETATM   25  C16 UNL     1      27.826   4.793  48.593  1.00  0.00     0.056 A 
HETATM   26 CL1  UNL     1      30.254   5.600  47.738  1.00  0.00    -0.081 Cl
ENDBRANCH  17  19
ENDBRANCH   1  17
TORSDOF 2
ENDMDL
MODEL 4
REMARK VINA RESULT:      -8.3      1.464      1.992
REMARK  2 active torsions:
REMARK  status: ('A' for Active; 'I' for Inactive)
REMARK    1  A    between atoms: C4_5  and  N1_6 
REMARK    2  A    between atoms: N1_6  and  C5_7 
ROOT
HETATM    1  C5  UNL     1      25.042   1.674  51.608  1.00  0.00     0.210 C 
HETATM    2  C6  UNL     1      24.821   3.061  50.934  1.00  0.00     0.093 C 
HETATM    3  C7  UNL     1      24.017   2.927  49.757  1.00  0.00     0.204 C 
HETATM    4  C8  UNL     1      22.807   2.070  50.250  1.00  0.00    -0.060 C 
HETATM    5  C9  UNL     1      22.030   1.533  50.548  1.00  0.00    -0.012 C 
HETATM    6  O1  UNL     1      20.989   0.833  50.923  1.00  0.00     0.000 OA
HETATM    7  C10 UNL     1      19.895   1.171  49.939  1.00  0.00     0.136 A 
HETATM    8  C11 UNL     1      19.925   0.526  51.138  1.00  0.00     0.063 A 
HETATM    9  C12 UNL     1      21.056   0.244  52.032  1.00  0.00     0.142 A 
HETATM   10  N2  UNL     1      21.937  -0.048  52.857  1.00  0.00    -0.275 NA
HETATM   11  C13 UNL     1      23.355   0.244  52.793  1.00  0.00     0.223 C 
HETATM   12  N3  UNL     1      23.889   1.057  52.049  1.00  0.00    -0.258 NA
HETATM   13  O2  UNL     1      20.802   1.818  49.048  1.00  0.00    -0.371 OA
HETATM   14  C14 UNL     1      20.985   3.098  48.705  1.00  0.00     0.195 C 
HETATM   15  C15 UNL     1      22.254   3.851  48.465  1.00  0.00     0.195 C 
HETATM   16  O3  UNL     1      23.189   4.025  49.430  1.00  0.00    -0.371 OA
ENDROOT
BRANCH   1  17
HETATM   17  N1  UNL     1      25.972   1.925  52.729  1.00  0.00    -0.367 N 
HETATM   18  H3  UNL     1      25.731   2.745  53.332  1.00  0.00     0.161 HD
BRANCH  17  19
HETATM   19  C4  UNL     1      27.128   1.182  53.054  1.00  0.00     0.031 A 
HETATM   20  C3  UNL     1      28.284   1.696  53.594  1.00  0.00     0.032 A 
HETATM   21  C2  UNL     1      29.391   0.939  53.913  1.00  0.00     0.046 A 
HETATM   22  C1  UNL     1      29.387  -0.411  53.698  1.00  0.00     0.138 A 
HETATM   23  F1  UNL     1      30.481  -1.130  54.019  1.00  0.00    -0.204 F 
HETATM   24  C17 UNL     1      28.239  -0.945  53.157  1.00  0.00     0.074 A 
HETATM   25  C16 UNL     1      27.148  -0.172  52.847  1.00  0.00     0.056 A 
HETATM   26 CL1  UNL     1      28.169  -2.670  52.857  1.00  0.00    -0.081 Cl
ENDBRANCH  17  19
ENDBRANCH   1  17
TORSDOF 2
ENDMDL
MODEL 5
REMARK VINA RESULT:      -8.2      4.698      7.162
REMARK  2 active torsions:
REMARK  status: ('A' for Active; 'I' for Inactive)
REMARK    1  A    between atoms: C4_5  and  N1_6 
REMARK    2  A    between atoms: N1_6  and  C5_7 
ROOT
HETATM    1  C5  UNL     1      24.428   3.144  51.305  1.00  0.00     0.210 C 
HETATM    2  C6  UNL     1      23.106   3.944  51.115  1.00  0.00     0.093 C 
HETATM    3  C7  UNL     1      23.316   5.335  51.385  1.00  0.00     0.204 C 
HETATM    4  C8  UNL     1      24.588   5.671  50.543  1.00  0.00    -0.060 C 
HETATM    5  C9  UNL     1      25.390   5.903  50.010  1.00  0.00    -0.012 C 
HETATM    6  O1  UNL     1      26.443   6.233  49.305  1.00  0.00     0.000 OA
HETATM    7  C10 UNL     1      26.338   7.724  49.090  1.00  0.00     0.136 A 
HETATM    8  C11 UNL     1      27.113   6.740  48.553  1.00  0.00     0.063 A 
HETATM    9  C12 UNL     1      27.140   5.299  48.833  1.00  0.00     0.142 A 
HETATM   10  N2  UNL     1      27.248   4.072  48.990  1.00  0.00    -0.275 NA
HETATM   11  C13 UNL     1      26.498   3.217  49.890  1.00  0.00     0.223 C 
HETATM   12  N3  UNL     1      25.451   3.508  50.453  1.00  0.00    -0.258 NA
HETATM   13  O2  UNL     1      25.300   7.859  50.059  1.00  0.00    -0.371 OA
HETATM   14  C14 UNL     1      23.994   8.136  49.963  1.00  0.00     0.195 C 
HETATM   15  C15 UNL     1      22.837   7.561  50.715  1.00  0.00     0.195 C 
HETATM   16  O3  UNL     1      22.516   6.246  50.658  1.00  0.00    -0.371 OA
ENDROOT
BRANCH   1  17
HETATM   17  N1  UNL     1      24.060   1.725  51.117  1.00  0.00    -0.367 N 
HETATM   18  H3  UNL     1      24.280   1.330  50.172  1.00  0.00     0.161 HD
BRANCH  17  19
HETATM   19  C4  UNL     1      23.455   0.872  52.066  1.00  0.00     0.031 A 
HETATM   20  C3  UNL     1      22.130   0.504  52.080  1.00  0.00     0.032 A 
HETATM   21  C2  UNL     1      21.573  -0.343  53.015  1.00  0.00     0.046 A 
HETATM   22  C1  UNL     1      22.347  -0.875  54.008  1.00  0.00     0.138 A 
HETATM   23  F1  UNL     1      21.780  -1.702  54.910  1.00  0.00    -0.204 F 
HETATM   24  C17 UNL     1      23.676  -0.518  54.012  1.00  0.00     0.074 A 
HETATM   25  C16 UNL     1      24.209   0.327  53.071  1.00  0.00     0.056 A 
HETATM   26 CL1  UNL     1      24.722  -1.166  55.259  1.00  0.00    -0.081 Cl
ENDBRANCH  17  19
ENDBRANCH   1  17
TORSDOF 2
ENDMDL
MODEL 6
REMARK VINA RESULT:      -8.0      4.645      5.702
REMARK  2 active torsions:
REMARK  status: ('A' for Active; 'I' for Inactive)
REMARK    1  A    between atoms: C4_5  and  N1_6 
REMARK    2  A    between atoms: N1_6  and  C5_7 
ROOT
HETATM    1  C5  UNL     1      23.947   3.699  50.980  1.00  0.00     0.210 C 
HETATM    2  C6  UNL     1      22.512   4.085  51.446  1.00  0.00     0.093 C 
HETATM    3  C7  UNL     1      21.642   2.949  51.392  1.00  0.00     0.204 C 
HETATM    4  C8  UNL     1      22.459   1.842  52.133  1.00  0.00    -0.060 C 
HETATM    5  C9  UNL     1      22.960   1.131  52.606  1.00  0.00    -0.012 C 
HETATM    6  O1  UNL     1      23.601   0.179  53.237  1.00  0.00     0.000 OA
HETATM    7  C10 UNL     1      22.538  -0.785  53.709  1.00  0.00     0.136 A 
HETATM    8  C11 UNL     1      23.863  -0.623  53.985  1.00  0.00     0.063 A 
HETATM    9  C12 UNL     1      24.824   0.358  53.466  1.00  0.00     0.142 A 
HETATM   10  N2  UNL     1      25.717   1.136  53.094  1.00  0.00    -0.275 NA
HETATM   11  C13 UNL     1      25.612   2.233  52.152  1.00  0.00     0.223 C 
HETATM   12  N3  UNL     1      24.573   2.751  51.764  1.00  0.00    -0.258 NA
HETATM   13  O2  UNL     1      21.533  -0.181  52.896  1.00  0.00    -0.371 OA
HETATM   14  C14 UNL     1      20.454   0.557  53.180  1.00  0.00     0.195 C 
HETATM   15  C15 UNL     1      19.901   1.753  52.473  1.00  0.00     0.195 C 
HETATM   16  O3  UNL     1      20.599   2.907  52.345  1.00  0.00    -0.371 OA
ENDROOT
BRANCH   1  17
HETATM   17  N1  UNL     1      24.711   4.965  50.968  1.00  0.00    -0.367 N 
HETATM   18  H3  UNL     1      24.450   5.649  51.716  1.00  0.00     0.161 HD
BRANCH  17  19
HETATM   19  C4  UNL     1      25.731   5.331  50.063  1.00  0.00     0.031 A 
HETATM   20  C3  UNL     1      26.625   4.469  49.473  1.00  0.00     0.032 A 
HETATM   21  C2  UNL     1      27.602   4.860  48.581  1.00  0.00     0.046 A 
HETATM   22  C1  UNL     1      27.729   6.175  48.233  1.00  0.00     0.138 A 
HETATM   23  F1  UNL     1      28.691   6.533  47.359  1.00  0.00    -0.204 F 
HETATM   24  C17 UNL     1      26.844   7.055  48.814  1.00  0.00     0.074 A 
HETATM   25  C16 UNL     1      25.879   6.644  49.699  1.00  0.00     0.056 A 
HETATM   26 CL1  UNL     1      26.954   8.756  48.410  1.00  0.00    -0.081 Cl
ENDBRANCH  17  19
ENDBRANCH   1  17
TORSDOF 2
ENDMDL
MODEL 7
REMARK VINA RESULT:      -7.8      4.768      7.667
REMARK  2 active torsions:
REMARK  status: ('A' for Active; 'I' for Inactive)
REMARK    1  A    between atoms: C4_5  and  N1_6 
REMARK    2  A    between atoms: N1_6  and  C5_7 
ROOT
HETATM    1  C5  UNL     1      23.777   2.123  50.842  1.00  0.00     0.210 C 
HETATM    2  C6  UNL     1      22.803   1.719  51.989  1.00  0.00     0.093 C 
HETATM    3  C7  UNL     1      23.162   0.442  52.528  1.00  0.00     0.204 C 
HETATM    4  C8  UNL     1      24.696   0.585  52.787  1.00  0.00    -0.060 C 
HETATM    5  C9  UNL     1      25.667   0.661  52.964  1.00  0.00    -0.012 C 
HETATM    6  O1  UNL     1      26.950   0.743  53.215  1.00  0.00     0.000 OA
HETATM    7  C10 UNL     1      27.224  -0.290  54.281  1.00  0.00     0.136 A 
HETATM    8  C11 UNL     1      27.937   0.748  53.760  1.00  0.00     0.063 A 
HETATM    9  C12 UNL     1      27.578   1.709  52.710  1.00  0.00     0.142 A 
HETATM   10  N2  UNL     1      27.379   2.570  51.838  1.00  0.00    -0.275 NA
HETATM   11  C13 UNL     1      26.197   2.757  51.019  1.00  0.00     0.223 C 
HETATM   12  N3  UNL     1      25.093   2.271  51.228  1.00  0.00    -0.258 NA
HETATM   13  O2  UNL     1      25.947  -0.902  54.112  1.00  0.00    -0.371 OA
HETATM   14  C14 UNL     1      24.851  -0.952  54.879  1.00  0.00     0.195 C 
HETATM   15  C15 UNL     1      23.409  -0.862  54.495  1.00  0.00     0.195 C 
HETATM   16  O3  UNL     1      22.884   0.235  53.898  1.00  0.00    -0.371 OA
ENDROOT
BRANCH   1  17
HETATM   17  N1  UNL     1      23.238   3.386  50.294  1.00  0.00    -0.367 N 
HETATM   18  H3  UNL     1      23.146   4.166  50.986  1.00  0.00     0.161 HD
BRANCH  17  19
HETATM   19  C4  UNL     1      22.845   3.634  48.961  1.00  0.00     0.031 A 
HETATM   20  C3  UNL     1      22.400   2.687  48.069  1.00  0.00     0.032 A 
HETATM   21  C2  UNL     1      22.010   2.966  46.776  1.00  0.00     0.046 A 
HETATM   22  C1  UNL     1      22.051   4.250  46.308  1.00  0.00     0.138 A 
HETATM   23  F1  UNL     1      21.664   4.498  45.040  1.00  0.00    -0.204 F 
HETATM   24  C17 UNL     1      22.495   5.213  47.185  1.00  0.00     0.074 A 
HETATM   25  C16 UNL     1      22.878   4.911  48.468  1.00  0.00     0.056 A 
HETATM   26 CL1  UNL     1      22.571   6.877  46.646  1.00  0.00    -0.081 Cl
ENDBRANCH  17  19
ENDBRANCH   1  17
TORSDOF 2
ENDMDL
MODEL 8
REMARK VINA RESULT:      -7.7      5.178      6.896
REMARK  2 active torsions:
REMARK  status: ('A' for Active; 'I' for Inactive)
REMARK    1  A    between atoms: C4_5  and  N1_6 
REMARK    2  A    between atoms: N1_6  and  C5_7 
ROOT
HETATM    1  C5  UNL     1      25.148   3.483  50.632  1.00  0.00     0.210 C 
HETATM    2  C6  UNL     1      23.729   3.841  51.164  1.00  0.00     0.093 C 
HETATM    3  C7  UNL     1      22.937   2.659  51.322  1.00  0.00     0.204 C 
HETATM    4  C8  UNL     1      23.880   1.705  52.123  1.00  0.00    -0.060 C 
HETATM    5  C9  UNL     1      24.462   1.091  52.637  1.00  0.00    -0.012 C 
HETATM    6  O1  UNL     1      25.212   0.266  53.324  1.00  0.00     0.000 OA
HETATM    7  C10 UNL     1      24.256  -0.689  53.998  1.00  0.00     0.136 A 
HETATM    8  C11 UNL     1      25.584  -0.417  54.141  1.00  0.00     0.063 A 
HETATM    9  C12 UNL     1      26.434   0.544  53.428  1.00  0.00     0.142 A 
HETATM   10  N2  UNL     1      27.242   1.319  52.890  1.00  0.00    -0.275 NA
HETATM   11  C13 UNL     1      26.992   2.279  51.833  1.00  0.00     0.223 C 
HETATM   12  N3  UNL     1      25.894   2.681  51.471  1.00  0.00    -0.258 NA
HETATM   13  O2  UNL     1      23.155  -0.254  53.203  1.00  0.00    -0.371 OA
HETATM   14  C14 UNL     1      22.052   0.451  53.483  1.00  0.00     0.195 C 
HETATM   15  C15 UNL     1      21.367   1.512  52.683  1.00  0.00     0.195 C 
HETATM   16  O3  UNL     1      21.973   2.679  52.356  1.00  0.00    -0.371 OA
ENDROOT
BRANCH   1  17
HETATM   17  N1  UNL     1      25.820   4.779  50.400  1.00  0.00    -0.367 N 
HETATM   18  H3  UNL     1      26.855   4.779  50.562  1.00  0.00     0.161 HD
BRANCH  17  19
HETATM   19  C4  UNL     1      25.215   5.988  49.993  1.00  0.00     0.031 A 
HETATM   20  C3  UNL     1      24.874   7.031  50.822  1.00  0.00     0.032 A 
HETATM   21  C2  UNL     1      24.296   8.205  50.389  1.00  0.00     0.046 A 
HETATM   22  C1  UNL     1      24.027   8.391  49.062  1.00  0.00     0.138 A 
HETATM   23  F1  UNL     1      23.462   9.548  48.662  1.00  0.00    -0.204 F 
HETATM   24  C17 UNL     1      24.360   7.358  48.215  1.00  0.00     0.074 A 
HETATM   25  C16 UNL     1      24.935   6.197  48.669  1.00  0.00     0.056 A 
HETATM   26 CL1  UNL     1      24.042   7.533  46.501  1.00  0.00    -0.081 Cl
ENDBRANCH  17  19
ENDBRANCH   1  17
TORSDOF 2
ENDMDL
MODEL 9
REMARK VINA RESULT:      -7.7      7.303     10.083
REMARK  2 active torsions:
REMARK  status: ('A' for Active; 'I' for Inactive)
REMARK    1  A    between atoms: C4_5  and  N1_6 
REMARK    2  A    between atoms: N1_6  and  C5_7 
ROOT
HETATM    1  C5  UNL     1      25.961   6.009  49.173  1.00  0.00     0.210 C 
HETATM    2  C6  UNL     1      27.136   4.987  49.153  1.00  0.00     0.093 C 
HETATM    3  C7  UNL     1      28.120   5.369  48.186  1.00  0.00     0.204 C 
HETATM    4  C8  UNL     1      28.370   6.877  48.511  1.00  0.00    -0.060 C 
HETATM    5  C9  UNL     1      28.545   7.831  48.707  1.00  0.00    -0.012 C 
HETATM    6  O1  UNL     1      28.800   9.091  48.957  1.00  0.00     0.000 OA
HETATM    7  C10 UNL     1      30.181   9.346  48.402  1.00  0.00     0.136 A 
HETATM    8  C11 UNL     1      29.345  10.042  49.223  1.00  0.00     0.063 A 
HETATM    9  C12 UNL     1      28.002   9.705  49.712  1.00  0.00     0.142 A 
HETATM   10  N2  UNL     1      26.868   9.521  50.181  1.00  0.00    -0.275 NA
HETATM   11  C13 UNL     1      25.990   8.384  49.982  1.00  0.00     0.223 C 
HETATM   12  N3  UNL     1      26.318   7.292  49.536  1.00  0.00    -0.258 NA
HETATM   13  O2  UNL     1      30.197   8.110  47.691  1.00  0.00    -0.371 OA
HETATM   14  C14 UNL     1      30.884   6.974  47.854  1.00  0.00     0.195 C 
HETATM   15  C15 UNL     1      30.436   5.555  47.705  1.00  0.00     0.195 C 
HETATM   16  O3  UNL     1      29.458   5.019  48.474  1.00  0.00    -0.371 OA
ENDROOT
BRANCH   1  17
HETATM   17  N1  UNL     1      24.968   5.449  50.114  1.00  0.00    -0.367 N 
HETATM   18  H3  UNL     1      24.859   5.976  51.012  1.00  0.00     0.161 HD
BRANCH  17  19
HETATM   19  C4  UNL     1      24.172   4.298  49.922  1.00  0.00     0.031 A 
HETATM   20  C3  UNL     1      23.420   4.022  48.805  1.00  0.00     0.032 A 
HETATM   21  C2  UNL     1      22.665   2.880  48.645  1.00  0.00     0.046 A 
HETATM   22  C1  UNL     1      22.629   1.935  49.632  1.00  0.00     0.138 A 
HETATM   23  F1  UNL     1      21.884   0.826  49.452  1.00  0.00    -0.204 F 
HETATM   24  C17 UNL     1      23.374   2.193  50.760  1.00  0.00     0.074 A 
HETATM   25  C16 UNL     1      24.120   3.337  50.897  1.00  0.00     0.056 A 
HETATM   26 CL1  UNL     1      23.372   1.021  52.062  1.00  0.00    -0.081 Cl
ENDBRANCH  17  19
ENDBRANCH   1  17
TORSDOF 2
ENDMDL
