MODEL 1
REMARK VINA RESULT:      -7.7      0.000      0.000
REMARK  9 active torsions:
REMARK  status: ('A' for Active; 'I' for Inactive)
REMARK    1  A    between atoms: C2_2  and  C3_3 
REMARK    2  A    between atoms: C3_3  and  C4_4 
REMARK    3  A    between atoms: C4_4  and  C5_5 
REMARK    4  A    between atoms: C5_5  and  N1_6 
REMARK       I    between atoms: N1_6  and  C6_7 
REMARK       I    between atoms: C6_7  and  N2_9 
REMARK    5  A    between atoms: N2_9  and  C7_10 
REMARK    6  A    between atoms: N2_9  and  C14_19 
REMARK    7  A    between atoms: C7_10  and  C8_11 
REMARK    8  A    between atoms: C13_17  and  O2_18 
REMARK    9  A    between atoms: C17_22  and  O3_23 
ROOT
HETATM    1  N1  UNL     1      27.130   2.458  53.806  1.00  0.00    -0.342 N 
HETATM    2  C6  UNL     1      26.566   2.572  52.510  1.00  0.00     0.319 C 
HETATM    3  O1  UNL     1      27.492   2.396  51.654  1.00  0.00    -0.247 OA
HETATM    4  N2  UNL     1      25.318   2.817  51.862  1.00  0.00    -0.322 N 
HETATM    5  H8  UNL     1      26.386   2.604  54.521  1.00  0.00     0.164 HD
ENDROOT
BRANCH   4   6
HETATM    6  C7  UNL     1      25.480   2.835  50.446  1.00  0.00     0.169 C 
BRANCH   6   7
HETATM    7  C8  UNL     1      25.319   4.082  49.715  1.00  0.00    -0.006 A 
HETATM    8  C9  UNL     1      24.123   4.613  49.308  1.00  0.00     0.012 A 
HETATM    9  C10 UNL     1      23.915   5.784  48.596  1.00  0.00     0.002 A 
HETATM   10  C11 UNL     1      25.029   6.524  48.244  1.00  0.00     0.022 A 
HETATM   11  C12 UNL     1      26.267   6.066  48.611  1.00  0.00     0.044 A 
HETATM   12 BR1  UNL     1      27.787   7.115  48.104  1.00  0.00    -0.048 Br
HETATM   13  C13 UNL     1      26.389   4.893  49.316  1.00  0.00     0.090 A 
BRANCH  13  14
HETATM   14  O2  UNL     1      27.686   4.551  49.628  1.00  0.00    -0.359 OA
HETATM   15  H14 UNL     1      28.007   4.592  50.583  1.00  0.00     0.217 HD
ENDBRANCH  13  14
ENDBRANCH   6   7
ENDBRANCH   4   6
BRANCH   4  16
HETATM   16  C14 UNL     1      24.220   2.918  52.817  1.00  0.00     0.115 A 
HETATM   17  C15 UNL     1      23.133   1.996  52.467  1.00  0.00     0.001 A 
HETATM   18  C16 UNL     1      21.844   2.112  52.212  1.00  0.00     0.034 A 
HETATM   19  C17 UNL     1      21.354   3.470  52.291  1.00  0.00     0.061 A 
HETATM   20  C18 UNL     1      22.264   4.367  52.601  1.00  0.00     0.012 A 
HETATM   21  C19 UNL     1      23.692   4.340  52.897  1.00  0.00     0.059 A 
BRANCH  19  22
HETATM   22  O3  UNL     1      20.033   3.802  52.058  1.00  0.00    -0.361 OA
HETATM   23  H18 UNL     1      19.739   4.524  51.395  1.00  0.00     0.217 HD
ENDBRANCH  19  22
ENDBRANCH   4  16
BRANCH   1  24
HETATM   24  C5  UNL     1      28.551   2.181  53.726  1.00  0.00     0.142 C 
BRANCH  24  25
HETATM   25  C4  UNL     1      28.825   0.964  54.490  1.00  0.00     0.086 C 
BRANCH  25  26
HETATM   26  C3  UNL     1      28.624  -0.181  53.853  1.00  0.00    -0.170 C 
BRANCH  26  27
HETATM   27  C2  UNL     1      28.192  -1.208  53.142  1.00  0.00     0.062 C 
HETATM   28  C1  UNL     1      26.810  -1.203  52.670  1.00  0.00     0.023 C 
ENDBRANCH  26  27
ENDBRANCH  25  26
ENDBRANCH  24  25
ENDBRANCH   1  24
TORSDOF 9
ENDMDL
MODEL 2
REMARK VINA RESULT:      -7.2      3.229      6.341
REMARK  9 active torsions:
REMARK  status: ('A' for Active; 'I' for Inactive)
REMARK    1  A    between atoms: C2_2  and  C3_3 
REMARK    2  A    between atoms: C3_3  and  C4_4 
REMARK    3  A    between atoms: C4_4  and  C5_5 
REMARK    4  A    between atoms: C5_5  and  N1_6 
REMARK       I    between atoms: N1_6  and  C6_7 
REMARK       I    between atoms: C6_7  and  N2_9 
REMARK    5  A    between atoms: N2_9  and  C7_10 
REMARK    6  A    between atoms: N2_9  and  C14_19 
REMARK    7  A    between atoms: C7_10  and  C8_11 
REMARK    8  A    between atoms: C13_17  and  O2_18 
REMARK    9  A    between atoms: C17_22  and  O3_23 
ROOT
HETATM    1  N1  UNL     1      22.438  -0.824  53.451  1.00  0.00    -0.342 N 
HETATM    2  C6  UNL     1      23.207   0.364  53.368  1.00  0.00     0.319 C 
HETATM    3  O1  UNL     1      22.419   1.334  53.123  1.00  0.00    -0.247 OA
HETATM    4  N2  UNL     1      24.556   0.822  53.467  1.00  0.00    -0.322 N 
HETATM    5  H8  UNL     1      23.068  -1.631  53.647  1.00  0.00     0.164 HD
ENDROOT
BRANCH   4   6
HETATM    6  C7  UNL     1      24.632   2.223  53.222  1.00  0.00     0.169 C 
BRANCH   6   7
HETATM    7  C8  UNL     1      25.033   2.708  51.910  1.00  0.00    -0.006 A 
HETATM    8  C9  UNL     1      26.279   2.557  51.356  1.00  0.00     0.012 A 
HETATM    9  C10 UNL     1      26.717   3.012  50.123  1.00  0.00     0.002 A 
HETATM   10  C11 UNL     1      25.811   3.701  49.337  1.00  0.00     0.022 A 
HETATM   11  C12 UNL     1      24.541   3.897  49.813  1.00  0.00     0.044 A 
HETATM   12 BR1  UNL     1      23.314   4.856  48.698  1.00  0.00    -0.048 Br
HETATM   13  C13 UNL     1      24.185   3.414  51.049  1.00  0.00     0.090 A 
BRANCH  13  14
HETATM   14  O2  UNL     1      22.879   3.673  51.404  1.00  0.00    -0.359 OA
HETATM   15  H14 UNL     1      22.302   4.264  50.824  1.00  0.00     0.217 HD
ENDBRANCH  13  14
ENDBRANCH   6   7
ENDBRANCH   4   6
BRANCH   4  16
HETATM   16  C14 UNL     1      25.467  -0.252  53.851  1.00  0.00     0.115 A 
HETATM   17  C15 UNL     1      26.486   0.235  54.788  1.00  0.00     0.001 A 
HETATM   18  C16 UNL     1      27.805   0.261  54.816  1.00  0.00     0.034 A 
HETATM   19  C17 UNL     1      28.424  -0.329  53.650  1.00  0.00     0.061 A 
HETATM   20  C18 UNL     1      27.582  -0.794  52.754  1.00  0.00     0.012 A 
HETATM   21  C19 UNL     1      26.131  -0.869  52.632  1.00  0.00     0.059 A 
BRANCH  19  22
HETATM   22  O3  UNL     1      29.794  -0.399  53.489  1.00  0.00    -0.361 OA
HETATM   23  H18 UNL     1      30.317   0.177  52.823  1.00  0.00     0.217 HD
ENDBRANCH  19  22
ENDBRANCH   4  16
BRANCH   1  24
HETATM   24  C5  UNL     1      21.032  -0.543  53.235  1.00  0.00     0.142 C 
BRANCH  24  25
HETATM   25  C4  UNL     1      20.248  -1.481  54.038  1.00  0.00     0.086 C 
BRANCH  25  26
HETATM   26  C3  UNL     1      19.019  -1.729  53.610  1.00  0.00    -0.170 C 
BRANCH  26  27
HETATM   27  C2  UNL     1      17.750  -2.056  53.436  1.00  0.00     0.062 C 
HETATM   28  C1  UNL     1      17.358  -3.454  53.591  1.00  0.00     0.023 C 
ENDBRANCH  26  27
ENDBRANCH  25  26
ENDBRANCH  24  25
ENDBRANCH   1  24
TORSDOF 9
ENDMDL
MODEL 3
REMARK VINA RESULT:      -7.2      3.417      7.155
REMARK  9 active torsions:
REMARK  status: ('A' for Active; 'I' for Inactive)
REMARK    1  A    between atoms: C2_2  and  C3_3 
REMARK    2  A    between atoms: C3_3  and  C4_4 
REMARK    3  A    between atoms: C4_4  and  C5_5 
REMARK    4  A    between atoms: C5_5  and  N1_6 
REMARK       I    between atoms: N1_6  and  C6_7 
REMARK       I    between atoms: C6_7  and  N2_9 
REMARK    5  A    between atoms: N2_9  and  C7_10 
REMARK    6  A    between atoms: N2_9  and  C14_19 
REMARK    7  A    between atoms: C7_10  and  C8_11 
REMARK    8  A    between atoms: C13_17  and  O2_18 
REMARK    9  A    between atoms: C17_22  and  O3_23 
ROOT
HETATM    1  N1  UNL     1      24.896   3.982  51.919  1.00  0.00    -0.342 N 
HETATM    2  C6  UNL     1      24.639   2.591  52.008  1.00  0.00     0.319 C 
HETATM    3  O1  UNL     1      23.826   2.273  51.081  1.00  0.00    -0.247 OA
HETATM    4  N2  UNL     1      24.989   1.446  52.787  1.00  0.00    -0.322 N 
HETATM    5  H8  UNL     1      25.558   4.261  52.673  1.00  0.00     0.164 HD
ENDROOT
BRANCH   4   6
HETATM    6  C7  UNL     1      24.294   0.291  52.326  1.00  0.00     0.169 C 
BRANCH   6   7
HETATM    7  C8  UNL     1      23.129  -0.190  53.053  1.00  0.00    -0.006 A 
HETATM    8  C9  UNL     1      23.160  -0.842  54.258  1.00  0.00     0.012 A 
HETATM    9  C10 UNL     1      22.086  -1.335  54.982  1.00  0.00     0.002 A 
HETATM   10  C11 UNL     1      20.822  -1.161  54.448  1.00  0.00     0.022 A 
HETATM   11  C12 UNL     1      20.698  -0.518  53.245  1.00  0.00     0.044 A 
HETATM   12 BR1  UNL     1      18.932  -0.296  52.536  1.00  0.00    -0.048 Br
HETATM   13  C13 UNL     1      21.814  -0.059  52.589  1.00  0.00     0.090 A 
BRANCH  13  14
HETATM   14  O2  UNL     1      21.549   0.574  51.395  1.00  0.00    -0.359 OA
HETATM   15  H14 UNL     1      20.600   0.656  51.062  1.00  0.00     0.217 HD
ENDBRANCH  13  14
ENDBRANCH   6   7
ENDBRANCH   4   6
BRANCH   4  16
HETATM   16  C14 UNL     1      26.001   1.761  53.791  1.00  0.00     0.115 A 
HETATM   17  C15 UNL     1      27.163   2.414  53.177  1.00  0.00     0.001 A 
HETATM   18  C16 UNL     1      28.460   2.175  53.125  1.00  0.00     0.034 A 
HETATM   19  C17 UNL     1      28.862   0.984  53.840  1.00  0.00     0.061 A 
HETATM   20  C18 UNL     1      27.880   0.333  54.424  1.00  0.00     0.012 A 
HETATM   21  C19 UNL     1      26.437   0.512  54.538  1.00  0.00     0.059 A 
BRANCH  19  22
HETATM   22  O3  UNL     1      30.176   0.561  53.906  1.00  0.00    -0.361 OA
HETATM   23  H18 UNL     1      30.822   0.595  53.113  1.00  0.00     0.217 HD
ENDBRANCH  19  22
ENDBRANCH   4  16
BRANCH   1  24
HETATM   24  C5  UNL     1      24.160   4.571  50.816  1.00  0.00     0.142 C 
BRANCH  24  25
HETATM   25  C4  UNL     1      25.052   5.487  50.107  1.00  0.00     0.086 C 
BRANCH  25  26
HETATM   26  C3  UNL     1      26.048   4.927  49.435  1.00  0.00    -0.170 C 
BRANCH  26  27
HETATM   27  C2  UNL     1      27.176   4.398  48.995  1.00  0.00     0.062 C 
HETATM   28  C1  UNL     1      28.191   5.282  48.427  1.00  0.00     0.023 C 
ENDBRANCH  26  27
ENDBRANCH  25  26
ENDBRANCH  24  25
ENDBRANCH   1  24
TORSDOF 9
ENDMDL
MODEL 4
REMARK VINA RESULT:      -7.1      2.970      6.761
REMARK  9 active torsions:
REMARK  status: ('A' for Active; 'I' for Inactive)
REMARK    1  A    between atoms: C2_2  and  C3_3 
REMARK    2  A    between atoms: C3_3  and  C4_4 
REMARK    3  A    between atoms: C4_4  and  C5_5 
REMARK    4  A    between atoms: C5_5  and  N1_6 
REMARK       I    between atoms: N1_6  and  C6_7 
REMARK       I    between atoms: C6_7  and  N2_9 
REMARK    5  A    between atoms: N2_9  and  C7_10 
REMARK    6  A    between atoms: N2_9  and  C14_19 
REMARK    7  A    between atoms: C7_10  and  C8_11 
REMARK    8  A    between atoms: C13_17  and  O2_18 
REMARK    9  A    between atoms: C17_22  and  O3_23 
ROOT
HETATM    1  N1  UNL     1      25.796   4.251  49.809  1.00  0.00    -0.342 N 
HETATM    2  C6  UNL     1      25.144   3.732  50.956  1.00  0.00     0.319 C 
HETATM    3  O1  UNL     1      23.962   4.203  50.992  1.00  0.00    -0.247 OA
HETATM    4  N2  UNL     1      25.378   2.867  52.068  1.00  0.00    -0.322 N 
HETATM    5  H8  UNL     1      26.769   3.878  49.765  1.00  0.00     0.164 HD
ENDROOT
BRANCH   4   6
HETATM    6  C7  UNL     1      24.234   2.816  52.916  1.00  0.00     0.169 C 
BRANCH   6   7
HETATM    7  C8  UNL     1      23.407   1.620  52.944  1.00  0.00    -0.006 A 
HETATM    8  C9  UNL     1      23.750   0.432  53.537  1.00  0.00     0.012 A 
HETATM    9  C10 UNL     1      23.010  -0.739  53.579  1.00  0.00     0.002 A 
HETATM   10  C11 UNL     1      21.774  -0.735  52.957  1.00  0.00     0.022 A 
HETATM   11  C12 UNL     1      21.350   0.412  52.340  1.00  0.00     0.044 A 
HETATM   12 BR1  UNL     1      19.634   0.379  51.489  1.00  0.00    -0.048 Br
HETATM   13  C13 UNL     1      22.145   1.532  52.343  1.00  0.00     0.090 A 
BRANCH  13  14
HETATM   14  O2  UNL     1      21.599   2.617  51.693  1.00  0.00    -0.359 OA
HETATM   15  H14 UNL     1      20.601   2.766  51.705  1.00  0.00     0.217 HD
ENDBRANCH  13  14
ENDBRANCH   6   7
ENDBRANCH   4   6
BRANCH   4  16
HETATM   16  C14 UNL     1      26.689   2.231  51.996  1.00  0.00     0.115 A 
HETATM   17  C15 UNL     1      26.580   0.860  51.483  1.00  0.00     0.001 A 
HETATM   18  C16 UNL     1      26.926  -0.338  51.914  1.00  0.00     0.034 A 
HETATM   19  C17 UNL     1      27.574  -0.327  53.207  1.00  0.00     0.061 A 
HETATM   20  C18 UNL     1      27.715   0.865  53.743  1.00  0.00     0.012 A 
HETATM   21  C19 UNL     1      27.372   2.227  53.353  1.00  0.00     0.059 A 
BRANCH  19  22
HETATM   22  O3  UNL     1      28.012  -1.479  53.831  1.00  0.00    -0.361 OA
HETATM   23  H18 UNL     1      28.669  -2.139  53.406  1.00  0.00     0.217 HD
ENDBRANCH  19  22
ENDBRANCH   4  16
BRANCH   1  24
HETATM   24  C5  UNL     1      24.912   5.129  49.068  1.00  0.00     0.142 C 
BRANCH  24  25
HETATM   25  C4  UNL     1      25.586   6.415  48.889  1.00  0.00     0.086 C 
BRANCH  25  26
HETATM   26  C3  UNL     1      26.864   6.359  48.543  1.00  0.00    -0.170 C 
BRANCH  26  27
HETATM   27  C2  UNL     1      28.061   6.453  47.989  1.00  0.00     0.062 C 
HETATM   28  C1  UNL     1      29.034   5.393  48.237  1.00  0.00     0.023 C 
ENDBRANCH  26  27
ENDBRANCH  25  26
ENDBRANCH  24  25
ENDBRANCH   1  24
TORSDOF 9
ENDMDL
MODEL 5
REMARK VINA RESULT:      -6.8      2.032      2.895
REMARK  9 active torsions:
REMARK  status: ('A' for Active; 'I' for Inactive)
REMARK    1  A    between atoms: C2_2  and  C3_3 
REMARK    2  A    between atoms: C3_3  and  C4_4 
REMARK    3  A    between atoms: C4_4  and  C5_5 
REMARK    4  A    between atoms: C5_5  and  N1_6 
REMARK       I    between atoms: N1_6  and  C6_7 
REMARK       I    between atoms: C6_7  and  N2_9 
REMARK    5  A    between atoms: N2_9  and  C7_10 
REMARK    6  A    between atoms: N2_9  and  C14_19 
REMARK    7  A    between atoms: C7_10  and  C8_11 
REMARK    8  A    between atoms: C13_17  and  O2_18 
REMARK    9  A    between atoms: C17_22  and  O3_23 
ROOT
HETATM    1  N1  UNL     1      24.310  -0.430  53.193  1.00  0.00    -0.342 N 
HETATM    2  C6  UNL     1      24.054   0.939  52.929  1.00  0.00     0.319 C 
HETATM    3  O1  UNL     1      25.078   1.612  53.275  1.00  0.00    -0.247 OA
HETATM    4  N2  UNL     1      23.037   1.797  52.410  1.00  0.00    -0.322 N 
HETATM    5  H8  UNL     1      23.479  -0.997  52.919  1.00  0.00     0.164 HD
ENDROOT
BRANCH   4   6
HETATM    6  C7  UNL     1      23.448   3.160  52.470  1.00  0.00     0.169 C 
BRANCH   6   7
HETATM    7  C8  UNL     1      23.721   3.888  51.241  1.00  0.00    -0.006 A 
HETATM    8  C9  UNL     1      22.778   4.497  50.454  1.00  0.00     0.012 A 
HETATM    9  C10 UNL     1      22.982   5.187  49.269  1.00  0.00     0.002 A 
HETATM   10  C11 UNL     1      24.280   5.288  48.804  1.00  0.00     0.022 A 
HETATM   11  C12 UNL     1      25.288   4.708  49.530  1.00  0.00     0.044 A 
HETATM   12 BR1  UNL     1      27.073   4.869  48.854  1.00  0.00    -0.048 Br
HETATM   13  C13 UNL     1      25.002   4.041  50.696  1.00  0.00     0.090 A 
BRANCH  13  14
HETATM   14  O2  UNL     1      26.105   3.511  51.330  1.00  0.00    -0.359 OA
HETATM   15  H14 UNL     1      26.079   2.570  51.693  1.00  0.00     0.217 HD
ENDBRANCH  13  14
ENDBRANCH   6   7
ENDBRANCH   4   6
BRANCH   4  16
HETATM   16  C14 UNL     1      21.892   1.043  51.909  1.00  0.00     0.115 A 
HETATM   17  C15 UNL     1      22.021   0.789  50.469  1.00  0.00     0.001 A 
HETATM   18  C16 UNL     1      21.291   1.038  49.399  1.00  0.00     0.034 A 
HETATM   19  C17 UNL     1      20.054   1.729  49.686  1.00  0.00     0.061 A 
HETATM   20  C18 UNL     1      19.854   1.999  50.957  1.00  0.00     0.012 A 
HETATM   21  C19 UNL     1      20.589   1.769  52.196  1.00  0.00     0.059 A 
BRANCH  19  22
HETATM   22  O3  UNL     1      19.151   2.081  48.702  1.00  0.00    -0.361 OA
HETATM   23  H18 UNL     1      19.001   3.044  48.389  1.00  0.00     0.217 HD
ENDBRANCH  19  22
ENDBRANCH   4  16
BRANCH   1  24
HETATM   24  C5  UNL     1      25.634  -0.607  53.757  1.00  0.00     0.142 C 
BRANCH  24  25
HETATM   25  C4  UNL     1      26.461  -1.308  52.776  1.00  0.00     0.086 C 
BRANCH  25  26
HETATM   26  C3  UNL     1      27.763  -1.332  53.023  1.00  0.00    -0.170 C 
BRANCH  26  27
HETATM   27  C2  UNL     1      29.006  -1.150  53.432  1.00  0.00     0.062 C 
HETATM   28  C1  UNL     1      29.465   0.211  53.699  1.00  0.00     0.023 C 
ENDBRANCH  26  27
ENDBRANCH  25  26
ENDBRANCH  24  25
ENDBRANCH   1  24
TORSDOF 9
ENDMDL
MODEL 6
REMARK VINA RESULT:      -6.8      2.379      5.721
REMARK  9 active torsions:
REMARK  status: ('A' for Active; 'I' for Inactive)
REMARK    1  A    between atoms: C2_2  and  C3_3 
REMARK    2  A    between atoms: C3_3  and  C4_4 
REMARK    3  A    between atoms: C4_4  and  C5_5 
REMARK    4  A    between atoms: C5_5  and  N1_6 
REMARK       I    between atoms: N1_6  and  C6_7 
REMARK       I    between atoms: C6_7  and  N2_9 
REMARK    5  A    between atoms: N2_9  and  C7_10 
REMARK    6  A    between atoms: N2_9  and  C14_19 
REMARK    7  A    between atoms: C7_10  and  C8_11 
REMARK    8  A    between atoms: C13_17  and  O2_18 
REMARK    9  A    between atoms: C17_22  and  O3_23 
ROOT
HETATM    1  N1  UNL     1      22.211   0.130  53.082  1.00  0.00    -0.342 N 
HETATM    2  C6  UNL     1      23.180   1.164  53.078  1.00  0.00     0.319 C 
HETATM    3  O1  UNL     1      22.590   2.265  52.828  1.00  0.00    -0.247 OA
HETATM    4  N2  UNL     1      24.581   1.372  53.260  1.00  0.00    -0.322 N 
HETATM    5  H8  UNL     1      22.678  -0.781  53.281  1.00  0.00     0.164 HD
ENDROOT
BRANCH   4   6
HETATM    6  C7  UNL     1      24.917   2.743  53.067  1.00  0.00     0.169 C 
BRANCH   6   7
HETATM    7  C8  UNL     1      25.255   3.226  51.737  1.00  0.00    -0.006 A 
HETATM    8  C9  UNL     1      26.265   2.737  50.950  1.00  0.00     0.012 A 
HETATM    9  C10 UNL     1      26.640   3.170  49.687  1.00  0.00     0.002 A 
HETATM   10  C11 UNL     1      25.926   4.216  49.133  1.00  0.00     0.022 A 
HETATM   11  C12 UNL     1      24.896   4.766  49.852  1.00  0.00     0.044 A 
HETATM   12 BR1  UNL     1      23.930   6.213  49.052  1.00  0.00    -0.048 Br
HETATM   13  C13 UNL     1      24.588   4.279  51.099  1.00  0.00     0.090 A 
BRANCH  13  14
HETATM   14  O2  UNL     1      23.530   4.914  51.709  1.00  0.00    -0.359 OA
HETATM   15  H14 UNL     1      23.113   5.730  51.285  1.00  0.00     0.217 HD
ENDBRANCH  13  14
ENDBRANCH   6   7
ENDBRANCH   4   6
BRANCH   4  16
HETATM   16  C14 UNL     1      25.267   0.144  53.651  1.00  0.00     0.115 A 
HETATM   17  C15 UNL     1      26.304   0.419  54.653  1.00  0.00     0.001 A 
HETATM   18  C16 UNL     1      27.603   0.209  54.746  1.00  0.00     0.034 A 
HETATM   19  C17 UNL     1      28.171  -0.452  53.592  1.00  0.00     0.061 A 
HETATM   20  C18 UNL     1      27.310  -0.738  52.641  1.00  0.00     0.012 A 
HETATM   21  C19 UNL     1      25.876  -0.550  52.445  1.00  0.00     0.059 A 
BRANCH  19  22
HETATM   22  O3  UNL     1      29.514  -0.761  53.495  1.00  0.00    -0.361 OA
HETATM   23  H18 UNL     1      29.896  -1.692  53.685  1.00  0.00     0.217 HD
ENDBRANCH  19  22
ENDBRANCH   4  16
BRANCH   1  24
HETATM   24  C5  UNL     1      20.890   0.661  52.807  1.00  0.00     0.142 C 
BRANCH  24  25
HETATM   25  C4  UNL     1      20.408   0.070  51.559  1.00  0.00     0.086 C 
BRANCH  25  26
HETATM   26  C3  UNL     1      20.846   0.632  50.442  1.00  0.00    -0.170 C 
BRANCH  26  27
HETATM   27  C2  UNL     1      21.400   0.954  49.286  1.00  0.00     0.062 C 
HETATM   28  C1  UNL     1      22.398   2.020  49.259  1.00  0.00     0.023 C 
ENDBRANCH  26  27
ENDBRANCH  25  26
ENDBRANCH  24  25
ENDBRANCH   1  24
TORSDOF 9
ENDMDL
MODEL 7
REMARK VINA RESULT:      -6.5      2.363      4.598
REMARK  9 active torsions:
REMARK  status: ('A' for Active; 'I' for Inactive)
REMARK    1  A    between atoms: C2_2  and  C3_3 
REMARK    2  A    between atoms: C3_3  and  C4_4 
REMARK    3  A    between atoms: C4_4  and  C5_5 
REMARK    4  A    between atoms: C5_5  and  N1_6 
REMARK       I    between atoms: N1_6  and  C6_7 
REMARK       I    between atoms: C6_7  and  N2_9 
REMARK    5  A    between atoms: N2_9  and  C7_10 
REMARK    6  A    between atoms: N2_9  and  C14_19 
REMARK    7  A    between atoms: C7_10  and  C8_11 
REMARK    8  A    between atoms: C13_17  and  O2_18 
REMARK    9  A    between atoms: C17_22  and  O3_23 
ROOT
HETATM    1  N1  UNL     1      23.181   0.941  51.992  1.00  0.00    -0.342 N 
HETATM    2  C6  UNL     1      23.619   2.091  51.287  1.00  0.00     0.319 C 
HETATM    3  O1  UNL     1      22.647   2.526  50.588  1.00  0.00    -0.247 OA
HETATM    4  N2  UNL     1      24.776   2.907  51.106  1.00  0.00    -0.322 N 
HETATM    5  H8  UNL     1      23.966   0.568  52.567  1.00  0.00     0.164 HD
ENDROOT
BRANCH   4   6
HETATM    6  C7  UNL     1      24.520   3.945  50.165  1.00  0.00     0.169 C 
BRANCH   6   7
HETATM    7  C8  UNL     1      25.627   4.697  49.597  1.00  0.00    -0.006 A 
HETATM    8  C9  UNL     1      26.787   4.152  49.108  1.00  0.00     0.012 A 
HETATM    9  C10 UNL     1      27.877   4.821  48.573  1.00  0.00     0.002 A 
HETATM   10  C11 UNL     1      27.812   6.201  48.512  1.00  0.00     0.022 A 
HETATM   11  C12 UNL     1      26.687   6.830  48.979  1.00  0.00     0.044 A 
HETATM   12 BR1  UNL     1      26.634   8.742  48.879  1.00  0.00    -0.048 Br
HETATM   13  C13 UNL     1      25.649   6.093  49.495  1.00  0.00     0.090 A 
BRANCH  13  14
HETATM   14  O2  UNL     1      24.578   6.847  49.922  1.00  0.00    -0.359 OA
HETATM   15  H14 UNL     1      24.685   7.496  50.687  1.00  0.00     0.217 HD
ENDBRANCH  13  14
ENDBRANCH   6   7
ENDBRANCH   4   6
BRANCH   4  16
HETATM   16  C14 UNL     1      25.874   2.493  51.975  1.00  0.00     0.115 A 
HETATM   17  C15 UNL     1      26.478   1.244  51.498  1.00  0.00     0.001 A 
HETATM   18  C16 UNL     1      26.701   0.049  52.011  1.00  0.00     0.034 A 
HETATM   19  C17 UNL     1      26.250  -0.092  53.377  1.00  0.00     0.061 A 
HETATM   20  C18 UNL     1      25.693   0.984  53.888  1.00  0.00     0.012 A 
HETATM   21  C19 UNL     1      25.404   2.331  53.411  1.00  0.00     0.059 A 
BRANCH  19  22
HETATM   22  O3  UNL     1      26.392  -1.266  54.092  1.00  0.00    -0.361 OA
HETATM   23  H18 UNL     1      25.733  -1.573  54.813  1.00  0.00     0.217 HD
ENDBRANCH  19  22
ENDBRANCH   4  16
BRANCH   1  24
HETATM   24  C5  UNL     1      21.793   0.650  51.690  1.00  0.00     0.142 C 
BRANCH  24  25
HETATM   25  C4  UNL     1      21.089   0.411  52.949  1.00  0.00     0.086 C 
BRANCH  25  26
HETATM   26  C3  UNL     1      21.460  -0.664  53.629  1.00  0.00    -0.170 C 
BRANCH  26  27
HETATM   27  C2  UNL     1      21.839  -1.568  54.516  1.00  0.00     0.062 C 
HETATM   28  C1  UNL     1      23.028  -1.305  55.322  1.00  0.00     0.023 C 
ENDBRANCH  26  27
ENDBRANCH  25  26
ENDBRANCH  24  25
ENDBRANCH   1  24
TORSDOF 9
ENDMDL
MODEL 8
REMARK VINA RESULT:      -6.3      3.638      6.252
REMARK  9 active torsions:
REMARK  status: ('A' for Active; 'I' for Inactive)
REMARK    1  A    between atoms: C2_2  and  C3_3 
REMARK    2  A    between atoms: C3_3  and  C4_4 
REMARK    3  A    between atoms: C4_4  and  C5_5 
REMARK    4  A    between atoms: C5_5  and  N1_6 
REMARK       I    between atoms: N1_6  and  C6_7 
REMARK       I    between atoms: C6_7  and  N2_9 
REMARK    5  A    between atoms: N2_9  and  C7_10 
REMARK    6  A    between atoms: N2_9  and  C14_19 
REMARK    7  A    between atoms: C7_10  and  C8_11 
REMARK    8  A    between atoms: C13_17  and  O2_18 
REMARK    9  A    between atoms: C17_22  and  O3_23 
ROOT
HETATM    1  N1  UNL     1      23.851   5.835  49.315  1.00  0.00    -0.342 N 
HETATM    2  C6  UNL     1      23.444   5.068  50.436  1.00  0.00     0.319 C 
HETATM    3  O1  UNL     1      24.055   5.507  51.464  1.00  0.00    -0.247 OA
HETATM    4  N2  UNL     1      22.588   3.980  50.783  1.00  0.00    -0.322 N 
HETATM    5  H8  UNL     1      23.363   5.487  48.463  1.00  0.00     0.164 HD
ENDROOT
BRANCH   4   6
HETATM    6  C7  UNL     1      22.697   3.674  52.171  1.00  0.00     0.169 C 
BRANCH   6   7
HETATM    7  C8  UNL     1      23.114   2.345  52.589  1.00  0.00    -0.006 A 
HETATM    8  C9  UNL     1      24.404   1.882  52.587  1.00  0.00     0.012 A 
HETATM    9  C10 UNL     1      24.853   0.624  52.958  1.00  0.00     0.002 A 
HETATM   10  C11 UNL     1      23.907  -0.291  53.384  1.00  0.00     0.022 A 
HETATM   11  C12 UNL     1      22.591   0.088  53.418  1.00  0.00     0.044 A 
HETATM   12 BR1  UNL     1      21.310  -1.206  54.013  1.00  0.00    -0.048 Br
HETATM   13  C13 UNL     1      22.228   1.356  53.033  1.00  0.00     0.090 A 
BRANCH  13  14
HETATM   14  O2  UNL     1      20.877   1.610  53.121  1.00  0.00    -0.359 OA
HETATM   15  H14 UNL     1      20.233   0.864  53.339  1.00  0.00     0.217 HD
ENDBRANCH  13  14
ENDBRANCH   6   7
ENDBRANCH   4   6
BRANCH   4  16
HETATM   16  C14 UNL     1      21.797   3.525  49.644  1.00  0.00     0.115 A 
HETATM   17  C15 UNL     1      20.363   3.725  49.887  1.00  0.00     0.001 A 
HETATM   18  C16 UNL     1      19.293   2.954  49.898  1.00  0.00     0.034 A 
HETATM   19  C17 UNL     1      19.571   1.567  49.599  1.00  0.00     0.061 A 
HETATM   20  C18 UNL     1      20.837   1.296  49.366  1.00  0.00     0.012 A 
HETATM   21  C19 UNL     1      22.075   2.065  49.331  1.00  0.00     0.059 A 
BRANCH  19  22
HETATM   22  O3  UNL     1      18.585   0.600  49.561  1.00  0.00    -0.361 OA
HETATM   23  H18 UNL     1      17.643   0.737  49.937  1.00  0.00     0.217 HD
ENDBRANCH  19  22
ENDBRANCH   4  16
BRANCH   1  24
HETATM   24  C5  UNL     1      24.809   6.851  49.707  1.00  0.00     0.142 C 
BRANCH  24  25
HETATM   25  C4  UNL     1      25.988   6.723  48.852  1.00  0.00     0.086 C 
BRANCH  25  26
HETATM   26  C3  UNL     1      26.678   5.598  48.975  1.00  0.00    -0.170 C 
BRANCH  26  27
HETATM   27  C2  UNL     1      27.225   4.399  48.881  1.00  0.00     0.062 C 
HETATM   28  C1  UNL     1      26.617   3.291  49.614  1.00  0.00     0.023 C 
ENDBRANCH  26  27
ENDBRANCH  25  26
ENDBRANCH  24  25
ENDBRANCH   1  24
TORSDOF 9
ENDMDL
MODEL 9
REMARK VINA RESULT:      -6.3      2.436      3.096
REMARK  9 active torsions:
REMARK  status: ('A' for Active; 'I' for Inactive)
REMARK    1  A    between atoms: C2_2  and  C3_3 
REMARK    2  A    between atoms: C3_3  and  C4_4 
REMARK    3  A    between atoms: C4_4  and  C5_5 
REMARK    4  A    between atoms: C5_5  and  N1_6 
REMARK       I    between atoms: N1_6  and  C6_7 
REMARK       I    between atoms: C6_7  and  N2_9 
REMARK    5  A    between atoms: N2_9  and  C7_10 
REMARK    6  A    between atoms: N2_9  and  C14_19 
REMARK    7  A    between atoms: C7_10  and  C8_11 
REMARK    8  A    between atoms: C13_17  and  O2_18 
REMARK    9  A    between atoms: C17_22  and  O3_23 
ROOT
HETATM    1  N1  UNL     1      25.631   0.660  53.757  1.00  0.00    -0.342 N 
HETATM    2  C6  UNL     1      24.659   1.551  53.239  1.00  0.00     0.319 C 
HETATM    3  O1  UNL     1      25.167   2.718  53.196  1.00  0.00    -0.247 OA
HETATM    4  N2  UNL     1      23.315   1.568  52.757  1.00  0.00    -0.322 N 
HETATM    5  H8  UNL     1      25.230  -0.301  53.803  1.00  0.00     0.164 HD
ENDROOT
BRANCH   4   6
HETATM    6  C7  UNL     1      22.921   2.892  52.408  1.00  0.00     0.169 C 
BRANCH   6   7
HETATM    7  C8  UNL     1      23.013   3.335  51.025  1.00  0.00    -0.006 A 
HETATM    8  C9  UNL     1      22.333   2.784  49.970  1.00  0.00     0.012 A 
HETATM    9  C10 UNL     1      22.397   3.155  48.636  1.00  0.00     0.002 A 
HETATM   10  C11 UNL     1      23.238   4.201  48.303  1.00  0.00     0.022 A 
HETATM   11  C12 UNL     1      23.957   4.811  49.298  1.00  0.00     0.044 A 
HETATM   12 BR1  UNL     1      25.112   6.255  48.799  1.00  0.00    -0.048 Br
HETATM   13  C13 UNL     1      23.837   4.383  50.598  1.00  0.00     0.090 A 
BRANCH  13  14
HETATM   14  O2  UNL     1      24.608   5.084  51.498  1.00  0.00    -0.359 OA
HETATM   15  H14 UNL     1      24.323   5.157  52.463  1.00  0.00     0.217 HD
ENDBRANCH  13  14
ENDBRANCH   6   7
ENDBRANCH   4   6
BRANCH   4  16
HETATM   16  C14 UNL     1      22.742   0.227  52.696  1.00  0.00     0.115 A 
HETATM   17  C15 UNL     1      21.480   0.229  51.946  1.00  0.00     0.001 A 
HETATM   18  C16 UNL     1      20.236  -0.134  52.194  1.00  0.00     0.034 A 
HETATM   19  C17 UNL     1      20.039  -0.669  53.522  1.00  0.00     0.061 A 
HETATM   20  C18 UNL     1      21.122  -0.709  54.268  1.00  0.00     0.012 A 
HETATM   21  C19 UNL     1      22.521  -0.337  54.089  1.00  0.00     0.059 A 
BRANCH  19  22
HETATM   22  O3  UNL     1      18.809  -1.106  53.976  1.00  0.00    -0.361 OA
HETATM   23  H18 UNL     1      18.117  -0.492  54.415  1.00  0.00     0.217 HD
ENDBRANCH  19  22
ENDBRANCH   4  16
BRANCH   1  24
HETATM   24  C5  UNL     1      26.864   1.362  54.059  1.00  0.00     0.142 C 
BRANCH  24  25
HETATM   25  C4  UNL     1      27.847   0.384  54.522  1.00  0.00     0.086 C 
BRANCH  25  26
HETATM   26  C3  UNL     1      28.129  -0.602  53.681  1.00  0.00    -0.170 C 
BRANCH  26  27
HETATM   27  C2  UNL     1      28.255  -1.731  53.007  1.00  0.00     0.062 C 
HETATM   28  C1  UNL     1      27.061  -2.336  52.422  1.00  0.00     0.023 C 
ENDBRANCH  26  27
ENDBRANCH  25  26
ENDBRANCH  24  25
ENDBRANCH   1  24
TORSDOF 9
ENDMDL
