MODEL 1
REMARK VINA RESULT:      -7.8      0.000      0.000
REMARK  5 active torsions:
REMARK  status: ('A' for Active; 'I' for Inactive)
REMARK    1  A    between atoms: C2_2  and  C3_3 
REMARK    2  A    between atoms: C3_3  and  C4_4 
REMARK    3  A    between atoms: C6_6  and  C7_7 
REMARK       I    between atoms: C7_7  and  N1_8 
REMARK    4  A    between atoms: C9_12  and  C10_13 
REMARK    5  A    between atoms: C13_16  and  C14_17 
ROOT
HETATM    1  C4  UNL     1      22.497   0.582  52.455  1.00  0.00    -0.023 A 
HETATM    2  C5  UNL     1      21.076   0.474  52.283  1.00  0.00     0.036 A 
HETATM    3  C6  UNL     1      20.390  -0.352  53.036  1.00  0.00     0.073 A 
HETATM    4  S1  UNL     1      21.177  -1.363  54.268  1.00  0.00    -0.096 SA
HETATM    5  C8  UNL     1      22.906  -0.951  54.186  1.00  0.00     0.063 A 
HETATM    6  C9  UNL     1      23.403  -0.069  53.344  1.00  0.00    -0.009 A 
ENDROOT
BRANCH   6   7
HETATM    7  C10 UNL     1      24.825   0.064  53.454  1.00  0.00    -0.025 A 
HETATM    8  C11 UNL     1      25.662  -0.928  52.964  1.00  0.00     0.013 A 
HETATM    9  C12 UNL     1      27.037  -0.964  53.043  1.00  0.00     0.016 A 
HETATM   10  C13 UNL     1      27.673   0.064  53.658  1.00  0.00     0.009 A 
HETATM   11  C16 UNL     1      26.929   1.100  54.179  1.00  0.00     0.016 A 
HETATM   12  C17 UNL     1      25.567   1.036  54.046  1.00  0.00     0.013 A 
BRANCH  10  13
HETATM   13  C14 UNL     1      29.125   0.079  53.770  1.00  0.00     0.155 C 
HETATM   14  C15 UNL     1      29.914  -1.158  53.533  1.00  0.00     0.096 C 
HETATM   15  O2  UNL     1      29.722   1.141  54.069  1.00  0.00    -0.293 OA
ENDBRANCH  10  13
ENDBRANCH   6   7
BRANCH   1  16
HETATM   16  C3  UNL     1      23.076   1.368  51.594  1.00  0.00     0.008 C 
BRANCH  16  17
HETATM   17  C2  UNL     1      23.234   2.790  51.810  1.00  0.00    -0.008 C 
HETATM   18  C1  UNL     1      23.430   3.921  52.414  1.00  0.00     0.013 C 
ENDBRANCH  16  17
ENDBRANCH   1  16
BRANCH   3  19
HETATM   19  C7  UNL     1      18.986  -0.624  53.046  1.00  0.00     0.256 C 
HETATM   20  N1  UNL     1      18.148  -1.435  53.858  1.00  0.00    -0.366 N 
HETATM   21  H6  UNL     1      17.258  -1.090  54.279  1.00  0.00     0.159 HD
HETATM   22  H7  UNL     1      18.149  -2.420  54.220  1.00  0.00     0.159 HD
HETATM   23  O1  UNL     1      18.281  -0.045  52.160  1.00  0.00    -0.267 OA
ENDBRANCH   3  19
TORSDOF 5
ENDMDL
MODEL 2
REMARK VINA RESULT:      -7.7      3.124      7.192
REMARK  5 active torsions:
REMARK  status: ('A' for Active; 'I' for Inactive)
REMARK    1  A    between atoms: C2_2  and  C3_3 
REMARK    2  A    between atoms: C3_3  and  C4_4 
REMARK    3  A    between atoms: C6_6  and  C7_7 
REMARK       I    between atoms: C7_7  and  N1_8 
REMARK    4  A    between atoms: C9_12  and  C10_13 
REMARK    5  A    between atoms: C13_16  and  C14_17 
ROOT
HETATM    1  C4  UNL     1      24.987   2.028  53.195  1.00  0.00    -0.023 A 
HETATM    2  C5  UNL     1      26.368   2.339  53.433  1.00  0.00     0.036 A 
HETATM    3  C6  UNL     1      27.232   1.369  53.610  1.00  0.00     0.073 A 
HETATM    4  S1  UNL     1      26.739  -0.338  53.576  1.00  0.00    -0.096 SA
HETATM    5  C8  UNL     1      24.989  -0.320  53.256  1.00  0.00     0.063 A 
HETATM    6  C9  UNL     1      24.291   0.786  53.100  1.00  0.00    -0.009 A 
ENDROOT
BRANCH   6   7
HETATM    7  C10 UNL     1      22.897   0.537  52.882  1.00  0.00    -0.025 A 
HETATM    8  C11 UNL     1      22.085   0.131  53.931  1.00  0.00     0.013 A 
HETATM    9  C12 UNL     1      20.748  -0.193  53.864  1.00  0.00     0.016 A 
HETATM   10  C13 UNL     1      20.127  -0.118  52.661  1.00  0.00     0.009 A 
HETATM   11  C16 UNL     1      20.849   0.275  51.555  1.00  0.00     0.016 A 
HETATM   12  C17 UNL     1      22.174   0.574  51.732  1.00  0.00     0.013 A 
BRANCH  10  13
HETATM   13  C14 UNL     1      18.714  -0.448  52.532  1.00  0.00     0.155 C 
HETATM   14  C15 UNL     1      17.958  -0.071  51.310  1.00  0.00     0.096 C 
HETATM   15  O2  UNL     1      18.124  -1.055  53.457  1.00  0.00    -0.293 OA
ENDBRANCH  10  13
ENDBRANCH   6   7
BRANCH   1  16
HETATM   16  C3  UNL     1      24.213   3.072  53.122  1.00  0.00     0.008 C 
BRANCH  16  17
HETATM   17  C2  UNL     1      24.026   3.827  51.901  1.00  0.00    -0.008 C 
HETATM   18  C1  UNL     1      23.964   4.113  50.638  1.00  0.00     0.013 C 
ENDBRANCH  16  17
ENDBRANCH   1  16
BRANCH   3  19
HETATM   19  C7  UNL     1      28.639   1.437  53.858  1.00  0.00     0.256 C 
HETATM   20  N1  UNL     1      29.735   0.590  53.539  1.00  0.00    -0.366 N 
HETATM   21  H6  UNL     1      30.619   0.939  53.109  1.00  0.00     0.159 HD
HETATM   22  H7  UNL     1      29.963  -0.433  53.613  1.00  0.00     0.159 HD
HETATM   23  O1  UNL     1      29.064   2.451  54.497  1.00  0.00    -0.267 OA
ENDBRANCH   3  19
TORSDOF 5
ENDMDL
MODEL 3
REMARK VINA RESULT:      -7.7      2.644      3.393
REMARK  5 active torsions:
REMARK  status: ('A' for Active; 'I' for Inactive)
REMARK    1  A    between atoms: C2_2  and  C3_3 
REMARK    2  A    between atoms: C3_3  and  C4_4 
REMARK    3  A    between atoms: C6_6  and  C7_7 
REMARK       I    between atoms: C7_7  and  N1_8 
REMARK    4  A    between atoms: C9_12  and  C10_13 
REMARK    5  A    between atoms: C13_16  and  C14_17 
ROOT
HETATM    1  C4  UNL     1      22.722   0.997  52.502  1.00  0.00    -0.023 A 
HETATM    2  C5  UNL     1      21.451   1.608  52.234  1.00  0.00     0.036 A 
HETATM    3  C6  UNL     1      21.378   2.902  52.039  1.00  0.00     0.073 A 
HETATM    4  S1  UNL     1      22.821   3.938  52.109  1.00  0.00    -0.096 SA
HETATM    5  C8  UNL     1      24.178   2.839  52.452  1.00  0.00     0.063 A 
HETATM    6  C9  UNL     1      24.037   1.539  52.611  1.00  0.00    -0.009 A 
ENDROOT
BRANCH   6   7
HETATM    7  C10 UNL     1      25.274   0.879  52.906  1.00  0.00    -0.025 A 
HETATM    8  C11 UNL     1      25.923   0.137  51.930  1.00  0.00     0.013 A 
HETATM    9  C12 UNL     1      27.083  -0.590  52.078  1.00  0.00     0.016 A 
HETATM   10  C13 UNL     1      27.682  -0.604  53.296  1.00  0.00     0.009 A 
HETATM   11  C16 UNL     1      27.114   0.103  54.333  1.00  0.00     0.016 A 
HETATM   12  C17 UNL     1      25.958   0.792  54.077  1.00  0.00     0.013 A 
BRANCH  10  13
HETATM   13  C14 UNL     1      28.911  -1.356  53.510  1.00  0.00     0.155 C 
HETATM   14  C15 UNL     1      30.191  -0.651  53.777  1.00  0.00     0.096 C 
HETATM   15  O2  UNL     1      28.897  -2.609  53.468  1.00  0.00    -0.293 OA
ENDBRANCH  10  13
ENDBRANCH   6   7
BRANCH   1  16
HETATM   16  C3  UNL     1      22.654  -0.276  52.765  1.00  0.00     0.008 C 
BRANCH  16  17
HETATM   17  C2  UNL     1      22.424  -0.792  54.098  1.00  0.00    -0.008 C 
HETATM   18  C1  UNL     1      22.651  -1.307  55.266  1.00  0.00     0.013 C 
ENDBRANCH  16  17
ENDBRANCH   1  16
BRANCH   3  19
HETATM   19  C7  UNL     1      20.239   3.719  51.758  1.00  0.00     0.256 C 
HETATM   20  N1  UNL     1      20.018   4.842  50.916  1.00  0.00    -0.366 N 
HETATM   21  H6  UNL     1      19.211   4.911  50.259  1.00  0.00     0.159 HD
HETATM   22  H7  UNL     1      20.487   5.761  50.722  1.00  0.00     0.159 HD
HETATM   23  O1  UNL     1      19.158   3.428  52.363  1.00  0.00    -0.267 OA
ENDBRANCH   3  19
TORSDOF 5
ENDMDL
MODEL 4
REMARK VINA RESULT:      -7.3      2.262      3.087
REMARK  5 active torsions:
REMARK  status: ('A' for Active; 'I' for Inactive)
REMARK    1  A    between atoms: C2_2  and  C3_3 
REMARK    2  A    between atoms: C3_3  and  C4_4 
REMARK    3  A    between atoms: C6_6  and  C7_7 
REMARK       I    between atoms: C7_7  and  N1_8 
REMARK    4  A    between atoms: C9_12  and  C10_13 
REMARK    5  A    between atoms: C13_16  and  C14_17 
ROOT
HETATM    1  C4  UNL     1      22.324   0.818  52.461  1.00  0.00    -0.023 A 
HETATM    2  C5  UNL     1      20.974   0.788  51.975  1.00  0.00     0.036 A 
HETATM    3  C6  UNL     1      20.701   1.258  50.782  1.00  0.00     0.073 A 
HETATM    4  S1  UNL     1      21.964   1.951  49.741  1.00  0.00    -0.096 SA
HETATM    5  C8  UNL     1      23.475   1.809  50.670  1.00  0.00     0.063 A 
HETATM    6  C9  UNL     1      23.539   1.288  51.878  1.00  0.00    -0.009 A 
ENDROOT
BRANCH   6   7
HETATM    7  C10 UNL     1      24.862   1.314  52.425  1.00  0.00    -0.025 A 
HETATM    8  C11 UNL     1      25.752   0.284  52.156  1.00  0.00     0.013 A 
HETATM    9  C12 UNL     1      27.031   0.146  52.649  1.00  0.00     0.016 A 
HETATM   10  C13 UNL     1      27.503   1.100  53.490  1.00  0.00     0.009 A 
HETATM   11  C16 UNL     1      26.694   2.165  53.819  1.00  0.00     0.016 A 
HETATM   12  C17 UNL     1      25.438   2.205  53.273  1.00  0.00     0.013 A 
BRANCH  10  13
HETATM   13  C14 UNL     1      28.848   1.005  54.040  1.00  0.00     0.155 C 
HETATM   14  C15 UNL     1      29.752  -0.104  53.640  1.00  0.00     0.096 C 
HETATM   15  O2  UNL     1      29.253   1.863  54.860  1.00  0.00    -0.293 OA
ENDBRANCH  10  13
ENDBRANCH   6   7
BRANCH   1  16
HETATM   16  C3  UNL     1      22.455   0.405  53.689  1.00  0.00     0.008 C 
BRANCH  16  17
HETATM   17  C2  UNL     1      21.754  -0.751  54.207  1.00  0.00    -0.008 C 
HETATM   18  C1  UNL     1      21.405  -1.985  54.396  1.00  0.00     0.013 C 
ENDBRANCH  16  17
ENDBRANCH   1  16
BRANCH   3  19
HETATM   19  C7  UNL     1      19.449   1.331  50.095  1.00  0.00     0.256 C 
HETATM   20  N1  UNL     1      19.057   1.799  48.812  1.00  0.00    -0.366 N 
HETATM   21  H6  UNL     1      18.454   1.248  48.164  1.00  0.00     0.159 HD
HETATM   22  H7  UNL     1      19.212   2.658  48.228  1.00  0.00     0.159 HD
HETATM   23  O1  UNL     1      18.426   0.897  50.715  1.00  0.00    -0.267 OA
ENDBRANCH   3  19
TORSDOF 5
ENDMDL
MODEL 5
REMARK VINA RESULT:      -7.3      3.471      5.082
REMARK  5 active torsions:
REMARK  status: ('A' for Active; 'I' for Inactive)
REMARK    1  A    between atoms: C2_2  and  C3_3 
REMARK    2  A    between atoms: C3_3  and  C4_4 
REMARK    3  A    between atoms: C6_6  and  C7_7 
REMARK       I    between atoms: C7_7  and  N1_8 
REMARK    4  A    between atoms: C9_12  and  C10_13 
REMARK    5  A    between atoms: C13_16  and  C14_17 
ROOT
HETATM    1  C4  UNL     1      24.587   0.604  52.721  1.00  0.00    -0.023 A 
HETATM    2  C5  UNL     1      23.904  -0.357  53.539  1.00  0.00     0.036 A 
HETATM    3  C6  UNL     1      22.602  -0.287  53.675  1.00  0.00     0.073 A 
HETATM    4  S1  UNL     1      21.647   0.983  52.878  1.00  0.00    -0.096 SA
HETATM    5  C8  UNL     1      22.824   1.959  51.967  1.00  0.00     0.063 A 
HETATM    6  C9  UNL     1      24.118   1.713  51.956  1.00  0.00    -0.009 A 
ENDROOT
BRANCH   6   7
HETATM    7  C10 UNL     1      24.856   2.658  51.172  1.00  0.00    -0.025 A 
HETATM    8  C11 UNL     1      24.349   3.929  50.944  1.00  0.00     0.013 A 
HETATM    9  C12 UNL     1      24.915   4.920  50.174  1.00  0.00     0.016 A 
HETATM   10  C13 UNL     1      26.096   4.660  49.558  1.00  0.00     0.009 A 
HETATM   11  C16 UNL     1      26.682   3.424  49.722  1.00  0.00     0.016 A 
HETATM   12  C17 UNL     1      26.033   2.510  50.509  1.00  0.00     0.013 A 
BRANCH  10  13
HETATM   13  C14 UNL     1      26.741   5.672  48.732  1.00  0.00     0.155 C 
HETATM   14  C15 UNL     1      28.170   5.536  48.349  1.00  0.00     0.096 C 
HETATM   15  O2  UNL     1      26.091   6.669  48.338  1.00  0.00    -0.293 OA
ENDBRANCH  10  13
ENDBRANCH   6   7
BRANCH   1  16
HETATM   16  C3  UNL     1      25.884   0.485  52.734  1.00  0.00     0.008 C 
BRANCH  16  17
HETATM   17  C2  UNL     1      26.656   0.445  53.958  1.00  0.00    -0.008 C 
HETATM   18  C1  UNL     1      27.596   0.152  54.802  1.00  0.00     0.013 C 
ENDBRANCH  16  17
ENDBRANCH   1  16
BRANCH   3  19
HETATM   19  C7  UNL     1      21.718  -1.122  54.428  1.00  0.00     0.256 C 
HETATM   20  N1  UNL     1      20.320  -1.371  54.377  1.00  0.00    -0.366 N 
HETATM   21  H6  UNL     1      19.912  -2.331  54.374  1.00  0.00     0.159 HD
HETATM   22  H7  UNL     1      19.439  -0.800  54.335  1.00  0.00     0.159 HD
HETATM   23  O1  UNL     1      22.236  -1.819  55.357  1.00  0.00    -0.267 OA
ENDBRANCH   3  19
TORSDOF 5
ENDMDL
MODEL 6
REMARK VINA RESULT:      -7.2      3.699      7.079
REMARK  5 active torsions:
REMARK  status: ('A' for Active; 'I' for Inactive)
REMARK    1  A    between atoms: C2_2  and  C3_3 
REMARK    2  A    between atoms: C3_3  and  C4_4 
REMARK    3  A    between atoms: C6_6  and  C7_7 
REMARK       I    between atoms: C7_7  and  N1_8 
REMARK    4  A    between atoms: C9_12  and  C10_13 
REMARK    5  A    between atoms: C13_16  and  C14_17 
ROOT
HETATM    1  C4  UNL     1      25.535   0.292  52.651  1.00  0.00    -0.023 A 
HETATM    2  C5  UNL     1      26.347  -0.862  52.914  1.00  0.00     0.036 A 
HETATM    3  C6  UNL     1      27.637  -0.722  53.100  1.00  0.00     0.073 A 
HETATM    4  S1  UNL     1      28.423   0.870  53.022  1.00  0.00    -0.096 SA
HETATM    5  C8  UNL     1      27.115   2.029  52.687  1.00  0.00     0.063 A 
HETATM    6  C9  UNL     1      25.854   1.678  52.538  1.00  0.00    -0.009 A 
ENDROOT
BRANCH   6   7
HETATM    7  C10 UNL     1      24.999   2.790  52.248  1.00  0.00    -0.025 A 
HETATM    8  C11 UNL     1      24.992   3.358  50.982  1.00  0.00     0.013 A 
HETATM    9  C12 UNL     1      24.267   4.455  50.571  1.00  0.00     0.016 A 
HETATM   10  C13 UNL     1      23.462   5.069  51.475  1.00  0.00     0.009 A 
HETATM   11  C16 UNL     1      23.400   4.579  52.761  1.00  0.00     0.016 A 
HETATM   12  C17 UNL     1      24.163   3.484  53.064  1.00  0.00     0.013 A 
BRANCH  10  13
HETATM   13  C14 UNL     1      22.672   6.232  51.095  1.00  0.00     0.155 C 
HETATM   14  C15 UNL     1      23.336   7.511  50.734  1.00  0.00     0.096 C 
HETATM   15  O2  UNL     1      21.420   6.161  51.073  1.00  0.00    -0.293 OA
ENDBRANCH  10  13
ENDBRANCH   6   7
BRANCH   1  16
HETATM   16  C3  UNL     1      24.288   0.017  52.398  1.00  0.00     0.008 C 
BRANCH  16  17
HETATM   17  C2  UNL     1      23.362  -0.434  53.415  1.00  0.00    -0.008 C 
HETATM   18  C1  UNL     1      22.909  -0.888  54.542  1.00  0.00     0.013 C 
ENDBRANCH  16  17
ENDBRANCH   1  16
BRANCH   3  19
HETATM   19  C7  UNL     1      28.631  -1.713  53.375  1.00  0.00     0.256 C 
HETATM   20  N1  UNL     1      28.690  -3.121  53.196  1.00  0.00    -0.366 N 
HETATM   21  H6  UNL     1      29.499  -3.604  52.748  1.00  0.00     0.159 HD
HETATM   22  H7  UNL     1      28.080  -3.949  53.406  1.00  0.00     0.159 HD
HETATM   23  O1  UNL     1      29.721  -1.308  53.890  1.00  0.00    -0.267 OA
ENDBRANCH   3  19
TORSDOF 5
ENDMDL
MODEL 7
REMARK VINA RESULT:      -7.2      4.315      7.240
REMARK  5 active torsions:
REMARK  status: ('A' for Active; 'I' for Inactive)
REMARK    1  A    between atoms: C2_2  and  C3_3 
REMARK    2  A    between atoms: C3_3  and  C4_4 
REMARK    3  A    between atoms: C6_6  and  C7_7 
REMARK       I    between atoms: C7_7  and  N1_8 
REMARK    4  A    between atoms: C9_12  and  C10_13 
REMARK    5  A    between atoms: C13_16  and  C14_17 
ROOT
HETATM    1  C4  UNL     1      25.910   2.331  51.046  1.00  0.00    -0.023 A 
HETATM    2  C5  UNL     1      26.815   3.181  50.324  1.00  0.00     0.036 A 
HETATM    3  C6  UNL     1      26.344   4.161  49.592  1.00  0.00     0.073 A 
HETATM    4  S1  UNL     1      24.598   4.466  49.454  1.00  0.00    -0.096 SA
HETATM    5  C8  UNL     1      23.819   3.234  50.475  1.00  0.00     0.063 A 
HETATM    6  C9  UNL     1      24.487   2.322  51.149  1.00  0.00    -0.009 A 
ENDROOT
BRANCH   6   7
HETATM    7  C10 UNL     1      23.632   1.428  51.872  1.00  0.00    -0.025 A 
HETATM    8  C11 UNL     1      22.378   1.101  51.374  1.00  0.00     0.013 A 
HETATM    9  C12 UNL     1      21.431   0.303  51.977  1.00  0.00     0.016 A 
HETATM   10  C13 UNL     1      21.722  -0.239  53.186  1.00  0.00     0.009 A 
HETATM   11  C16 UNL     1      22.944   0.026  53.765  1.00  0.00     0.016 A 
HETATM   12  C17 UNL     1      23.812   0.834  53.080  1.00  0.00     0.013 A 
BRANCH  10  13
HETATM   13  C14 UNL     1      20.759  -1.092  53.869  1.00  0.00     0.155 C 
HETATM   14  C15 UNL     1      19.332  -1.100  53.457  1.00  0.00     0.096 C 
HETATM   15  O2  UNL     1      21.130  -1.828  54.814  1.00  0.00    -0.293 OA
ENDBRANCH  10  13
ENDBRANCH   6   7
BRANCH   1  16
HETATM   16  C3  UNL     1      26.490   1.343  51.665  1.00  0.00     0.008 C 
BRANCH  16  17
HETATM   17  C2  UNL     1      27.452   1.540  52.729  1.00  0.00    -0.008 C 
HETATM   18  C1  UNL     1      28.359   2.096  53.469  1.00  0.00     0.013 C 
ENDBRANCH  16  17
ENDBRANCH   1  16
BRANCH   3  19
HETATM   19  C7  UNL     1      27.043   5.123  48.798  1.00  0.00     0.256 C 
HETATM   20  N1  UNL     1      26.705   6.402  48.280  1.00  0.00    -0.366 N 
HETATM   21  H6  UNL     1      27.323   7.236  48.374  1.00  0.00     0.159 HD
HETATM   22  H7  UNL     1      25.904   6.830  47.752  1.00  0.00     0.159 HD
HETATM   23  O1  UNL     1      28.230   4.828  48.448  1.00  0.00    -0.267 OA
ENDBRANCH   3  19
TORSDOF 5
ENDMDL
MODEL 8
REMARK VINA RESULT:      -7.0      1.762      2.226
REMARK  5 active torsions:
REMARK  status: ('A' for Active; 'I' for Inactive)
REMARK    1  A    between atoms: C2_2  and  C3_3 
REMARK    2  A    between atoms: C3_3  and  C4_4 
REMARK    3  A    between atoms: C6_6  and  C7_7 
REMARK       I    between atoms: C7_7  and  N1_8 
REMARK    4  A    between atoms: C9_12  and  C10_13 
REMARK    5  A    between atoms: C13_16  and  C14_17 
ROOT
HETATM    1  C4  UNL     1      21.595   0.746  51.561  1.00  0.00    -0.023 A 
HETATM    2  C5  UNL     1      20.234   0.471  51.196  1.00  0.00     0.036 A 
HETATM    3  C6  UNL     1      19.418  -0.056  52.076  1.00  0.00     0.073 A 
HETATM    4  S1  UNL     1      19.954  -0.458  53.722  1.00  0.00    -0.096 SA
HETATM    5  C8  UNL     1      21.666   0.023  53.794  1.00  0.00     0.063 A 
HETATM    6  C9  UNL     1      22.314   0.554  52.778  1.00  0.00    -0.009 A 
ENDROOT
BRANCH   6   7
HETATM    7  C10 UNL     1      23.688   0.828  53.078  1.00  0.00    -0.025 A 
HETATM    8  C11 UNL     1      24.546  -0.202  53.438  1.00  0.00     0.013 A 
HETATM    9  C12 UNL     1      25.869  -0.087  53.802  1.00  0.00     0.016 A 
HETATM   10  C13 UNL     1      26.426   1.150  53.820  1.00  0.00     0.009 A 
HETATM   11  C16 UNL     1      25.655   2.240  53.478  1.00  0.00     0.016 A 
HETATM   12  C17 UNL     1      24.349   2.013  53.133  1.00  0.00     0.013 A 
BRANCH  10  13
HETATM   13  C14 UNL     1      27.822   1.331  54.196  1.00  0.00     0.155 C 
HETATM   14  C15 UNL     1      28.644   2.392  53.560  1.00  0.00     0.096 C 
HETATM   15  O2  UNL     1      28.341   0.587  55.062  1.00  0.00    -0.293 OA
ENDBRANCH  10  13
ENDBRANCH   6   7
BRANCH   1  16
HETATM   16  C3  UNL     1      22.328   1.187  50.580  1.00  0.00     0.008 C 
BRANCH  16  17
HETATM   17  C2  UNL     1      21.829   1.327  49.228  1.00  0.00    -0.008 C 
HETATM   18  C1  UNL     1      21.553   1.852  48.075  1.00  0.00     0.013 C 
ENDBRANCH  16  17
ENDBRANCH   1  16
BRANCH   3  19
HETATM   19  C7  UNL     1      18.039  -0.411  51.942  1.00  0.00     0.256 C 
HETATM   20  N1  UNL     1      17.113  -0.367  50.865  1.00  0.00    -0.366 N 
HETATM   21  H6  UNL     1      16.504  -1.173  50.604  1.00  0.00     0.159 HD
HETATM   22  H7  UNL     1      16.807   0.331  50.142  1.00  0.00     0.159 HD
HETATM   23  O1  UNL     1      17.460  -0.872  52.976  1.00  0.00    -0.267 OA
ENDBRANCH   3  19
TORSDOF 5
ENDMDL
MODEL 9
REMARK VINA RESULT:      -7.0      4.139      5.026
REMARK  5 active torsions:
REMARK  status: ('A' for Active; 'I' for Inactive)
REMARK    1  A    between atoms: C2_2  and  C3_3 
REMARK    2  A    between atoms: C3_3  and  C4_4 
REMARK    3  A    between atoms: C6_6  and  C7_7 
REMARK       I    between atoms: C7_7  and  N1_8 
REMARK    4  A    between atoms: C9_12  and  C10_13 
REMARK    5  A    between atoms: C13_16  and  C14_17 
ROOT
HETATM    1  C4  UNL     1      25.479   3.745  50.309  1.00  0.00    -0.023 A 
HETATM    2  C5  UNL     1      24.590   4.723  49.749  1.00  0.00     0.036 A 
HETATM    3  C6  UNL     1      23.493   5.048  50.390  1.00  0.00     0.073 A 
HETATM    4  S1  UNL     1      23.061   4.296  51.941  1.00  0.00    -0.096 SA
HETATM    5  C8  UNL     1      24.384   3.162  52.302  1.00  0.00     0.063 A 
HETATM    6  C9  UNL     1      25.423   2.983  51.514  1.00  0.00    -0.009 A 
ENDROOT
BRANCH   6   7
HETATM    7  C10 UNL     1      26.335   1.997  52.012  1.00  0.00    -0.025 A 
HETATM    8  C11 UNL     1      26.032   0.646  51.909  1.00  0.00     0.013 A 
HETATM    9  C12 UNL     1      26.780  -0.408  52.384  1.00  0.00     0.016 A 
HETATM   10  C13 UNL     1      27.944  -0.133  53.025  1.00  0.00     0.009 A 
HETATM   11  C16 UNL     1      28.334   1.179  53.178  1.00  0.00     0.016 A 
HETATM   12  C17 UNL     1      27.514   2.151  52.669  1.00  0.00     0.013 A 
BRANCH  10  13
HETATM   13  C14 UNL     1      28.776  -1.209  53.547  1.00  0.00     0.155 C 
HETATM   14  C15 UNL     1      28.726  -2.565  52.941  1.00  0.00     0.096 C 
HETATM   15  O2  UNL     1      29.542  -0.996  54.516  1.00  0.00    -0.293 OA
ENDBRANCH  10  13
ENDBRANCH   6   7
BRANCH   1  16
HETATM   16  C3  UNL     1      26.487   3.443  49.541  1.00  0.00     0.008 C 
BRANCH  16  17
HETATM   17  C2  UNL     1      27.247   4.440  48.817  1.00  0.00    -0.008 C 
HETATM   18  C1  UNL     1      28.136   5.346  48.554  1.00  0.00     0.013 C 
ENDBRANCH  16  17
ENDBRANCH   1  16
BRANCH   3  19
HETATM   19  C7  UNL     1      22.473   5.984  50.033  1.00  0.00     0.256 C 
HETATM   20  N1  UNL     1      21.379   5.947  49.127  1.00  0.00    -0.366 N 
HETATM   21  H6  UNL     1      20.411   6.232  49.391  1.00  0.00     0.159 HD
HETATM   22  H7  UNL     1      21.220   5.681  48.124  1.00  0.00     0.159 HD
HETATM   23  O1  UNL     1      22.496   7.113  50.619  1.00  0.00    -0.267 OA
ENDBRANCH   3  19
TORSDOF 5
ENDMDL
