MODEL 1
REMARK VINA RESULT:      -6.7      0.000      0.000
REMARK  3 active torsions:
REMARK  status: ('A' for Active; 'I' for Inactive)
REMARK    1  A    between atoms: C5_7  and  N3_8 
REMARK    2  A    between atoms: N3_8  and  C6_9 
REMARK    3  A    between atoms: C12_16  and  C13_17 
ROOT
HETATM    1  N1  UNL     1      21.754   1.453  50.036  1.00  0.00    -0.281 NA
HETATM    2  C1  UNL     1      20.963   1.667  50.949  1.00  0.00     0.160 C 
HETATM    3  C2  UNL     1      20.204   2.354  52.070  1.00  0.00     0.167 C 
HETATM    4  N2  UNL     1      20.559   3.543  52.624  1.00  0.00    -0.273 NA
HETATM    5  C3  UNL     1      21.823   4.006  51.954  1.00  0.00     0.097 C 
HETATM    6  C4  UNL     1      22.725   3.015  51.936  1.00  0.00     0.065 C 
HETATM    7  C5  UNL     1      23.099   1.661  52.264  1.00  0.00     0.124 C 
HETATM    8  C12 UNL     1      22.172   0.663  52.792  1.00  0.00    -0.012 C 
HETATM    9  C14 UNL     1      21.829  -0.223  51.896  1.00  0.00     0.094 C 
HETATM   10  N4  UNL     1      20.912   0.202  51.088  1.00  0.00    -0.226 NA
HETATM   11  H1  UNL     1      22.082   0.821  49.379  1.00  0.00     0.188 HD
ENDROOT
BRANCH   7  12
HETATM   12  N3  UNL     1      24.090   1.885  53.348  1.00  0.00    -0.381 N 
HETATM   13  H6  UNL     1      23.950   2.565  54.119  1.00  0.00     0.160 HD
BRANCH  12  14
HETATM   14  C6  UNL     1      25.277   1.108  53.274  1.00  0.00     0.028 A 
HETATM   15  C7  UNL     1      26.031   1.021  54.405  1.00  0.00     0.032 A 
HETATM   16  C8  UNL     1      27.197   0.282  54.435  1.00  0.00     0.044 A 
HETATM   17  C9  UNL     1      27.669  -0.415  53.324  1.00  0.00     0.116 A 
HETATM   18  F1  UNL     1      28.818  -1.121  53.417  1.00  0.00    -0.206 F 
HETATM   19  C10 UNL     1      26.883  -0.308  52.191  1.00  0.00     0.044 A 
HETATM   20  C11 UNL     1      25.723   0.435  52.183  1.00  0.00     0.032 A 
ENDBRANCH  12  14
ENDBRANCH   7  12
BRANCH   8  21
HETATM   21  C13 UNL     1      21.487   0.405  54.082  1.00  0.00     0.153 C 
HETATM   22 CL1  UNL     1      22.315  -0.961  54.896  1.00  0.00    -0.126 Cl
ENDBRANCH   8  21
TORSDOF 3
ENDMDL
MODEL 2
REMARK VINA RESULT:      -6.7      2.861      3.968
REMARK  3 active torsions:
REMARK  status: ('A' for Active; 'I' for Inactive)
REMARK    1  A    between atoms: C5_7  and  N3_8 
REMARK    2  A    between atoms: N3_8  and  C6_9 
REMARK    3  A    between atoms: C12_16  and  C13_17 
ROOT
HETATM    1  N1  UNL     1      23.793   5.025  53.216  1.00  0.00    -0.281 NA
HETATM    2  C1  UNL     1      22.963   4.644  52.396  1.00  0.00     0.160 C 
HETATM    3  C2  UNL     1      21.951   3.786  51.659  1.00  0.00     0.167 C 
HETATM    4  N2  UNL     1      21.736   2.467  51.905  1.00  0.00    -0.273 NA
HETATM    5  C3  UNL     1      22.688   2.037  52.986  1.00  0.00     0.097 C 
HETATM    6  C4  UNL     1      23.933   2.436  52.691  1.00  0.00     0.065 C 
HETATM    7  C5  UNL     1      24.852   3.103  51.801  1.00  0.00     0.124 C 
HETATM    8  C12 UNL     1      24.439   3.880  50.635  1.00  0.00    -0.012 C 
HETATM    9  C14 UNL     1      24.543   5.167  50.830  1.00  0.00     0.094 C 
HETATM   10  N4  UNL     1      23.554   5.657  51.507  1.00  0.00    -0.226 NA
HETATM   11  H1  UNL     1      24.382   5.739  53.502  1.00  0.00     0.188 HD
ENDROOT
BRANCH   7  12
HETATM   12  N3  UNL     1      25.615   1.952  51.254  1.00  0.00    -0.381 N 
HETATM   13  H6  UNL     1      25.448   1.550  50.312  1.00  0.00     0.160 HD
BRANCH  12  14
HETATM   14  C6  UNL     1      26.611   1.407  52.107  1.00  0.00     0.028 A 
HETATM   15  C7  UNL     1      26.607   0.056  52.279  1.00  0.00     0.032 A 
HETATM   16  C8  UNL     1      27.541  -0.569  53.082  1.00  0.00     0.044 A 
HETATM   17  C9  UNL     1      28.535   0.135  53.759  1.00  0.00     0.116 A 
HETATM   18  F1  UNL     1      29.420  -0.534  54.530  1.00  0.00    -0.206 F 
HETATM   19  C10 UNL     1      28.515   1.504  53.564  1.00  0.00     0.044 A 
HETATM   20  C11 UNL     1      27.575   2.108  52.759  1.00  0.00     0.032 A 
ENDBRANCH  12  14
ENDBRANCH   7  12
BRANCH   8  21
HETATM   21  C13 UNL     1      23.902   3.591  49.283  1.00  0.00     0.153 C 
HETATM   22 CL1  UNL     1      23.739   5.142  48.397  1.00  0.00    -0.126 Cl
ENDBRANCH   8  21
TORSDOF 3
ENDMDL
MODEL 3
REMARK VINA RESULT:      -6.5      2.801      3.694
REMARK  3 active torsions:
REMARK  status: ('A' for Active; 'I' for Inactive)
REMARK    1  A    between atoms: C5_7  and  N3_8 
REMARK    2  A    between atoms: N3_8  and  C6_9 
REMARK    3  A    between atoms: C12_16  and  C13_17 
ROOT
HETATM    1  N1  UNL     1      25.209   5.259  50.631  1.00  0.00    -0.281 NA
HETATM    2  C1  UNL     1      24.003   5.314  50.417  1.00  0.00     0.160 C 
HETATM    3  C2  UNL     1      22.500   5.359  50.628  1.00  0.00     0.167 C 
HETATM    4  N2  UNL     1      21.882   5.117  51.814  1.00  0.00    -0.273 NA
HETATM    5  C3  UNL     1      22.941   4.777  52.826  1.00  0.00     0.097 C 
HETATM    6  C4  UNL     1      23.765   3.842  52.334  1.00  0.00     0.065 C 
HETATM    7  C5  UNL     1      24.152   2.957  51.263  1.00  0.00     0.124 C 
HETATM    8  C12 UNL     1      23.559   2.984  49.928  1.00  0.00    -0.012 C 
HETATM    9  C14 UNL     1      24.351   3.524  49.041  1.00  0.00     0.094 C 
HETATM   10  N4  UNL     1      24.340   4.818  49.073  1.00  0.00    -0.226 NA
HETATM   11  H1  UNL     1      26.101   5.246  50.251  1.00  0.00     0.188 HD
ENDROOT
BRANCH   7  12
HETATM   12  N3  UNL     1      23.781   1.634  51.828  1.00  0.00    -0.381 N 
HETATM   13  H6  UNL     1      22.811   1.263  51.828  1.00  0.00     0.160 HD
BRANCH  12  14
HETATM   14  C6  UNL     1      24.845   0.879  52.391  1.00  0.00     0.028 A 
HETATM   15  C7  UNL     1      26.076   1.032  51.830  1.00  0.00     0.032 A 
HETATM   16  C8  UNL     1      27.175   0.349  52.312  1.00  0.00     0.044 A 
HETATM   17  C9  UNL     1      27.094  -0.529  53.392  1.00  0.00     0.116 A 
HETATM   18  F1  UNL     1      28.206  -1.168  53.817  1.00  0.00    -0.206 F 
HETATM   19  C10 UNL     1      25.832  -0.662  53.942  1.00  0.00     0.044 A 
HETATM   20  C11 UNL     1      24.749   0.029  53.445  1.00  0.00     0.032 A 
ENDBRANCH  12  14
ENDBRANCH   7  12
BRANCH   8  21
HETATM   21  C13 UNL     1      22.270   2.582  49.313  1.00  0.00     0.153 C 
HETATM   22 CL1  UNL     1      22.590   2.052  47.630  1.00  0.00    -0.126 Cl
ENDBRANCH   8  21
TORSDOF 3
ENDMDL
MODEL 4
REMARK VINA RESULT:      -6.4      1.637      2.145
REMARK  3 active torsions:
REMARK  status: ('A' for Active; 'I' for Inactive)
REMARK    1  A    between atoms: C5_7  and  N3_8 
REMARK    2  A    between atoms: N3_8  and  C6_9 
REMARK    3  A    between atoms: C12_16  and  C13_17 
ROOT
HETATM    1  N1  UNL     1      23.326   3.433  49.070  1.00  0.00    -0.281 NA
HETATM    2  C1  UNL     1      22.336   3.726  49.732  1.00  0.00     0.160 C 
HETATM    3  C2  UNL     1      21.421   4.396  50.742  1.00  0.00     0.167 C 
HETATM    4  N2  UNL     1      21.842   5.237  51.722  1.00  0.00    -0.273 NA
HETATM    5  C3  UNL     1      23.339   5.340  51.631  1.00  0.00     0.097 C 
HETATM    6  C4  UNL     1      23.883   4.117  51.563  1.00  0.00     0.065 C 
HETATM    7  C5  UNL     1      23.731   2.683  51.538  1.00  0.00     0.124 C 
HETATM    8  C12 UNL     1      22.444   2.001  51.428  1.00  0.00    -0.012 C 
HETATM    9  C14 UNL     1      22.243   1.500  50.239  1.00  0.00     0.094 C 
HETATM   10  N4  UNL     1      21.850   2.383  49.378  1.00  0.00    -0.226 NA
HETATM   11  H1  UNL     1      23.699   2.874  48.372  1.00  0.00     0.188 HD
ENDROOT
BRANCH   7  12
HETATM   12  N3  UNL     1      24.258   2.309  52.876  1.00  0.00    -0.381 N 
HETATM   13  H6  UNL     1      24.097   2.873  53.732  1.00  0.00     0.160 HD
BRANCH  12  14
HETATM   14  C6  UNL     1      25.022   1.113  52.929  1.00  0.00     0.028 A 
HETATM   15  C7  UNL     1      25.989   0.953  51.983  1.00  0.00     0.032 A 
HETATM   16  C8  UNL     1      26.790  -0.172  51.957  1.00  0.00     0.044 A 
HETATM   17  C9  UNL     1      26.661  -1.202  52.888  1.00  0.00     0.116 A 
HETATM   18  F1  UNL     1      27.476  -2.278  52.810  1.00  0.00    -0.206 F 
HETATM   19  C10 UNL     1      25.672  -1.011  53.836  1.00  0.00     0.044 A 
HETATM   20  C11 UNL     1      24.885   0.119  53.844  1.00  0.00     0.032 A 
ENDBRANCH  12  14
ENDBRANCH   7  12
BRANCH   8  21
HETATM   21  C13 UNL     1      21.279   1.749  52.312  1.00  0.00     0.153 C 
HETATM   22 CL1  UNL     1      21.387   0.066  52.921  1.00  0.00    -0.126 Cl
ENDBRANCH   8  21
TORSDOF 3
ENDMDL
MODEL 5
REMARK VINA RESULT:      -6.3      5.022      6.183
REMARK  3 active torsions:
REMARK  status: ('A' for Active; 'I' for Inactive)
REMARK    1  A    between atoms: C5_7  and  N3_8 
REMARK    2  A    between atoms: N3_8  and  C6_9 
REMARK    3  A    between atoms: C12_16  and  C13_17 
ROOT
HETATM    1  N1  UNL     1      24.154   4.402  53.130  1.00  0.00    -0.281 NA
HETATM    2  C1  UNL     1      23.548   3.425  52.702  1.00  0.00     0.160 C 
HETATM    3  C2  UNL     1      23.232   2.025  52.206  1.00  0.00     0.167 C 
HETATM    4  N2  UNL     1      24.167   1.088  51.901  1.00  0.00    -0.273 NA
HETATM    5  C3  UNL     1      25.523   1.703  52.111  1.00  0.00     0.097 C 
HETATM    6  C4  UNL     1      25.590   2.893  51.499  1.00  0.00     0.065 C 
HETATM    7  C5  UNL     1      24.973   3.921  50.697  1.00  0.00     0.124 C 
HETATM    8  C12 UNL     1      23.558   3.933  50.334  1.00  0.00    -0.012 C 
HETATM    9  C14 UNL     1      22.874   4.812  51.016  1.00  0.00     0.094 C 
HETATM   10  N4  UNL     1      22.566   4.403  52.204  1.00  0.00    -0.226 NA
HETATM   11  H1  UNL     1      24.106   5.330  53.404  1.00  0.00     0.188 HD
ENDROOT
BRANCH   7  12
HETATM   12  N3  UNL     1      25.705   3.769  49.414  1.00  0.00    -0.381 N 
HETATM   13  H6  UNL     1      25.683   2.904  48.841  1.00  0.00     0.160 HD
BRANCH  12  14
HETATM   14  C6  UNL     1      26.465   4.895  48.996  1.00  0.00     0.028 A 
HETATM   15  C7  UNL     1      27.772   4.677  48.683  1.00  0.00     0.032 A 
HETATM   16  C8  UNL     1      28.590   5.706  48.258  1.00  0.00     0.044 A 
HETATM   17  C9  UNL     1      28.133   7.016  48.123  1.00  0.00     0.116 A 
HETATM   18  F1  UNL     1      28.983   7.979  47.703  1.00  0.00    -0.206 F 
HETATM   19  C10 UNL     1      26.802   7.206  48.447  1.00  0.00     0.044 A 
HETATM   20  C11 UNL     1      26.004   6.165  48.869  1.00  0.00     0.032 A 
ENDBRANCH  12  14
ENDBRANCH   7  12
BRANCH   8  21
HETATM   21  C13 UNL     1      22.678   3.182  49.405  1.00  0.00     0.153 C 
HETATM   22 CL1  UNL     1      22.546   4.112  47.877  1.00  0.00    -0.126 Cl
ENDBRANCH   8  21
TORSDOF 3
ENDMDL
MODEL 6
REMARK VINA RESULT:      -6.2     10.467     12.408
REMARK  3 active torsions:
REMARK  status: ('A' for Active; 'I' for Inactive)
REMARK    1  A    between atoms: C5_7  and  N3_8 
REMARK    2  A    between atoms: N3_8  and  C6_9 
REMARK    3  A    between atoms: C12_16  and  C13_17 
ROOT
HETATM    1  N1  UNL     1      32.841   4.249  44.793  1.00  0.00    -0.281 NA
HETATM    2  C1  UNL     1      33.870   4.184  45.458  1.00  0.00     0.160 C 
HETATM    3  C2  UNL     1      34.892   3.764  46.500  1.00  0.00     0.167 C 
HETATM    4  N2  UNL     1      34.628   2.941  47.548  1.00  0.00    -0.273 NA
HETATM    5  C3  UNL     1      33.171   2.573  47.491  1.00  0.00     0.097 C 
HETATM    6  C4  UNL     1      32.422   3.674  47.341  1.00  0.00     0.065 C 
HETATM    7  C5  UNL     1      32.322   5.107  47.204  1.00  0.00     0.124 C 
HETATM    8  C12 UNL     1      33.470   5.991  47.021  1.00  0.00    -0.012 C 
HETATM    9  C14 UNL     1      33.576   6.425  45.793  1.00  0.00     0.094 C 
HETATM   10  N4  UNL     1      34.113   5.560  44.995  1.00  0.00    -0.226 NA
HETATM   11  H1  UNL     1      32.374   4.679  44.061  1.00  0.00     0.188 HD
ENDROOT
BRANCH   7  12
HETATM   12  N3  UNL     1      31.743   5.486  48.519  1.00  0.00    -0.381 N 
HETATM   13  H6  UNL     1      32.196   5.271  49.427  1.00  0.00     0.160 HD
BRANCH  12  14
HETATM   14  C6  UNL     1      30.499   6.171  48.474  1.00  0.00     0.028 A 
HETATM   15  C7  UNL     1      30.520   7.508  48.730  1.00  0.00     0.032 A 
HETATM   16  C8  UNL     1      29.364   8.263  48.701  1.00  0.00     0.044 A 
HETATM   17  C9  UNL     1      28.118   7.710  48.411  1.00  0.00     0.116 A 
HETATM   18  F1  UNL     1      27.023   8.502  48.398  1.00  0.00    -0.206 F 
HETATM   19  C10 UNL     1      28.128   6.351  48.154  1.00  0.00     0.044 A 
HETATM   20  C11 UNL     1      29.293   5.617  48.188  1.00  0.00     0.032 A 
ENDBRANCH  12  14
ENDBRANCH   7  12
BRANCH   8  21
HETATM   21  C13 UNL     1      34.577   6.509  47.863  1.00  0.00     0.153 C 
HETATM   22 CL1  UNL     1      34.129   8.148  48.436  1.00  0.00    -0.126 Cl
ENDBRANCH   8  21
TORSDOF 3
ENDMDL
MODEL 7
REMARK VINA RESULT:      -6.1      2.322      3.515
REMARK  3 active torsions:
REMARK  status: ('A' for Active; 'I' for Inactive)
REMARK    1  A    between atoms: C5_7  and  N3_8 
REMARK    2  A    between atoms: N3_8  and  C6_9 
REMARK    3  A    between atoms: C12_16  and  C13_17 
ROOT
HETATM    1  N1  UNL     1      22.833   5.270  52.831  1.00  0.00    -0.281 NA
HETATM    2  C1  UNL     1      22.150   5.168  51.817  1.00  0.00     0.160 C 
HETATM    3  C2  UNL     1      21.085   4.718  50.833  1.00  0.00     0.167 C 
HETATM    4  N2  UNL     1      20.279   3.640  51.012  1.00  0.00    -0.273 NA
HETATM    5  C3  UNL     1      20.661   2.987  52.312  1.00  0.00     0.097 C 
HETATM    6  C4  UNL     1      21.988   2.808  52.365  1.00  0.00     0.065 C 
HETATM    7  C5  UNL     1      23.291   2.935  51.758  1.00  0.00     0.124 C 
HETATM    8  C12 UNL     1      23.547   3.671  50.523  1.00  0.00    -0.012 C 
HETATM    9  C14 UNL     1      24.134   4.818  50.739  1.00  0.00     0.094 C 
HETATM   10  N4  UNL     1      23.313   5.743  51.121  1.00  0.00    -0.226 NA
HETATM   11  H1  UNL     1      23.579   5.710  53.266  1.00  0.00     0.188 HD
ENDROOT
BRANCH   7  12
HETATM   12  N3  UNL     1      23.604   1.517  51.439  1.00  0.00    -0.381 N 
HETATM   13  H6  UNL     1      23.091   0.965  50.726  1.00  0.00     0.160 HD
BRANCH  12  14
HETATM   14  C6  UNL     1      24.664   0.934  52.183  1.00  0.00     0.028 A 
HETATM   15  C7  UNL     1      25.933   1.218  51.779  1.00  0.00     0.032 A 
HETATM   16  C8  UNL     1      27.030   0.707  52.443  1.00  0.00     0.044 A 
HETATM   17  C9  UNL     1      26.909  -0.123  53.557  1.00  0.00     0.116 A 
HETATM   18  F1  UNL     1      28.022  -0.592  54.164  1.00  0.00    -0.206 F 
HETATM   19  C10 UNL     1      25.609  -0.393  53.944  1.00  0.00     0.044 A 
HETATM   20  C11 UNL     1      24.529   0.128  53.268  1.00  0.00     0.032 A 
ENDBRANCH  12  14
ENDBRANCH   7  12
BRANCH   8  21
HETATM   21  C13 UNL     1      23.288   3.473  49.076  1.00  0.00     0.153 C 
HETATM   22 CL1  UNL     1      22.362   1.951  48.873  1.00  0.00    -0.126 Cl
ENDBRANCH   8  21
TORSDOF 3
ENDMDL
MODEL 8
REMARK VINA RESULT:      -6.1      2.817      4.196
REMARK  3 active torsions:
REMARK  status: ('A' for Active; 'I' for Inactive)
REMARK    1  A    between atoms: C5_7  and  N3_8 
REMARK    2  A    between atoms: N3_8  and  C6_9 
REMARK    3  A    between atoms: C12_16  and  C13_17 
ROOT
HETATM    1  N1  UNL     1      19.215   3.629  52.062  1.00  0.00    -0.281 NA
HETATM    2  C1  UNL     1      19.580   3.699  50.893  1.00  0.00     0.160 C 
HETATM    3  C2  UNL     1      19.741   3.409  49.411  1.00  0.00     0.167 C 
HETATM    4  N2  UNL     1      19.282   2.291  48.791  1.00  0.00    -0.273 NA
HETATM    5  C3  UNL     1      18.638   1.417  49.832  1.00  0.00     0.097 C 
HETATM    6  C4  UNL     1      19.456   1.273  50.884  1.00  0.00     0.065 C 
HETATM    7  C5  UNL     1      20.711   1.554  51.537  1.00  0.00     0.124 C 
HETATM    8  C12 UNL     1      21.690   2.519  51.043  1.00  0.00    -0.012 C 
HETATM    9  C14 UNL     1      21.699   3.623  51.742  1.00  0.00     0.094 C 
HETATM   10  N4  UNL     1      20.740   4.432  51.424  1.00  0.00    -0.226 NA
HETATM   11  H1  UNL     1      19.275   4.002  52.954  1.00  0.00     0.188 HD
ENDROOT
BRANCH   7  12
HETATM   12  N3  UNL     1      21.387   0.234  51.452  1.00  0.00    -0.381 N 
HETATM   13  H6  UNL     1      21.402  -0.347  50.591  1.00  0.00     0.160 HD
BRANCH  12  14
HETATM   14  C6  UNL     1      22.025  -0.214  52.639  1.00  0.00     0.028 A 
HETATM   15  C7  UNL     1      21.231  -0.761  53.600  1.00  0.00     0.032 A 
HETATM   16  C8  UNL     1      21.759  -1.234  54.785  1.00  0.00     0.044 A 
HETATM   17  C9  UNL     1      23.122  -1.182  55.069  1.00  0.00     0.116 A 
HETATM   18  F1  UNL     1      23.578  -1.661  56.248  1.00  0.00    -0.206 F 
HETATM   19  C10 UNL     1      23.904  -0.622  54.074  1.00  0.00     0.044 A 
HETATM   20  C11 UNL     1      23.357  -0.157  52.899  1.00  0.00     0.032 A 
ENDBRANCH  12  14
ENDBRANCH   7  12
BRANCH   8  21
HETATM   21  C13 UNL     1      22.666   2.590  49.928  1.00  0.00     0.153 C 
HETATM   22 CL1  UNL     1      24.318   2.580  50.624  1.00  0.00    -0.126 Cl
ENDBRANCH   8  21
TORSDOF 3
ENDMDL
MODEL 9
REMARK VINA RESULT:      -5.9      3.294      3.975
REMARK  3 active torsions:
REMARK  status: ('A' for Active; 'I' for Inactive)
REMARK    1  A    between atoms: C5_7  and  N3_8 
REMARK    2  A    between atoms: N3_8  and  C6_9 
REMARK    3  A    between atoms: C12_16  and  C13_17 
ROOT
HETATM    1  N1  UNL     1      20.466   2.303  48.837  1.00  0.00    -0.281 NA
HETATM    2  C1  UNL     1      20.070   2.168  49.990  1.00  0.00     0.160 C 
HETATM    3  C2  UNL     1      19.551   2.475  51.384  1.00  0.00     0.167 C 
HETATM    4  N2  UNL     1      19.474   3.722  51.918  1.00  0.00    -0.273 NA
HETATM    5  C3  UNL     1      20.014   4.693  50.906  1.00  0.00     0.097 C 
HETATM    6  C4  UNL     1      21.200   4.269  50.447  1.00  0.00     0.065 C 
HETATM    7  C5  UNL     1      22.264   3.294  50.450  1.00  0.00     0.124 C 
HETATM    8  C12 UNL     1      22.193   2.012  51.145  1.00  0.00    -0.012 C 
HETATM    9  C14 UNL     1      22.010   1.010  50.326  1.00  0.00     0.094 C 
HETATM   10  N4  UNL     1      20.778   0.878  49.955  1.00  0.00    -0.226 NA
HETATM   11  H1  UNL     1      20.787   1.867  48.033  1.00  0.00     0.188 HD
ENDROOT
BRANCH   7  12
HETATM   12  N3  UNL     1      23.348   4.048  51.131  1.00  0.00    -0.381 N 
HETATM   13  H6  UNL     1      23.242   4.484  52.067  1.00  0.00     0.160 HD
BRANCH  12  14
HETATM   14  C6  UNL     1      24.572   4.154  50.418  1.00  0.00     0.028 A 
HETATM   15  C7  UNL     1      24.843   5.350  49.826  1.00  0.00     0.032 A 
HETATM   16  C8  UNL     1      26.011   5.554  49.118  1.00  0.00     0.044 A 
HETATM   17  C9  UNL     1      26.976   4.559  48.968  1.00  0.00     0.116 A 
HETATM   18  F1  UNL     1      28.100   4.820  48.263  1.00  0.00    -0.206 F 
HETATM   19  C10 UNL     1      26.674   3.356  49.580  1.00  0.00     0.044 A 
HETATM   20  C11 UNL     1      25.503   3.174  50.281  1.00  0.00     0.032 A 
ENDBRANCH  12  14
ENDBRANCH   7  12
BRANCH   8  21
HETATM   21  C13 UNL     1      22.245   1.544  52.551  1.00  0.00     0.153 C 
HETATM   22 CL1  UNL     1      23.940   1.097  52.934  1.00  0.00    -0.126 Cl
ENDBRANCH   8  21
TORSDOF 3
ENDMDL
