MODEL 1
REMARK VINA RESULT:      -7.8      0.000      0.000
REMARK  8 active torsions:
REMARK  status: ('A' for Active; 'I' for Inactive)
REMARK    1  A    between atoms: C6_6  and  C7_7 
REMARK    2  A    between atoms: C7_7  and  C8_8 
REMARK    3  A    between atoms: C8_8  and  C9_9 
REMARK    4  A    between atoms: C12_12  and  O1_13 
REMARK    5  A    between atoms: N1_16  and  C15_17 
REMARK    6  A    between atoms: C15_17  and  C16_18 
REMARK    7  A    between atoms: C16_18  and  N2_19 
REMARK    8  A    between atoms: N2_19  and  O2_20 
ROOT
HETATM    1  C1  UNL     1      23.125   0.570  53.066  1.00  0.00     0.027 C 
HETATM    2  C2  UNL     1      23.530   1.887  52.476  1.00  0.00     0.028 A 
HETATM    3  C3  UNL     1      24.098   1.807  51.154  1.00  0.00    -0.002 A 
HETATM    4  C4  UNL     1      23.744   2.942  51.693  1.00  0.00     0.063 A 
HETATM    5  C5  UNL     1      24.080   3.584  53.044  1.00  0.00     0.011 C 
HETATM    6  C6  UNL     1      24.735   2.457  53.191  1.00  0.00    -0.066 C 
HETATM    7  N1  UNL     1      22.840   3.926  51.375  1.00  0.00    -0.393 N 
HETATM    8  C17 UNL     1      22.369   2.782  52.202  1.00  0.00     0.154 A 
ENDROOT
BRANCH   6   9
HETATM    9  C7  UNL     1      26.020   2.004  53.854  1.00  0.00     0.040 C 
BRANCH   9  10
HETATM   10  C8  UNL     1      27.109   1.833  52.811  1.00  0.00     0.043 C 
BRANCH  10  11
HETATM   11  C9  UNL     1      27.570   0.402  52.917  1.00  0.00    -0.058 A 
HETATM   12  C10 UNL     1      26.676  -0.582  52.475  1.00  0.00     0.010 A 
HETATM   13  C11 UNL     1      27.010  -1.937  52.529  1.00  0.00     0.037 A 
HETATM   14  C12 UNL     1      28.249  -2.249  53.035  1.00  0.00     0.065 A 
HETATM   15  C13 UNL     1      29.148  -1.307  53.476  1.00  0.00     0.037 A 
HETATM   16  C14 UNL     1      28.814   0.044  53.422  1.00  0.00     0.010 A 
BRANCH  14  17
HETATM   17  O1  UNL     1      28.581  -3.607  53.089  1.00  0.00    -0.361 OA
HETATM   18  H12 UNL     1      29.486  -3.964  52.883  1.00  0.00     0.217 HD
ENDBRANCH  14  17
ENDBRANCH  10  11
ENDBRANCH   9  10
ENDBRANCH   6   9
BRANCH   7  19
HETATM   19  C15 UNL     1      21.782   4.877  51.129  1.00  0.00     0.134 C 
BRANCH  19  20
HETATM   20  C16 UNL     1      22.260   6.295  51.232  1.00  0.00     0.136 C 
BRANCH  20  21
HETATM   21  N2  UNL     1      23.649   6.423  50.921  1.00  0.00    -0.207 NA
HETATM   22  H19 UNL     1      23.828   6.903  50.029  1.00  0.00     0.153 HD
BRANCH  21  23
HETATM   23  O2  UNL     1      24.359   6.958  51.956  1.00  0.00    -0.316 OA
HETATM   24  H20 UNL     1      24.406   6.222  52.636  1.00  0.00     0.236 HD
ENDBRANCH  21  23
ENDBRANCH  20  21
ENDBRANCH  19  20
ENDBRANCH   7  19
TORSDOF 8
ENDMDL
MODEL 2
REMARK VINA RESULT:      -7.7      3.480      6.540
REMARK  8 active torsions:
REMARK  status: ('A' for Active; 'I' for Inactive)
REMARK    1  A    between atoms: C6_6  and  C7_7 
REMARK    2  A    between atoms: C7_7  and  C8_8 
REMARK    3  A    between atoms: C8_8  and  C9_9 
REMARK    4  A    between atoms: C12_12  and  O1_13 
REMARK    5  A    between atoms: N1_16  and  C15_17 
REMARK    6  A    between atoms: C15_17  and  C16_18 
REMARK    7  A    between atoms: C16_18  and  N2_19 
REMARK    8  A    between atoms: N2_19  and  O2_20 
ROOT
HETATM    1  C1  UNL     1      26.705   2.962  50.990  1.00  0.00     0.027 C 
HETATM    2  C2  UNL     1      26.580   1.954  52.092  1.00  0.00     0.028 A 
HETATM    3  C3  UNL     1      26.163   0.641  51.666  1.00  0.00    -0.002 A 
HETATM    4  C4  UNL     1      26.623   0.871  52.865  1.00  0.00     0.063 A 
HETATM    5  C5  UNL     1      26.237   1.902  53.932  1.00  0.00     0.011 C 
HETATM    6  C6  UNL     1      25.403   2.270  52.988  1.00  0.00    -0.066 C 
HETATM    7  N1  UNL     1      27.699   0.424  53.593  1.00  0.00    -0.393 N 
HETATM    8  C17 UNL     1      27.888   1.615  52.720  1.00  0.00     0.154 A 
ENDROOT
BRANCH   6   9
HETATM    9  C7  UNL     1      23.995   2.825  52.912  1.00  0.00     0.040 C 
BRANCH   9  10
HETATM   10  C8  UNL     1      23.180   2.036  51.904  1.00  0.00     0.043 C 
BRANCH  10  11
HETATM   11  C9  UNL     1      22.512   0.930  52.679  1.00  0.00    -0.058 A 
HETATM   12  C10 UNL     1      21.281   1.233  53.275  1.00  0.00     0.010 A 
HETATM   13  C11 UNL     1      20.580   0.276  54.012  1.00  0.00     0.037 A 
HETATM   14  C12 UNL     1      21.159  -0.966  54.121  1.00  0.00     0.065 A 
HETATM   15  C13 UNL     1      22.365  -1.294  53.548  1.00  0.00     0.037 A 
HETATM   16  C14 UNL     1      23.062  -0.339  52.813  1.00  0.00     0.010 A 
BRANCH  14  17
HETATM   17  O1  UNL     1      20.456  -1.923  54.861  1.00  0.00    -0.361 OA
HETATM   18  H12 UNL     1      20.811  -2.357  55.683  1.00  0.00     0.217 HD
ENDBRANCH  14  17
ENDBRANCH  10  11
ENDBRANCH   9  10
ENDBRANCH   6   9
BRANCH   7  19
HETATM   19  C15 UNL     1      28.913   0.079  54.294  1.00  0.00     0.134 C 
BRANCH  19  20
HETATM   20  C16 UNL     1      29.498  -1.214  53.810  1.00  0.00     0.136 C 
BRANCH  20  21
HETATM   21  N2  UNL     1      28.508  -2.088  53.264  1.00  0.00    -0.207 NA
HETATM   22  H19 UNL     1      28.294  -1.899  52.275  1.00  0.00     0.153 HD
BRANCH  21  23
HETATM   23  O2  UNL     1      28.796  -3.400  53.498  1.00  0.00    -0.316 OA
HETATM   24  H20 UNL     1      29.738  -3.392  53.845  1.00  0.00     0.236 HD
ENDBRANCH  21  23
ENDBRANCH  20  21
ENDBRANCH  19  20
ENDBRANCH   7  19
TORSDOF 8
ENDMDL
MODEL 3
REMARK VINA RESULT:      -7.4      2.803      3.838
REMARK  8 active torsions:
REMARK  status: ('A' for Active; 'I' for Inactive)
REMARK    1  A    between atoms: C6_6  and  C7_7 
REMARK    2  A    between atoms: C7_7  and  C8_8 
REMARK    3  A    between atoms: C8_8  and  C9_9 
REMARK    4  A    between atoms: C12_12  and  O1_13 
REMARK    5  A    between atoms: N1_16  and  C15_17 
REMARK    6  A    between atoms: C15_17  and  C16_18 
REMARK    7  A    between atoms: C16_18  and  N2_19 
REMARK    8  A    between atoms: N2_19  and  O2_20 
ROOT
HETATM    1  C1  UNL     1      23.852   2.464  50.312  1.00  0.00     0.027 C 
HETATM    2  C2  UNL     1      23.134   1.981  51.536  1.00  0.00     0.028 A 
HETATM    3  C3  UNL     1      22.516   3.019  52.323  1.00  0.00    -0.002 A 
HETATM    4  C4  UNL     1      22.271   1.752  52.523  1.00  0.00     0.063 A 
HETATM    5  C5  UNL     1      23.196   0.551  52.742  1.00  0.00     0.011 C 
HETATM    6  C6  UNL     1      24.110   1.477  52.577  1.00  0.00    -0.066 C 
HETATM    7  N1  UNL     1      21.149   0.962  52.466  1.00  0.00    -0.393 N 
HETATM    8  C17 UNL     1      21.936   1.154  51.217  1.00  0.00     0.154 A 
ENDROOT
BRANCH   6   9
HETATM    9  C7  UNL     1      25.490   1.779  53.124  1.00  0.00     0.040 C 
BRANCH   9  10
HETATM   10  C8  UNL     1      26.541   1.492  52.067  1.00  0.00     0.043 C 
BRANCH  10  11
HETATM   11  C9  UNL     1      27.206   0.203  52.478  1.00  0.00    -0.058 A 
HETATM   12  C10 UNL     1      26.544  -0.983  52.137  1.00  0.00     0.010 A 
HETATM   13  C11 UNL     1      27.079  -2.230  52.469  1.00  0.00     0.037 A 
HETATM   14  C12 UNL     1      28.277  -2.229  53.143  1.00  0.00     0.065 A 
HETATM   15  C13 UNL     1      28.951  -1.082  53.491  1.00  0.00     0.037 A 
HETATM   16  C14 UNL     1      28.417   0.160  53.158  1.00  0.00     0.010 A 
BRANCH  14  17
HETATM   17  O1  UNL     1      28.811  -3.479  53.476  1.00  0.00    -0.361 OA
HETATM   18  H12 UNL     1      28.471  -4.045  54.219  1.00  0.00     0.217 HD
ENDBRANCH  14  17
ENDBRANCH  10  11
ENDBRANCH   9  10
ENDBRANCH   6   9
BRANCH   7  19
HETATM   19  C15 UNL     1      20.006   0.107  52.250  1.00  0.00     0.134 C 
BRANCH  19  20
HETATM   20  C16 UNL     1      19.499  -0.494  53.527  1.00  0.00     0.136 C 
BRANCH  20  21
HETATM   21  N2  UNL     1      20.359  -1.523  54.022  1.00  0.00    -0.207 NA
HETATM   22  H19 UNL     1      20.939  -1.959  53.292  1.00  0.00     0.153 HD
BRANCH  21  23
HETATM   23  O2  UNL     1      21.089  -1.109  55.096  1.00  0.00    -0.316 OA
HETATM   24  H20 UNL     1      20.523  -0.401  55.527  1.00  0.00     0.236 HD
ENDBRANCH  21  23
ENDBRANCH  20  21
ENDBRANCH  19  20
ENDBRANCH   7  19
TORSDOF 8
ENDMDL
MODEL 4
REMARK VINA RESULT:      -7.3      3.941      6.991
REMARK  8 active torsions:
REMARK  status: ('A' for Active; 'I' for Inactive)
REMARK    1  A    between atoms: C6_6  and  C7_7 
REMARK    2  A    between atoms: C7_7  and  C8_8 
REMARK    3  A    between atoms: C8_8  and  C9_9 
REMARK    4  A    between atoms: C12_12  and  O1_13 
REMARK    5  A    between atoms: N1_16  and  C15_17 
REMARK    6  A    between atoms: C15_17  and  C16_18 
REMARK    7  A    between atoms: C16_18  and  N2_19 
REMARK    8  A    between atoms: N2_19  and  O2_20 
ROOT
HETATM    1  C1  UNL     1      24.067   2.200  53.061  1.00  0.00     0.027 C 
HETATM    2  C2  UNL     1      24.962   1.012  53.243  1.00  0.00     0.028 A 
HETATM    3  C3  UNL     1      25.649   0.585  52.050  1.00  0.00    -0.002 A 
HETATM    4  C4  UNL     1      25.961   0.132  53.233  1.00  0.00     0.063 A 
HETATM    5  C5  UNL     1      25.115  -0.491  54.349  1.00  0.00     0.011 C 
HETATM    6  C6  UNL     1      24.158  -0.246  53.487  1.00  0.00    -0.066 C 
HETATM    7  N1  UNL     1      27.090   0.161  54.016  1.00  0.00    -0.393 N 
HETATM    8  C17 UNL     1      26.132   1.295  54.123  1.00  0.00     0.154 A 
ENDROOT
BRANCH   6   9
HETATM    9  C7  UNL     1      22.857  -0.898  53.063  1.00  0.00     0.040 C 
BRANCH   9  10
HETATM   10  C8  UNL     1      21.686  -0.207  53.739  1.00  0.00     0.043 C 
BRANCH  10  11
HETATM   11  C9  UNL     1      20.659   0.026  52.660  1.00  0.00    -0.058 A 
HETATM   12  C10 UNL     1      21.108   0.640  51.485  1.00  0.00     0.010 A 
HETATM   13  C11 UNL     1      20.235   0.897  50.425  1.00  0.00     0.037 A 
HETATM   14  C12 UNL     1      18.925   0.519  50.598  1.00  0.00     0.065 A 
HETATM   15  C13 UNL     1      18.454  -0.087  51.739  1.00  0.00     0.037 A 
HETATM   16  C14 UNL     1      19.326  -0.342  52.795  1.00  0.00     0.010 A 
BRANCH  14  17
HETATM   17  O1  UNL     1      18.052   0.777  49.536  1.00  0.00    -0.361 OA
HETATM   18  H12 UNL     1      17.097   0.500  49.525  1.00  0.00     0.217 HD
ENDBRANCH  14  17
ENDBRANCH  10  11
ENDBRANCH   9  10
ENDBRANCH   6   9
BRANCH   7  19
HETATM   19  C15 UNL     1      28.219   0.332  54.899  1.00  0.00     0.134 C 
BRANCH  19  20
HETATM   20  C16 UNL     1      29.408   0.912  54.192  1.00  0.00     0.136 C 
BRANCH  20  21
HETATM   21  N2  UNL     1      29.461   2.336  54.298  1.00  0.00    -0.207 NA
HETATM   22  H19 UNL     1      30.345   2.686  54.693  1.00  0.00     0.153 HD
BRANCH  21  23
HETATM   23  O2  UNL     1      29.129   2.951  53.127  1.00  0.00    -0.316 OA
HETATM   24  H20 UNL     1      29.786   3.705  53.043  1.00  0.00     0.236 HD
ENDBRANCH  21  23
ENDBRANCH  20  21
ENDBRANCH  19  20
ENDBRANCH   7  19
TORSDOF 8
ENDMDL
MODEL 5
REMARK VINA RESULT:      -7.3      3.986      7.528
REMARK  8 active torsions:
REMARK  status: ('A' for Active; 'I' for Inactive)
REMARK    1  A    between atoms: C6_6  and  C7_7 
REMARK    2  A    between atoms: C7_7  and  C8_8 
REMARK    3  A    between atoms: C8_8  and  C9_9 
REMARK    4  A    between atoms: C12_12  and  O1_13 
REMARK    5  A    between atoms: N1_16  and  C15_17 
REMARK    6  A    between atoms: C15_17  and  C16_18 
REMARK    7  A    between atoms: C16_18  and  N2_19 
REMARK    8  A    between atoms: N2_19  and  O2_20 
ROOT
HETATM    1  C1  UNL     1      24.575   2.958  53.428  1.00  0.00     0.027 C 
HETATM    2  C2  UNL     1      25.276   1.690  53.044  1.00  0.00     0.028 A 
HETATM    3  C3  UNL     1      25.851   1.694  51.722  1.00  0.00    -0.002 A 
HETATM    4  C4  UNL     1      26.122   0.764  52.598  1.00  0.00     0.063 A 
HETATM    5  C5  UNL     1      25.221  -0.137  53.449  1.00  0.00     0.011 C 
HETATM    6  C6  UNL     1      24.290   0.560  52.844  1.00  0.00    -0.066 C 
HETATM    7  N1  UNL     1      27.264   0.325  53.223  1.00  0.00    -0.393 N 
HETATM    8  C17 UNL     1      26.501   1.436  53.855  1.00  0.00     0.154 A 
ENDROOT
BRANCH   6   9
HETATM    9  C7  UNL     1      22.890   0.314  52.317  1.00  0.00     0.040 C 
BRANCH   9  10
HETATM   10  C8  UNL     1      21.884   0.419  53.449  1.00  0.00     0.043 C 
BRANCH  10  11
HETATM   11  C9  UNL     1      20.537   0.127  52.840  1.00  0.00    -0.058 A 
HETATM   12  C10 UNL     1      20.271   0.706  51.593  1.00  0.00     0.010 A 
HETATM   13  C11 UNL     1      19.053   0.494  50.944  1.00  0.00     0.037 A 
HETATM   14  C12 UNL     1      18.139  -0.305  51.588  1.00  0.00     0.065 A 
HETATM   15  C13 UNL     1      18.371  -0.889  52.812  1.00  0.00     0.037 A 
HETATM   16  C14 UNL     1      19.586  -0.676  53.458  1.00  0.00     0.010 A 
BRANCH  14  17
HETATM   17  O1  UNL     1      16.919  -0.516  50.937  1.00  0.00    -0.361 OA
HETATM   18  H12 UNL     1      16.841  -0.860  50.007  1.00  0.00     0.217 HD
ENDBRANCH  14  17
ENDBRANCH  10  11
ENDBRANCH   9  10
ENDBRANCH   6   9
BRANCH   7  19
HETATM   19  C15 UNL     1      28.431  -0.027  53.996  1.00  0.00     0.134 C 
BRANCH  19  20
HETATM   20  C16 UNL     1      29.121  -1.245  53.457  1.00  0.00     0.136 C 
BRANCH  20  21
HETATM   21  N2  UNL     1      28.200  -2.283  53.114  1.00  0.00    -0.207 NA
HETATM   22  H19 UNL     1      27.877  -2.238  52.138  1.00  0.00     0.153 HD
BRANCH  21  23
HETATM   23  O2  UNL     1      28.667  -3.517  53.457  1.00  0.00    -0.316 OA
HETATM   24  H20 UNL     1      28.254  -3.702  54.353  1.00  0.00     0.236 HD
ENDBRANCH  21  23
ENDBRANCH  20  21
ENDBRANCH  19  20
ENDBRANCH   7  19
TORSDOF 8
ENDMDL
MODEL 6
REMARK VINA RESULT:      -7.2      3.068      7.292
REMARK  8 active torsions:
REMARK  status: ('A' for Active; 'I' for Inactive)
REMARK    1  A    between atoms: C6_6  and  C7_7 
REMARK    2  A    between atoms: C7_7  and  C8_8 
REMARK    3  A    between atoms: C8_8  and  C9_9 
REMARK    4  A    between atoms: C12_12  and  O1_13 
REMARK    5  A    between atoms: N1_16  and  C15_17 
REMARK    6  A    between atoms: C15_17  and  C16_18 
REMARK    7  A    between atoms: C16_18  and  N2_19 
REMARK    8  A    between atoms: N2_19  and  O2_20 
ROOT
HETATM    1  C1  UNL     1      24.839   2.431  53.463  1.00  0.00     0.027 C 
HETATM    2  C2  UNL     1      25.402   1.043  53.395  1.00  0.00     0.028 A 
HETATM    3  C3  UNL     1      25.597   0.535  52.060  1.00  0.00    -0.002 A 
HETATM    4  C4  UNL     1      26.089  -0.061  53.112  1.00  0.00     0.063 A 
HETATM    5  C5  UNL     1      25.447  -0.519  54.426  1.00  0.00     0.011 C 
HETATM    6  C6  UNL     1      24.391   0.021  53.866  1.00  0.00    -0.066 C 
HETATM    7  N1  UNL     1      27.354  -0.375  53.545  1.00  0.00    -0.393 N 
HETATM    8  C17 UNL     1      26.799   0.957  53.908  1.00  0.00     0.154 A 
ENDROOT
BRANCH   6   9
HETATM    9  C7  UNL     1      22.899  -0.245  53.832  1.00  0.00     0.040 C 
BRANCH   9  10
HETATM   10  C8  UNL     1      22.444  -0.464  52.401  1.00  0.00     0.043 C 
BRANCH  10  11
HETATM   11  C9  UNL     1      21.939   0.870  51.913  1.00  0.00    -0.058 A 
HETATM   12  C10 UNL     1      21.106   1.584  52.783  1.00  0.00     0.010 A 
HETATM   13  C11 UNL     1      20.588   2.831  52.426  1.00  0.00     0.037 A 
HETATM   14  C12 UNL     1      20.938   3.314  51.187  1.00  0.00     0.065 A 
HETATM   15  C13 UNL     1      21.754   2.638  50.312  1.00  0.00     0.037 A 
HETATM   16  C14 UNL     1      22.270   1.394  50.669  1.00  0.00     0.010 A 
BRANCH  14  17
HETATM   17  O1  UNL     1      20.418   4.563  50.831  1.00  0.00    -0.361 OA
HETATM   18  H12 UNL     1      20.428   5.358  51.430  1.00  0.00     0.217 HD
ENDBRANCH  14  17
ENDBRANCH  10  11
ENDBRANCH   9  10
ENDBRANCH   6   9
BRANCH   7  19
HETATM   19  C15 UNL     1      28.685  -0.559  54.073  1.00  0.00     0.134 C 
BRANCH  19  20
HETATM   20  C16 UNL     1      29.479  -1.549  53.274  1.00  0.00     0.136 C 
BRANCH  20  21
HETATM   21  N2  UNL     1      29.186  -2.900  53.637  1.00  0.00    -0.207 NA
HETATM   22  H19 UNL     1      28.929  -3.012  54.627  1.00  0.00     0.153 HD
BRANCH  21  23
HETATM   23  O2  UNL     1      28.282  -3.474  52.792  1.00  0.00    -0.316 OA
HETATM   24  H20 UNL     1      27.389  -3.171  53.135  1.00  0.00     0.236 HD
ENDBRANCH  21  23
ENDBRANCH  20  21
ENDBRANCH  19  20
ENDBRANCH   7  19
TORSDOF 8
ENDMDL
MODEL 7
REMARK VINA RESULT:      -7.1      3.238      7.048
REMARK  8 active torsions:
REMARK  status: ('A' for Active; 'I' for Inactive)
REMARK    1  A    between atoms: C6_6  and  C7_7 
REMARK    2  A    between atoms: C7_7  and  C8_8 
REMARK    3  A    between atoms: C8_8  and  C9_9 
REMARK    4  A    between atoms: C12_12  and  O1_13 
REMARK    5  A    between atoms: N1_16  and  C15_17 
REMARK    6  A    between atoms: C15_17  and  C16_18 
REMARK    7  A    between atoms: C16_18  and  N2_19 
REMARK    8  A    between atoms: N2_19  and  O2_20 
ROOT
HETATM    1  C1  UNL     1      24.822   2.935  53.423  1.00  0.00     0.027 C 
HETATM    2  C2  UNL     1      25.472   1.626  53.090  1.00  0.00     0.028 A 
HETATM    3  C3  UNL     1      25.941   1.513  51.732  1.00  0.00    -0.002 A 
HETATM    4  C4  UNL     1      26.265   0.650  52.656  1.00  0.00     0.063 A 
HETATM    5  C5  UNL     1      25.420  -0.162  53.643  1.00  0.00     0.011 C 
HETATM    6  C6  UNL     1      24.455   0.505  53.057  1.00  0.00    -0.066 C 
HETATM    7  N1  UNL     1      27.446   0.236  53.224  1.00  0.00    -0.393 N 
HETATM    8  C17 UNL     1      26.752   1.410  53.822  1.00  0.00     0.154 A 
ENDROOT
BRANCH   6   9
HETATM    9  C7  UNL     1      23.015   0.249  52.661  1.00  0.00     0.040 C 
BRANCH   9  10
HETATM   10  C8  UNL     1      22.297   1.567  52.433  1.00  0.00     0.043 C 
BRANCH  10  11
HETATM   11  C9  UNL     1      22.239   1.759  50.939  1.00  0.00    -0.058 A 
HETATM   12  C10 UNL     1      22.906   2.876  50.422  1.00  0.00     0.010 A 
HETATM   13  C11 UNL     1      22.914   3.141  49.050  1.00  0.00     0.037 A 
HETATM   14  C12 UNL     1      22.238   2.255  48.246  1.00  0.00     0.065 A 
HETATM   15  C13 UNL     1      21.575   1.149  48.724  1.00  0.00     0.037 A 
HETATM   16  C14 UNL     1      21.568   0.886  50.091  1.00  0.00     0.010 A 
BRANCH  14  17
HETATM   17  O1  UNL     1      22.246   2.522  46.872  1.00  0.00    -0.361 OA
HETATM   18  H12 UNL     1      21.641   2.079  46.219  1.00  0.00     0.217 HD
ENDBRANCH  14  17
ENDBRANCH  10  11
ENDBRANCH   9  10
ENDBRANCH   6   9
BRANCH   7  19
HETATM   19  C15 UNL     1      28.665  -0.079  53.931  1.00  0.00     0.134 C 
BRANCH  19  20
HETATM   20  C16 UNL     1      29.264  -1.376  53.475  1.00  0.00     0.136 C 
BRANCH  20  21
HETATM   21  N2  UNL     1      28.270  -2.367  53.202  1.00  0.00    -0.207 NA
HETATM   22  H19 UNL     1      27.829  -2.262  52.278  1.00  0.00     0.153 HD
BRANCH  21  23
HETATM   23  O2  UNL     1      28.732  -3.631  53.423  1.00  0.00    -0.316 OA
HETATM   24  H20 UNL     1      29.627  -3.655  52.970  1.00  0.00     0.236 HD
ENDBRANCH  21  23
ENDBRANCH  20  21
ENDBRANCH  19  20
ENDBRANCH   7  19
TORSDOF 8
ENDMDL
MODEL 8
REMARK VINA RESULT:      -7.0      3.894      6.547
REMARK  8 active torsions:
REMARK  status: ('A' for Active; 'I' for Inactive)
REMARK    1  A    between atoms: C6_6  and  C7_7 
REMARK    2  A    between atoms: C7_7  and  C8_8 
REMARK    3  A    between atoms: C8_8  and  C9_9 
REMARK    4  A    between atoms: C12_12  and  O1_13 
REMARK    5  A    between atoms: N1_16  and  C15_17 
REMARK    6  A    between atoms: C15_17  and  C16_18 
REMARK    7  A    between atoms: C16_18  and  N2_19 
REMARK    8  A    between atoms: N2_19  and  O2_20 
ROOT
HETATM    1  C1  UNL     1      22.928   1.513  52.581  1.00  0.00     0.027 C 
HETATM    2  C2  UNL     1      24.401   1.751  52.725  1.00  0.00     0.028 A 
HETATM    3  C3  UNL     1      24.753   2.914  53.500  1.00  0.00    -0.002 A 
HETATM    4  C4  UNL     1      25.633   2.013  53.157  1.00  0.00     0.063 A 
HETATM    5  C5  UNL     1      25.991   1.392  51.803  1.00  0.00     0.011 C 
HETATM    6  C6  UNL     1      25.016   2.176  51.410  1.00  0.00    -0.066 C 
HETATM    7  N1  UNL     1      26.462   1.160  53.843  1.00  0.00    -0.393 N 
HETATM    8  C17 UNL     1      25.084   0.695  53.527  1.00  0.00     0.154 A 
ENDROOT
BRANCH   6   9
HETATM    9  C7  UNL     1      24.686   2.999  50.181  1.00  0.00     0.040 C 
BRANCH   9  10
HETATM   10  C8  UNL     1      24.653   4.474  50.538  1.00  0.00     0.043 C 
BRANCH  10  11
HETATM   11  C9  UNL     1      25.746   5.125  49.730  1.00  0.00    -0.058 A 
HETATM   12  C10 UNL     1      26.796   4.299  49.310  1.00  0.00     0.010 A 
HETATM   13  C11 UNL     1      27.855   4.806  48.554  1.00  0.00     0.037 A 
HETATM   14  C12 UNL     1      27.812   6.145  48.248  1.00  0.00     0.065 A 
HETATM   15  C13 UNL     1      26.795   6.981  48.645  1.00  0.00     0.037 A 
HETATM   16  C14 UNL     1      25.739   6.475  49.399  1.00  0.00     0.010 A 
BRANCH  14  17
HETATM   17  O1  UNL     1      28.874   6.651  47.491  1.00  0.00    -0.361 OA
HETATM   18  H12 UNL     1      29.662   6.111  47.212  1.00  0.00     0.217 HD
ENDBRANCH  14  17
ENDBRANCH  10  11
ENDBRANCH   9  10
ENDBRANCH   6   9
BRANCH   7  19
HETATM   19  C15 UNL     1      27.212   0.155  54.559  1.00  0.00     0.134 C 
BRANCH  19  20
HETATM   20  C16 UNL     1      28.643   0.555  54.763  1.00  0.00     0.136 C 
BRANCH  20  21
HETATM   21  N2  UNL     1      28.908   1.880  54.298  1.00  0.00    -0.207 NA
HETATM   22  H19 UNL     1      28.074   2.482  54.279  1.00  0.00     0.153 HD
BRANCH  21  23
HETATM   23  O2  UNL     1      29.955   2.455  54.956  1.00  0.00    -0.316 OA
HETATM   24  H20 UNL     1      30.751   2.268  54.374  1.00  0.00     0.236 HD
ENDBRANCH  21  23
ENDBRANCH  20  21
ENDBRANCH  19  20
ENDBRANCH   7  19
TORSDOF 8
ENDMDL
MODEL 9
REMARK VINA RESULT:      -6.8      2.090      2.871
REMARK  8 active torsions:
REMARK  status: ('A' for Active; 'I' for Inactive)
REMARK    1  A    between atoms: C6_6  and  C7_7 
REMARK    2  A    between atoms: C7_7  and  C8_8 
REMARK    3  A    between atoms: C8_8  and  C9_9 
REMARK    4  A    between atoms: C12_12  and  O1_13 
REMARK    5  A    between atoms: N1_16  and  C15_17 
REMARK    6  A    between atoms: C15_17  and  C16_18 
REMARK    7  A    between atoms: C16_18  and  N2_19 
REMARK    8  A    between atoms: N2_19  and  O2_20 
ROOT
HETATM    1  C1  UNL     1      24.860   3.476  50.605  1.00  0.00     0.027 C 
HETATM    2  C2  UNL     1      23.932   2.796  51.567  1.00  0.00     0.028 A 
HETATM    3  C3  UNL     1      23.239   3.683  52.468  1.00  0.00    -0.002 A 
HETATM    4  C4  UNL     1      22.911   2.426  52.336  1.00  0.00     0.063 A 
HETATM    5  C5  UNL     1      23.736   1.137  52.412  1.00  0.00     0.011 C 
HETATM    6  C6  UNL     1      24.703   2.003  52.599  1.00  0.00    -0.066 C 
HETATM    7  N1  UNL     1      21.780   1.757  51.935  1.00  0.00    -0.393 N 
HETATM    8  C17 UNL     1      22.767   2.154  50.894  1.00  0.00     0.154 A 
ENDROOT
BRANCH   6   9
HETATM    9  C7  UNL     1      25.988   2.070  53.400  1.00  0.00     0.040 C 
BRANCH   9  10
HETATM   10  C8  UNL     1      27.179   1.836  52.490  1.00  0.00     0.043 C 
BRANCH  10  11
HETATM   11  C9  UNL     1      27.644   0.428  52.761  1.00  0.00    -0.058 A 
HETATM   12  C10 UNL     1      26.811  -0.606  52.316  1.00  0.00     0.010 A 
HETATM   13  C11 UNL     1      27.154  -1.946  52.517  1.00  0.00     0.037 A 
HETATM   14  C12 UNL     1      28.339  -2.190  53.168  1.00  0.00     0.065 A 
HETATM   15  C13 UNL     1      29.178  -1.196  53.615  1.00  0.00     0.037 A 
HETATM   16  C14 UNL     1      28.835   0.138  53.415  1.00  0.00     0.010 A 
BRANCH  14  17
HETATM   17  O1  UNL     1      28.681  -3.532  53.368  1.00  0.00    -0.361 OA
HETATM   18  H12 UNL     1      29.609  -3.882  53.304  1.00  0.00     0.217 HD
ENDBRANCH  14  17
ENDBRANCH  10  11
ENDBRANCH   9  10
ENDBRANCH   6   9
BRANCH   7  19
HETATM   19  C15 UNL     1      20.653   1.061  51.362  1.00  0.00     0.134 C 
BRANCH  19  20
HETATM   20  C16 UNL     1      19.386   1.313  52.123  1.00  0.00     0.136 C 
BRANCH  20  21
HETATM   21  N2  UNL     1      18.646   2.417  51.596  1.00  0.00    -0.207 NA
HETATM   22  H19 UNL     1      17.627   2.304  51.677  1.00  0.00     0.153 HD
BRANCH  21  23
HETATM   23  O2  UNL     1      19.084   3.610  52.090  1.00  0.00    -0.316 OA
HETATM   24  H20 UNL     1      19.420   3.394  53.010  1.00  0.00     0.236 HD
ENDBRANCH  21  23
ENDBRANCH  20  21
ENDBRANCH  19  20
ENDBRANCH   7  19
TORSDOF 8
ENDMDL
