MODEL 1
REMARK VINA RESULT:      -9.0      0.000      0.000
REMARK  5 active torsions:
REMARK  status: ('A' for Active; 'I' for Inactive)
REMARK    1  A    between atoms: C4_5  and  C5_6 
REMARK    2  A    between atoms: C5_6  and  C7_8 
REMARK    3  A    between atoms: C9_10  and  C10_11 
REMARK       I    between atoms: C10_11  and  N2_12 
REMARK    4  A    between atoms: C12_15  and  O2_16 
REMARK    5  A    between atoms: O2_16  and  C13_17 
ROOT
HETATM    1  C1  UNL     1      22.426   4.581  52.483  1.00  0.00     0.068 C 
HETATM    2  C2  UNL     1      23.393   3.718  51.727  1.00  0.00     0.035 C 
HETATM    3  N1  UNL     1      24.533   4.131  51.247  1.00  0.00    -0.292 NA
HETATM    4  C3  UNL     1      25.383   3.188  50.530  1.00  0.00     0.183 C 
HETATM    5  C4  UNL     1      25.636   2.066  51.464  1.00  0.00    -0.057 C 
HETATM    6  C11 UNL     1      24.439   1.608  51.912  1.00  0.00     0.015 C 
HETATM    7  C12 UNL     1      23.155   2.255  51.435  1.00  0.00     0.192 C 
ENDROOT
BRANCH   7   8
HETATM    8  O2  UNL     1      22.145   1.808  52.220  1.00  0.00    -0.367 OA
BRANCH   8   9
HETATM    9  C13 UNL     1      21.476   0.682  51.787  1.00  0.00     0.150 C 
HETATM   10  C14 UNL     1      20.037   0.828  51.624  1.00  0.00     0.029 C 
HETATM   11  C15 UNL     1      18.896   0.264  52.038  1.00  0.00     0.032 C 
HETATM   12 CL1  UNL     1      17.316   0.872  51.500  1.00  0.00    -0.085 Cl
HETATM   13  C16 UNL     1      18.908  -0.879  52.955  1.00  0.00     0.023 C 
HETATM   14  C17 UNL     1      19.851  -1.303  53.808  1.00  0.00     0.017 C 
HETATM   15  C18 UNL     1      21.160  -0.605  53.968  1.00  0.00     0.120 C 
HETATM   16  C19 UNL     1      22.026  -1.324  54.970  1.00  0.00     0.056 C 
HETATM   17  F1  UNL     1      20.940   0.685  54.470  1.00  0.00    -0.239 F 
HETATM   18  C20 UNL     1      21.905  -0.443  52.685  1.00  0.00     0.083 C 
ENDBRANCH   8   9
ENDBRANCH   7   8
BRANCH   5  19
HETATM   19  C5  UNL     1      26.864   1.388  51.965  1.00  0.00     0.017 C 
HETATM   20  C6  UNL     1      27.456   2.306  53.018  1.00  0.00     0.015 C 
BRANCH  19  21
HETATM   21  C7  UNL     1      26.591   0.018  52.492  1.00  0.00     0.007 A 
HETATM   22  C8  UNL     1      26.736  -0.364  53.899  1.00  0.00     0.020 A 
HETATM   23  C9  UNL     1      27.682  -0.904  52.835  1.00  0.00     0.083 A 
BRANCH  23  24
HETATM   24  C10 UNL     1      27.568  -2.361  52.595  1.00  0.00     0.220 C 
HETATM   25  N2  UNL     1      28.493  -3.262  53.181  1.00  0.00    -0.370 N 
HETATM   26  H14 UNL     1      29.128  -3.870  53.742  1.00  0.00     0.159 HD
HETATM   27  H15 UNL     1      29.214  -4.000  53.098  1.00  0.00     0.159 HD
HETATM   28  O1  UNL     1      26.670  -2.868  51.883  1.00  0.00    -0.273 OA
ENDBRANCH  23  24
ENDBRANCH  19  21
ENDBRANCH   5  19
TORSDOF 5
ENDMDL
MODEL 2
REMARK VINA RESULT:      -9.0      2.808      4.516
REMARK  5 active torsions:
REMARK  status: ('A' for Active; 'I' for Inactive)
REMARK    1  A    between atoms: C4_5  and  C5_6 
REMARK    2  A    between atoms: C5_6  and  C7_8 
REMARK    3  A    between atoms: C9_10  and  C10_11 
REMARK       I    between atoms: C10_11  and  N2_12 
REMARK    4  A    between atoms: C12_15  and  O2_16 
REMARK    5  A    between atoms: O2_16  and  C13_17 
ROOT
HETATM    1  C1  UNL     1      21.694  -1.595  54.399  1.00  0.00     0.068 C 
HETATM    2  C2  UNL     1      23.043  -0.939  54.390  1.00  0.00     0.035 C 
HETATM    3  N1  UNL     1      23.967  -1.135  55.288  1.00  0.00    -0.292 NA
HETATM    4  C3  UNL     1      25.239  -0.433  55.162  1.00  0.00     0.183 C 
HETATM    5  C4  UNL     1      25.781  -0.794  53.831  1.00  0.00    -0.057 C 
HETATM    6  C11 UNL     1      24.830  -0.531  52.899  1.00  0.00     0.015 C 
HETATM    7  C12 UNL     1      23.491   0.035  53.324  1.00  0.00     0.192 C 
ENDROOT
BRANCH   7   8
HETATM    8  O2  UNL     1      22.646  -0.051  52.267  1.00  0.00    -0.367 OA
BRANCH   8   9
HETATM    9  C13 UNL     1      22.513   1.080  51.487  1.00  0.00     0.150 C 
HETATM   10  C14 UNL     1      23.005   2.315  52.079  1.00  0.00     0.029 C 
HETATM   11  C15 UNL     1      22.580   3.548  52.377  1.00  0.00     0.032 C 
HETATM   12 CL1  UNL     1      23.658   4.737  53.139  1.00  0.00    -0.085 Cl
HETATM   13  C16 UNL     1      21.207   3.966  52.085  1.00  0.00     0.023 C 
HETATM   14  C17 UNL     1      20.097   3.239  51.892  1.00  0.00     0.017 C 
HETATM   15  C18 UNL     1      20.095   1.748  51.952  1.00  0.00     0.120 C 
HETATM   16  C19 UNL     1      18.717   1.208  51.665  1.00  0.00     0.056 C 
HETATM   17  F1  UNL     1      20.434   1.335  53.248  1.00  0.00    -0.239 F 
HETATM   18  C20 UNL     1      21.084   1.117  51.029  1.00  0.00     0.083 C 
ENDBRANCH   8   9
ENDBRANCH   7   8
BRANCH   5  19
HETATM   19  C5  UNL     1      27.080  -1.346  53.354  1.00  0.00     0.017 C 
HETATM   20  C6  UNL     1      26.787  -2.045  52.040  1.00  0.00     0.015 C 
BRANCH  19  21
HETATM   21  C7  UNL     1      28.135  -0.299  53.219  1.00  0.00     0.007 A 
HETATM   22  C8  UNL     1      29.535  -0.489  53.606  1.00  0.00     0.020 A 
HETATM   23  C9  UNL     1      28.624   0.453  54.382  1.00  0.00     0.083 A 
BRANCH  23  24
HETATM   24  C10 UNL     1      28.992   1.884  54.280  1.00  0.00     0.220 C 
HETATM   25  N2  UNL     1      28.387   2.715  53.304  1.00  0.00    -0.370 N 
HETATM   26  H14 UNL     1      27.813   3.291  52.650  1.00  0.00     0.159 HD
HETATM   27  H15 UNL     1      28.452   3.348  52.487  1.00  0.00     0.159 HD
HETATM   28  O1  UNL     1      29.835   2.428  55.030  1.00  0.00    -0.273 OA
ENDBRANCH  23  24
ENDBRANCH  19  21
ENDBRANCH   5  19
TORSDOF 5
ENDMDL
MODEL 3
REMARK VINA RESULT:      -8.9      2.916      5.151
REMARK  5 active torsions:
REMARK  status: ('A' for Active; 'I' for Inactive)
REMARK    1  A    between atoms: C4_5  and  C5_6 
REMARK    2  A    between atoms: C5_6  and  C7_8 
REMARK    3  A    between atoms: C9_10  and  C10_11 
REMARK       I    between atoms: C10_11  and  N2_12 
REMARK    4  A    between atoms: C12_15  and  O2_16 
REMARK    5  A    between atoms: O2_16  and  C13_17 
ROOT
HETATM    1  C1  UNL     1      21.652  -0.237  52.522  1.00  0.00     0.068 C 
HETATM    2  C2  UNL     1      22.963  -0.095  53.237  1.00  0.00     0.035 C 
HETATM    3  N1  UNL     1      23.417  -0.938  54.123  1.00  0.00    -0.292 NA
HETATM    4  C3  UNL     1      24.710  -0.683  54.746  1.00  0.00     0.183 C 
HETATM    5  C4  UNL     1      25.690  -0.578  53.639  1.00  0.00    -0.057 C 
HETATM    6  C11 UNL     1      25.232   0.344  52.754  1.00  0.00     0.015 C 
HETATM    7  C12 UNL     1      23.919   1.053  53.009  1.00  0.00     0.192 C 
ENDROOT
BRANCH   7   8
HETATM    8  O2  UNL     1      23.565   1.701  51.873  1.00  0.00    -0.367 OA
BRANCH   8   9
HETATM    9  C13 UNL     1      23.428   3.071  51.958  1.00  0.00     0.150 C 
HETATM   10  C14 UNL     1      22.198   3.617  51.407  1.00  0.00     0.029 C 
HETATM   11  C15 UNL     1      21.790   4.522  50.509  1.00  0.00     0.032 C 
HETATM   12 CL1  UNL     1      20.063   4.810  50.207  1.00  0.00    -0.085 Cl
HETATM   13  C16 UNL     1      22.755   5.310  49.739  1.00  0.00     0.023 C 
HETATM   14  C17 UNL     1      24.044   5.075  49.454  1.00  0.00     0.017 C 
HETATM   15  C18 UNL     1      24.758   3.853  49.926  1.00  0.00     0.120 C 
HETATM   16  C19 UNL     1      26.198   3.876  49.481  1.00  0.00     0.056 C 
HETATM   17  F1  UNL     1      24.171   2.719  49.348  1.00  0.00    -0.239 F 
HETATM   18  C20 UNL     1      24.693   3.662  51.405  1.00  0.00     0.083 C 
ENDBRANCH   8   9
ENDBRANCH   7   8
BRANCH   5  19
HETATM   19  C5  UNL     1      26.989  -1.240  53.336  1.00  0.00     0.017 C 
HETATM   20  C6  UNL     1      26.785  -2.008  52.044  1.00  0.00     0.015 C 
BRANCH  19  21
HETATM   21  C7  UNL     1      28.121  -0.270  53.249  1.00  0.00     0.007 A 
HETATM   22  C8  UNL     1      29.464  -0.525  53.776  1.00  0.00     0.020 A 
HETATM   23  C9  UNL     1      28.552   0.515  54.413  1.00  0.00     0.083 A 
BRANCH  23  24
HETATM   24  C10 UNL     1      29.025   1.912  54.273  1.00  0.00     0.220 C 
HETATM   25  N2  UNL     1      28.476   2.761  53.279  1.00  0.00    -0.370 N 
HETATM   26  H14 UNL     1      27.942   3.362  52.615  1.00  0.00     0.159 HD
HETATM   27  H15 UNL     1      28.582   3.367  52.446  1.00  0.00     0.159 HD
HETATM   28  O1  UNL     1      29.911   2.410  55.005  1.00  0.00    -0.273 OA
ENDBRANCH  23  24
ENDBRANCH  19  21
ENDBRANCH   5  19
TORSDOF 5
ENDMDL
MODEL 4
REMARK VINA RESULT:      -8.4      3.062      4.856
REMARK  5 active torsions:
REMARK  status: ('A' for Active; 'I' for Inactive)
REMARK    1  A    between atoms: C4_5  and  C5_6 
REMARK    2  A    between atoms: C5_6  and  C7_8 
REMARK    3  A    between atoms: C9_10  and  C10_11 
REMARK       I    between atoms: C10_11  and  N2_12 
REMARK    4  A    between atoms: C12_15  and  O2_16 
REMARK    5  A    between atoms: O2_16  and  C13_17 
ROOT
HETATM    1  C1  UNL     1      20.841   0.420  51.444  1.00  0.00     0.068 C 
HETATM    2  C2  UNL     1      22.108   0.505  52.243  1.00  0.00     0.035 C 
HETATM    3  N1  UNL     1      22.723  -0.519  52.765  1.00  0.00    -0.292 NA
HETATM    4  C3  UNL     1      23.951  -0.298  53.521  1.00  0.00     0.183 C 
HETATM    5  C4  UNL     1      24.882   0.403  52.605  1.00  0.00    -0.057 C 
HETATM    6  C11 UNL     1      24.248   1.498  52.114  1.00  0.00     0.015 C 
HETATM    7  C12 UNL     1      22.826   1.803  52.535  1.00  0.00     0.192 C 
ENDROOT
BRANCH   7   8
HETATM    8  O2  UNL     1      22.343   2.767  51.714  1.00  0.00    -0.367 OA
BRANCH   8   9
HETATM    9  C13 UNL     1      23.273   3.492  50.997  1.00  0.00     0.150 C 
HETATM   10  C14 UNL     1      23.077   4.934  50.989  1.00  0.00     0.029 C 
HETATM   11  C15 UNL     1      22.932   5.943  50.122  1.00  0.00     0.032 C 
HETATM   12 CL1  UNL     1      22.710   7.615  50.681  1.00  0.00    -0.085 Cl
HETATM   13  C16 UNL     1      22.952   5.707  48.677  1.00  0.00     0.023 C 
HETATM   14  C17 UNL     1      22.717   4.591  47.972  1.00  0.00     0.017 C 
HETATM   15  C18 UNL     1      22.366   3.293  48.620  1.00  0.00     0.120 C 
HETATM   16  C19 UNL     1      22.191   2.213  47.584  1.00  0.00     0.056 C 
HETATM   17  F1  UNL     1      21.139   3.423  49.285  1.00  0.00    -0.239 F 
HETATM   18  C20 UNL     1      23.362   2.852  49.641  1.00  0.00     0.083 C 
ENDBRANCH   8   9
ENDBRANCH   7   8
BRANCH   5  19
HETATM   19  C5  UNL     1      26.280   0.156  52.157  1.00  0.00     0.017 C 
HETATM   20  C6  UNL     1      26.875   1.518  51.853  1.00  0.00     0.015 C 
BRANCH  19  21
HETATM   21  C7  UNL     1      27.081  -0.602  53.164  1.00  0.00     0.007 A 
HETATM   22  C8  UNL     1      27.761   0.013  54.305  1.00  0.00     0.020 A 
HETATM   23  C9  UNL     1      28.550  -0.584  53.148  1.00  0.00     0.083 A 
BRANCH  23  24
HETATM   24  C10 UNL     1      29.342  -1.785  53.502  1.00  0.00     0.220 C 
HETATM   25  N2  UNL     1      28.835  -3.084  53.247  1.00  0.00    -0.370 N 
HETATM   26  H14 UNL     1      28.456  -3.998  52.918  1.00  0.00     0.159 HD
HETATM   27  H15 UNL     1      28.545  -4.023  53.574  1.00  0.00     0.159 HD
HETATM   28  O1  UNL     1      30.476  -1.723  54.031  1.00  0.00    -0.273 OA
ENDBRANCH  23  24
ENDBRANCH  19  21
ENDBRANCH   5  19
TORSDOF 5
ENDMDL
MODEL 5
REMARK VINA RESULT:      -8.3      3.479      6.695
REMARK  5 active torsions:
REMARK  status: ('A' for Active; 'I' for Inactive)
REMARK    1  A    between atoms: C4_5  and  C5_6 
REMARK    2  A    between atoms: C5_6  and  C7_8 
REMARK    3  A    between atoms: C9_10  and  C10_11 
REMARK       I    between atoms: C10_11  and  N2_12 
REMARK    4  A    between atoms: C12_15  and  O2_16 
REMARK    5  A    between atoms: O2_16  and  C13_17 
ROOT
HETATM    1  C1  UNL     1      28.449   2.488  53.419  1.00  0.00     0.068 C 
HETATM    2  C2  UNL     1      27.611   1.326  52.974  1.00  0.00     0.035 C 
HETATM    3  N1  UNL     1      27.623   0.149  53.535  1.00  0.00    -0.292 NA
HETATM    4  C3  UNL     1      26.757  -0.897  53.004  1.00  0.00     0.183 C 
HETATM    5  C4  UNL     1      25.377  -0.358  53.053  1.00  0.00    -0.057 C 
HETATM    6  C11 UNL     1      25.369   0.841  52.415  1.00  0.00     0.015 C 
HETATM    7  C12 UNL     1      26.646   1.388  51.813  1.00  0.00     0.192 C 
ENDROOT
BRANCH   7   8
HETATM    8  O2  UNL     1      26.432   2.686  51.488  1.00  0.00    -0.367 OA
BRANCH   8   9
HETATM    9  C13 UNL     1      26.141   2.953  50.166  1.00  0.00     0.150 C 
HETATM   10  C14 UNL     1      26.943   3.996  49.543  1.00  0.00     0.029 C 
HETATM   11  C15 UNL     1      26.789   5.153  48.889  1.00  0.00     0.032 C 
HETATM   12 CL1  UNL     1      28.190   6.079  48.309  1.00  0.00    -0.085 Cl
HETATM   13  C16 UNL     1      25.457   5.701  48.625  1.00  0.00     0.023 C 
HETATM   14  C17 UNL     1      24.284   5.472  49.233  1.00  0.00     0.017 C 
HETATM   15  C18 UNL     1      24.147   4.531  50.383  1.00  0.00     0.120 C 
HETATM   16  C19 UNL     1      22.712   4.453  50.837  1.00  0.00     0.056 C 
HETATM   17  F1  UNL     1      24.893   5.012  51.468  1.00  0.00    -0.239 F 
HETATM   18  C20 UNL     1      24.655   3.159  50.088  1.00  0.00     0.083 C 
ENDBRANCH   8   9
ENDBRANCH   7   8
BRANCH   5  19
HETATM   19  C5  UNL     1      24.091  -0.847  53.621  1.00  0.00     0.017 C 
HETATM   20  C6  UNL     1      24.302  -0.957  55.119  1.00  0.00     0.015 C 
BRANCH  19  21
HETATM   21  C7  UNL     1      22.937   0.034  53.273  1.00  0.00     0.007 A 
HETATM   22  C8  UNL     1      21.664   0.045  53.997  1.00  0.00     0.020 A 
HETATM   23  C9  UNL     1      21.755  -0.489  52.574  1.00  0.00     0.083 A 
BRANCH  23  24
HETATM   24  C10 UNL     1      21.029   0.322  51.568  1.00  0.00     0.220 C 
HETATM   25  N2  UNL     1      21.734   0.983  50.531  1.00  0.00    -0.370 N 
HETATM   26  H14 UNL     1      22.301   1.335  49.730  1.00  0.00     0.159 HD
HETATM   27  H15 UNL     1      22.001   1.846  50.026  1.00  0.00     0.159 HD
HETATM   28  O1  UNL     1      19.784   0.464  51.575  1.00  0.00    -0.273 OA
ENDBRANCH  23  24
ENDBRANCH  19  21
ENDBRANCH   5  19
TORSDOF 5
ENDMDL
MODEL 6
REMARK VINA RESULT:      -8.2      2.599      4.165
REMARK  5 active torsions:
REMARK  status: ('A' for Active; 'I' for Inactive)
REMARK    1  A    between atoms: C4_5  and  C5_6 
REMARK    2  A    between atoms: C5_6  and  C7_8 
REMARK    3  A    between atoms: C9_10  and  C10_11 
REMARK       I    between atoms: C10_11  and  N2_12 
REMARK    4  A    between atoms: C12_15  and  O2_16 
REMARK    5  A    between atoms: O2_16  and  C13_17 
ROOT
HETATM    1  C1  UNL     1      19.730  -1.617  53.944  1.00  0.00     0.068 C 
HETATM    2  C2  UNL     1      21.093  -1.064  54.241  1.00  0.00     0.035 C 
HETATM    3  N1  UNL     1      22.091  -1.765  54.701  1.00  0.00    -0.292 NA
HETATM    4  C3  UNL     1      23.367  -1.104  54.948  1.00  0.00     0.183 C 
HETATM    5  C4  UNL     1      23.769  -0.485  53.662  1.00  0.00    -0.057 C 
HETATM    6  C11 UNL     1      22.742   0.288  53.225  1.00  0.00     0.015 C 
HETATM    7  C12 UNL     1      21.469   0.386  54.038  1.00  0.00     0.192 C 
ENDROOT
BRANCH   7   8
HETATM    8  O2  UNL     1      20.525   0.981  53.268  1.00  0.00    -0.367 OA
BRANCH   8   9
HETATM    9  C13 UNL     1      20.902   1.333  51.989  1.00  0.00     0.150 C 
HETATM   10  C14 UNL     1      21.004   2.762  51.733  1.00  0.00     0.029 C 
HETATM   11  C15 UNL     1      20.525   3.690  50.895  1.00  0.00     0.032 C 
HETATM   12 CL1  UNL     1      21.006   5.395  51.032  1.00  0.00    -0.085 Cl
HETATM   13  C16 UNL     1      19.585   3.333  49.830  1.00  0.00     0.023 C 
HETATM   14  C17 UNL     1      18.766   2.279  49.707  1.00  0.00     0.017 C 
HETATM   15  C18 UNL     1      18.681   1.205  50.740  1.00  0.00     0.120 C 
HETATM   16  C19 UNL     1      17.703   0.138  50.316  1.00  0.00     0.056 C 
HETATM   17  F1  UNL     1      18.198   1.749  51.938  1.00  0.00    -0.239 F 
HETATM   18  C20 UNL     1      20.000   0.580  51.054  1.00  0.00     0.083 C 
ENDBRANCH   8   9
ENDBRANCH   7   8
BRANCH   5  19
HETATM   19  C5  UNL     1      24.998  -0.540  52.822  1.00  0.00     0.017 C 
HETATM   20  C6  UNL     1      25.159   0.841  52.216  1.00  0.00     0.015 C 
BRANCH  19  21
HETATM   21  C7  UNL     1      26.202  -0.968  53.593  1.00  0.00     0.007 A 
HETATM   22  C8  UNL     1      27.044  -0.058  54.374  1.00  0.00     0.020 A 
HETATM   23  C9  UNL     1      27.561  -0.710  53.098  1.00  0.00     0.083 A 
BRANCH  23  24
HETATM   24  C10 UNL     1      28.660  -1.682  53.309  1.00  0.00     0.220 C 
HETATM   25  N2  UNL     1      28.431  -3.072  53.151  1.00  0.00    -0.370 N 
HETATM   26  H14 UNL     1      28.223  -4.061  52.896  1.00  0.00     0.159 HD
HETATM   27  H15 UNL     1      28.427  -4.037  53.525  1.00  0.00     0.159 HD
HETATM   28  O1  UNL     1      29.821  -1.341  53.629  1.00  0.00    -0.273 OA
ENDBRANCH  23  24
ENDBRANCH  19  21
ENDBRANCH   5  19
TORSDOF 5
ENDMDL
MODEL 7
REMARK VINA RESULT:      -8.2      3.684      6.105
REMARK  5 active torsions:
REMARK  status: ('A' for Active; 'I' for Inactive)
REMARK    1  A    between atoms: C4_5  and  C5_6 
REMARK    2  A    between atoms: C5_6  and  C7_8 
REMARK    3  A    between atoms: C9_10  and  C10_11 
REMARK       I    between atoms: C10_11  and  N2_12 
REMARK    4  A    between atoms: C12_15  and  O2_16 
REMARK    5  A    between atoms: O2_16  and  C13_17 
ROOT
HETATM    1  C1  UNL     1      21.370   3.118  52.326  1.00  0.00     0.068 C 
HETATM    2  C2  UNL     1      22.057   3.212  50.996  1.00  0.00     0.035 C 
HETATM    3  N1  UNL     1      21.550   3.785  49.940  1.00  0.00    -0.292 NA
HETATM    4  C3  UNL     1      22.325   3.808  48.705  1.00  0.00     0.183 C 
HETATM    5  C4  UNL     1      23.611   4.466  49.035  1.00  0.00    -0.057 C 
HETATM    6  C11 UNL     1      24.155   3.823  50.099  1.00  0.00     0.015 C 
HETATM    7  C12 UNL     1      23.433   2.648  50.725  1.00  0.00     0.192 C 
ENDROOT
BRANCH   7   8
HETATM    8  O2  UNL     1      24.034   2.368  51.907  1.00  0.00    -0.367 OA
BRANCH   8   9
HETATM    9  C13 UNL     1      24.543   1.095  52.057  1.00  0.00     0.150 C 
HETATM   10  C14 UNL     1      23.906   0.278  53.079  1.00  0.00     0.029 C 
HETATM   11  C15 UNL     1      24.222  -0.424  54.174  1.00  0.00     0.032 C 
HETATM   12 CL1  UNL     1      22.981  -1.285  55.109  1.00  0.00    -0.085 Cl
HETATM   13  C16 UNL     1      25.607  -0.508  54.644  1.00  0.00     0.023 C 
HETATM   14  C17 UNL     1      26.656   0.295  54.415  1.00  0.00     0.017 C 
HETATM   15  C18 UNL     1      26.560   1.516  53.562  1.00  0.00     0.120 C 
HETATM   16  C19 UNL     1      27.900   2.199  53.460  1.00  0.00     0.056 C 
HETATM   17  F1  UNL     1      25.680   2.430  54.157  1.00  0.00    -0.239 F 
HETATM   18  C20 UNL     1      26.031   1.242  52.193  1.00  0.00     0.083 C 
ENDBRANCH   8   9
ENDBRANCH   7   8
BRANCH   5  19
HETATM   19  C5  UNL     1      24.369   5.611  48.460  1.00  0.00     0.017 C 
HETATM   20  C6  UNL     1      23.489   6.834  48.636  1.00  0.00     0.015 C 
BRANCH  19  21
HETATM   21  C7  UNL     1      25.714   5.783  49.085  1.00  0.00     0.007 A 
HETATM   22  C8  UNL     1      26.189   7.034  49.680  1.00  0.00     0.020 A 
HETATM   23  C9  UNL     1      26.797   6.494  48.392  1.00  0.00     0.083 A 
BRANCH  23  24
HETATM   24  C10 UNL     1      28.209   6.062  48.516  1.00  0.00     0.220 C 
HETATM   25  N2  UNL     1      29.228   7.006  48.799  1.00  0.00    -0.370 N 
HETATM   26  H14 UNL     1      29.902   7.730  49.131  1.00  0.00     0.159 HD
HETATM   27  H15 UNL     1      30.114   7.484  48.554  1.00  0.00     0.159 HD
HETATM   28  O1  UNL     1      28.574   4.871  48.383  1.00  0.00    -0.273 OA
ENDBRANCH  23  24
ENDBRANCH  19  21
ENDBRANCH   5  19
TORSDOF 5
ENDMDL
MODEL 8
REMARK VINA RESULT:      -8.0      3.487      6.005
REMARK  5 active torsions:
REMARK  status: ('A' for Active; 'I' for Inactive)
REMARK    1  A    between atoms: C4_5  and  C5_6 
REMARK    2  A    between atoms: C5_6  and  C7_8 
REMARK    3  A    between atoms: C9_10  and  C10_11 
REMARK       I    between atoms: C10_11  and  N2_12 
REMARK    4  A    between atoms: C12_15  and  O2_16 
REMARK    5  A    between atoms: O2_16  and  C13_17 
ROOT
HETATM    1  C1  UNL     1      21.947   1.568  48.407  1.00  0.00     0.068 C 
HETATM    2  C2  UNL     1      21.723   1.543  49.890  1.00  0.00     0.035 C 
HETATM    3  N1  UNL     1      21.117   0.582  50.530  1.00  0.00    -0.292 NA
HETATM    4  C3  UNL     1      20.964   0.681  51.977  1.00  0.00     0.183 C 
HETATM    5  C4  UNL     1      22.331   0.835  52.528  1.00  0.00    -0.057 C 
HETATM    6  C11 UNL     1      22.929   1.875  51.893  1.00  0.00     0.015 C 
HETATM    7  C12 UNL     1      22.181   2.641  50.823  1.00  0.00     0.192 C 
ENDROOT
BRANCH   7   8
HETATM    8  O2  UNL     1      23.071   3.428  50.171  1.00  0.00    -0.367 OA
BRANCH   8   9
HETATM    9  C13 UNL     1      23.598   4.486  50.882  1.00  0.00     0.150 C 
HETATM   10  C14 UNL     1      22.977   5.780  50.640  1.00  0.00     0.029 C 
HETATM   11  C15 UNL     1      23.307   7.021  50.263  1.00  0.00     0.032 C 
HETATM   12 CL1  UNL     1      22.082   8.299  50.120  1.00  0.00    -0.085 Cl
HETATM   13  C16 UNL     1      24.695   7.372  49.952  1.00  0.00     0.023 C 
HETATM   14  C17 UNL     1      25.732   6.599  49.598  1.00  0.00     0.017 C 
HETATM   15  C18 UNL     1      25.615   5.119  49.452  1.00  0.00     0.120 C 
HETATM   16  C19 UNL     1      26.945   4.516  49.077  1.00  0.00     0.056 C 
HETATM   17  F1  UNL     1      24.724   4.823  48.411  1.00  0.00    -0.239 F 
HETATM   18  C20 UNL     1      25.085   4.444  50.674  1.00  0.00     0.083 C 
ENDBRANCH   8   9
ENDBRANCH   7   8
BRANCH   5  19
HETATM   19  C5  UNL     1      23.115   0.123  53.575  1.00  0.00     0.017 C 
HETATM   20  C6  UNL     1      22.631  -1.315  53.563  1.00  0.00     0.015 C 
BRANCH  19  21
HETATM   21  C7  UNL     1      24.589   0.228  53.361  1.00  0.00     0.007 A 
HETATM   22  C8  UNL     1      25.451  -0.903  53.012  1.00  0.00     0.020 A 
HETATM   23  C9  UNL     1      25.547  -0.231  54.376  1.00  0.00     0.083 A 
BRANCH  23  24
HETATM   24  C10 UNL     1      26.821   0.485  54.617  1.00  0.00     0.220 C 
HETATM   25  N2  UNL     1      27.986  -0.227  54.999  1.00  0.00    -0.370 N 
HETATM   26  H14 UNL     1      28.826  -0.825  55.153  1.00  0.00     0.159 HD
HETATM   27  H15 UNL     1      28.758  -0.410  55.665  1.00  0.00     0.159 HD
HETATM   28  O1  UNL     1      26.940   1.727  54.500  1.00  0.00    -0.273 OA
ENDBRANCH  23  24
ENDBRANCH  19  21
ENDBRANCH   5  19
TORSDOF 5
ENDMDL
MODEL 9
REMARK VINA RESULT:      -8.0      4.354      7.208
REMARK  5 active torsions:
REMARK  status: ('A' for Active; 'I' for Inactive)
REMARK    1  A    between atoms: C4_5  and  C5_6 
REMARK    2  A    between atoms: C5_6  and  C7_8 
REMARK    3  A    between atoms: C9_10  and  C10_11 
REMARK       I    between atoms: C10_11  and  N2_12 
REMARK    4  A    between atoms: C12_15  and  O2_16 
REMARK    5  A    between atoms: O2_16  and  C13_17 
ROOT
HETATM    1  C1  UNL     1      23.339   4.665  52.830  1.00  0.00     0.068 C 
HETATM    2  C2  UNL     1      23.664   4.770  51.369  1.00  0.00     0.035 C 
HETATM    3  N1  UNL     1      23.136   5.639  50.554  1.00  0.00    -0.292 NA
HETATM    4  C3  UNL     1      23.540   5.635  49.153  1.00  0.00     0.183 C 
HETATM    5  C4  UNL     1      25.013   5.806  49.146  1.00  0.00    -0.057 C 
HETATM    6  C11 UNL     1      25.553   4.858  49.953  1.00  0.00     0.015 C 
HETATM    7  C12 UNL     1      24.655   3.869  50.667  1.00  0.00     0.192 C 
ENDROOT
BRANCH   7   8
HETATM    8  O2  UNL     1      25.400   3.225  51.599  1.00  0.00    -0.367 OA
BRANCH   8   9
HETATM    9  C13 UNL     1      25.447   1.849  51.509  1.00  0.00     0.150 C 
HETATM   10  C14 UNL     1      24.393   1.135  52.213  1.00  0.00     0.029 C 
HETATM   11  C15 UNL     1      24.244   0.183  53.142  1.00  0.00     0.032 C 
HETATM   12 CL1  UNL     1      22.632  -0.348  53.670  1.00  0.00    -0.085 Cl
HETATM   13  C16 UNL     1      25.406  -0.458  53.761  1.00  0.00     0.023 C 
HETATM   14  C17 UNL     1      26.676  -0.041  53.873  1.00  0.00     0.017 C 
HETATM   15  C18 UNL     1      27.139   1.270  53.329  1.00  0.00     0.120 C 
HETATM   16  C19 UNL     1      28.615   1.453  53.575  1.00  0.00     0.056 C 
HETATM   17  F1  UNL     1      26.482   2.310  54.000  1.00  0.00    -0.239 F 
HETATM   18  C20 UNL     1      26.847   1.445  51.876  1.00  0.00     0.083 C 
ENDBRANCH   8   9
ENDBRANCH   7   8
BRANCH   5  19
HETATM   19  C5  UNL     1      25.945   6.748  48.467  1.00  0.00     0.017 C 
HETATM   20  C6  UNL     1      25.169   7.357  47.315  1.00  0.00     0.015 C 
BRANCH  19  21
HETATM   21  C7  UNL     1      26.494   7.782  49.394  1.00  0.00     0.007 A 
HETATM   22  C8  UNL     1      25.679   8.795  50.069  1.00  0.00     0.020 A 
HETATM   23  C9  UNL     1      26.663   9.179  48.971  1.00  0.00     0.083 A 
BRANCH  23  24
HETATM   24  C10 UNL     1      27.810   9.994  49.435  1.00  0.00     0.220 C 
HETATM   25  N2  UNL     1      28.946   9.374  50.015  1.00  0.00    -0.370 N 
HETATM   26  H14 UNL     1      29.794   8.846  50.313  1.00  0.00     0.159 HD
HETATM   27  H15 UNL     1      29.602   9.245  50.805  1.00  0.00     0.159 HD
HETATM   28  O1  UNL     1      27.842  11.243  49.342  1.00  0.00    -0.273 OA
ENDBRANCH  23  24
ENDBRANCH  19  21
ENDBRANCH   5  19
TORSDOF 5
ENDMDL
