MODEL 1
REMARK VINA RESULT:      -7.4      0.000      0.000
REMARK  2 active torsions:
REMARK  status: ('A' for Active; 'I' for Inactive)
REMARK    1  A    between atoms: C2_2  and  N1_3 
REMARK    2  A    between atoms: C11_16  and  C12_17 
ROOT
HETATM    1  N1  UNL     1      22.415   5.654  49.760  1.00  0.00    -0.349 N 
HETATM    2  C3  UNL     1      20.979   5.664  49.516  1.00  0.00     0.226 C 
HETATM    3  N2  UNL     1      20.952   4.468  49.973  1.00  0.00    -0.058 NA
HETATM    4  C4  UNL     1      19.748   3.743  50.049  1.00  0.00     0.723 C 
HETATM    5  N3  UNL     1      20.105   2.818  49.305  1.00  0.00    -0.066 NA
HETATM    6  C5  UNL     1      21.250   2.512  48.612  1.00  0.00     0.071 C 
HETATM    7  C6  UNL     1      21.459   2.940  47.393  1.00  0.00     0.017 C 
HETATM    8  P1  UNL     1      22.288   4.356  47.467  1.00  0.00     0.002 P 
HETATM    9  C7  UNL     1      23.353   4.857  48.947  1.00  0.00     0.222 C 
HETATM   10  N4  UNL     1      23.752   3.664  49.676  1.00  0.00    -0.367 N 
HETATM   11  C8  UNL     1      23.212   2.418  50.172  1.00  0.00     0.013 C 
HETATM   12  C9  UNL     1      23.753   1.944  51.291  1.00  0.00     0.032 C 
HETATM   13  C10 UNL     1      23.990   1.048  52.436  1.00  0.00    -0.059 C 
HETATM   14  C11 UNL     1      25.006   1.392  53.304  1.00  0.00    -0.005 C 
HETATM   15  C13 UNL     1      23.382  -0.236  52.750  1.00  0.00     0.038 C 
HETATM   16  C14 UNL     1      22.037  -0.430  53.285  1.00  0.00     0.005 C 
HETATM   17  C15 UNL     1      20.796   0.080  52.666  1.00  0.00     0.000 C 
HETATM   18  C16 UNL     1      20.574   1.538  52.772  1.00  0.00     0.002 C 
HETATM   19  C17 UNL     1      19.443   2.055  51.901  1.00  0.00     0.020 C 
HETATM   20  C18 UNL     1      19.337   3.542  51.987  1.00  0.00     0.138 C 
HETATM   21  N5  UNL     1      18.647   4.145  50.863  1.00  0.00    -0.222 N 
HETATM   22  C19 UNL     1      22.169   1.680  49.411  1.00  0.00     0.117 C 
HETATM   23  H8  UNL     1      24.784   3.713  49.944  1.00  0.00     0.161 HD
HETATM   24  H25 UNL     1      18.140   4.578  50.078  1.00  0.00     0.177 HD
ENDROOT
BRANCH  14  25
HETATM   25  C12 UNL     1      26.129   2.195  53.846  1.00  0.00     0.142 C 
HETATM   26 CL1  UNL     1      27.486   2.177  52.693  1.00  0.00    -0.126 Cl
ENDBRANCH  14  25
BRANCH   1  27
HETATM   27  C2  UNL     1      22.790   6.485  50.855  1.00  0.00     0.121 C 
HETATM   28  C1  UNL     1      23.446   7.778  50.440  1.00  0.00     0.026 C 
ENDBRANCH   1  27
TORSDOF 2
ENDMDL
MODEL 2
REMARK VINA RESULT:      -7.0      2.716      5.048
REMARK  2 active torsions:
REMARK  status: ('A' for Active; 'I' for Inactive)
REMARK    1  A    between atoms: C2_2  and  N1_3 
REMARK    2  A    between atoms: C11_16  and  C12_17 
ROOT
HETATM    1  N1  UNL     1      22.581   5.583  48.065  1.00  0.00    -0.349 N 
HETATM    2  C3  UNL     1      23.948   6.073  47.946  1.00  0.00     0.226 C 
HETATM    3  N2  UNL     1      24.219   5.396  48.999  1.00  0.00    -0.058 NA
HETATM    4  C4  UNL     1      25.515   5.388  49.546  1.00  0.00     0.723 C 
HETATM    5  N3  UNL     1      25.194   5.856  50.649  1.00  0.00    -0.066 NA
HETATM    6  C5  UNL     1      24.018   6.261  51.230  1.00  0.00     0.071 C 
HETATM    7  C6  UNL     1      23.571   7.484  51.112  1.00  0.00     0.017 C 
HETATM    8  P1  UNL     1      22.561   7.553  49.818  1.00  0.00     0.002 P 
HETATM    9  C7  UNL     1      21.663   6.041  49.125  1.00  0.00     0.222 C 
HETATM   10  N4  UNL     1      21.557   5.028  50.162  1.00  0.00    -0.367 N 
HETATM   11  C8  UNL     1      22.344   4.394  51.196  1.00  0.00     0.013 C 
HETATM   12  C9  UNL     1      22.050   3.125  51.466  1.00  0.00     0.032 C 
HETATM   13  C10 UNL     1      22.119   1.799  52.105  1.00  0.00    -0.059 C 
HETATM   14  C11 UNL     1      21.202   0.854  51.694  1.00  0.00    -0.005 C 
HETATM   15  C13 UNL     1      22.951   1.345  53.210  1.00  0.00     0.038 C 
HETATM   16  C14 UNL     1      24.374   1.026  53.124  1.00  0.00     0.005 C 
HETATM   17  C15 UNL     1      25.421   1.944  52.628  1.00  0.00     0.000 C 
HETATM   18  C16 UNL     1      25.437   2.174  51.167  1.00  0.00     0.002 C 
HETATM   19  C17 UNL     1      26.337   3.317  50.733  1.00  0.00     0.020 C 
HETATM   20  C18 UNL     1      26.232   3.553  49.262  1.00  0.00     0.138 C 
HETATM   21  N5  UNL     1      26.652   4.878  48.851  1.00  0.00    -0.222 N 
HETATM   22  C19 UNL     1      23.361   5.161  51.962  1.00  0.00     0.117 C 
HETATM   23  H8  UNL     1      20.580   4.598  50.172  1.00  0.00     0.161 HD
HETATM   24  H25 UNL     1      26.968   5.811  48.549  1.00  0.00     0.177 HD
ENDROOT
BRANCH  14  25
HETATM   25  C12 UNL     1      20.065   0.296  50.923  1.00  0.00     0.142 C 
HETATM   26 CL1  UNL     1      18.746  -0.138  52.038  1.00  0.00    -0.126 Cl
ENDBRANCH  14  25
BRANCH   1  27
HETATM   27  C2  UNL     1      22.251   4.630  47.058  1.00  0.00     0.121 C 
HETATM   28  C1  UNL     1      21.969   5.242  45.710  1.00  0.00     0.026 C 
ENDBRANCH   1  27
TORSDOF 2
ENDMDL
MODEL 3
REMARK VINA RESULT:      -6.9     10.262     13.157
REMARK  2 active torsions:
REMARK  status: ('A' for Active; 'I' for Inactive)
REMARK    1  A    between atoms: C2_2  and  N1_3 
REMARK    2  A    between atoms: C11_16  and  C12_17 
ROOT
HETATM    1  N1  UNL     1      33.071   4.243  47.369  1.00  0.00    -0.349 N 
HETATM    2  C3  UNL     1      32.368   4.781  48.526  1.00  0.00     0.226 C 
HETATM    3  N2  UNL     1      32.157   5.836  47.833  1.00  0.00    -0.058 NA
HETATM    4  C4  UNL     1      31.447   6.928  48.366  1.00  0.00     0.723 C 
HETATM    5  N3  UNL     1      32.366   7.752  48.248  1.00  0.00    -0.066 NA
HETATM    6  C5  UNL     1      33.652   7.714  47.770  1.00  0.00     0.071 C 
HETATM    7  C6  UNL     1      34.667   7.401  48.534  1.00  0.00     0.017 C 
HETATM    8  P1  UNL     1      34.937   5.785  48.417  1.00  0.00     0.002 P 
HETATM    9  C7  UNL     1      34.387   4.748  46.935  1.00  0.00     0.222 C 
HETATM   10  N4  UNL     1      34.229   5.613  45.777  1.00  0.00    -0.367 N 
HETATM   11  C8  UNL     1      33.676   6.895  45.400  1.00  0.00     0.013 C 
HETATM   12  C9  UNL     1      33.208   6.993  44.158  1.00  0.00     0.032 C 
HETATM   13  C10 UNL     1      32.589   7.587  42.961  1.00  0.00    -0.059 C 
HETATM   14  C11 UNL     1      32.503   6.792  41.837  1.00  0.00    -0.005 C 
HETATM   15  C13 UNL     1      32.139   8.952  42.731  1.00  0.00     0.038 C 
HETATM   16  C14 UNL     1      30.916   9.544  43.267  1.00  0.00     0.005 C 
HETATM   17  C15 UNL     1      30.558   9.599  44.700  1.00  0.00     0.000 C 
HETATM   18  C16 UNL     1      30.145   8.317  45.310  1.00  0.00     0.002 C 
HETATM   19  C17 UNL     1      30.049   8.358  46.825  1.00  0.00     0.020 C 
HETATM   20  C18 UNL     1      29.720   7.011  47.378  1.00  0.00     0.138 C 
HETATM   21  N5  UNL     1      30.082   6.847  48.772  1.00  0.00    -0.222 N 
HETATM   22  C19 UNL     1      33.715   8.050  46.335  1.00  0.00     0.117 C 
HETATM   23  H8  UNL     1      34.656   5.162  44.908  1.00  0.00     0.161 HD
HETATM   24  H25 UNL     1      30.316   6.730  49.769  1.00  0.00     0.177 HD
ENDROOT
BRANCH  14  25
HETATM   25  C12 UNL     1      32.674   5.577  41.005  1.00  0.00     0.142 C 
HETATM   26 CL1  UNL     1      33.405   4.282  41.985  1.00  0.00    -0.126 Cl
ENDBRANCH  14  25
BRANCH   1  27
HETATM   27  C2  UNL     1      32.347   3.197  46.726  1.00  0.00     0.121 C 
HETATM   28  C1  UNL     1      32.804   1.814  47.113  1.00  0.00     0.026 C 
ENDBRANCH   1  27
TORSDOF 2
ENDMDL
MODEL 4
REMARK VINA RESULT:      -6.9      2.374      3.664
REMARK  2 active torsions:
REMARK  status: ('A' for Active; 'I' for Inactive)
REMARK    1  A    between atoms: C2_2  and  N1_3 
REMARK    2  A    between atoms: C11_16  and  C12_17 
ROOT
HETATM    1  N1  UNL     1      20.362   5.964  49.230  1.00  0.00    -0.349 N 
HETATM    2  C3  UNL     1      19.558   5.096  50.080  1.00  0.00     0.226 C 
HETATM    3  N2  UNL     1      20.604   4.371  50.229  1.00  0.00    -0.058 NA
HETATM    4  C4  UNL     1      20.578   3.209  51.022  1.00  0.00     0.723 C 
HETATM    5  N3  UNL     1      20.888   2.424  50.114  1.00  0.00    -0.066 NA
HETATM    6  C5  UNL     1      21.182   2.547  48.778  1.00  0.00     0.071 C 
HETATM    7  C6  UNL     1      20.254   2.502  47.857  1.00  0.00     0.017 C 
HETATM    8  P1  UNL     1      19.751   4.033  47.540  1.00  0.00     0.002 P 
HETATM    9  C7  UNL     1      20.809   5.562  47.883  1.00  0.00     0.222 C 
HETATM   10  N4  UNL     1      22.211   5.178  47.918  1.00  0.00    -0.367 N 
HETATM   11  C8  UNL     1      23.080   4.153  48.450  1.00  0.00     0.013 C 
HETATM   12  C9  UNL     1      24.316   4.533  48.765  1.00  0.00     0.032 C 
HETATM   13  C10 UNL     1      25.705   4.444  49.248  1.00  0.00    -0.059 C 
HETATM   14  C11 UNL     1      26.469   5.590  49.179  1.00  0.00    -0.005 C 
HETATM   15  C13 UNL     1      26.458   3.282  49.696  1.00  0.00     0.038 C 
HETATM   16  C14 UNL     1      26.303   2.618  50.988  1.00  0.00     0.005 C 
HETATM   17  C15 UNL     1      25.033   2.080  51.518  1.00  0.00     0.000 C 
HETATM   18  C16 UNL     1      24.048   3.084  51.974  1.00  0.00     0.002 C 
HETATM   19  C17 UNL     1      22.669   2.514  52.253  1.00  0.00     0.020 C 
HETATM   20  C18 UNL     1      21.705   3.594  52.617  1.00  0.00     0.138 C 
HETATM   21  N5  UNL     1      20.316   3.228  52.424  1.00  0.00    -0.222 N 
HETATM   22  C19 UNL     1      22.626   2.740  48.550  1.00  0.00     0.117 C 
HETATM   23  H8  UNL     1      22.808   5.880  47.380  1.00  0.00     0.161 HD
HETATM   24  H25 UNL     1      19.326   2.968  52.310  1.00  0.00     0.177 HD
ENDROOT
BRANCH  14  25
HETATM   25  C12 UNL     1      26.784   7.009  48.883  1.00  0.00     0.142 C 
HETATM   26 CL1  UNL     1      28.123   7.090  47.711  1.00  0.00    -0.126 Cl
ENDBRANCH  14  25
BRANCH   1  27
HETATM   27  C2  UNL     1      20.658   7.213  49.848  1.00  0.00     0.121 C 
HETATM   28  C1  UNL     1      22.006   7.254  50.522  1.00  0.00     0.026 C 
ENDBRANCH   1  27
TORSDOF 2
ENDMDL
MODEL 5
REMARK VINA RESULT:      -6.8      9.431     11.939
REMARK  2 active torsions:
REMARK  status: ('A' for Active; 'I' for Inactive)
REMARK    1  A    between atoms: C2_2  and  N1_3 
REMARK    2  A    between atoms: C11_16  and  C12_17 
ROOT
HETATM    1  N1  UNL     1      28.794   8.907  46.384  1.00  0.00    -0.349 N 
HETATM    2  C3  UNL     1      29.166  10.315  46.421  1.00  0.00     0.226 C 
HETATM    3  N2  UNL     1      30.273   9.948  46.951  1.00  0.00    -0.058 NA
HETATM    4  C4  UNL     1      31.257  10.888  47.308  1.00  0.00     0.723 C 
HETATM    5  N3  UNL     1      31.271  10.611  48.516  1.00  0.00    -0.066 NA
HETATM    6  C5  UNL     1      30.607   9.715  49.318  1.00  0.00     0.071 C 
HETATM    7  C6  UNL     1      29.462  10.005  49.881  1.00  0.00     0.017 C 
HETATM    8  P1  UNL     1      28.248   9.504  48.895  1.00  0.00     0.002 P 
HETATM    9  C7  UNL     1      28.461   8.142  47.600  1.00  0.00     0.222 C 
HETATM   10  N4  UNL     1      29.580   7.293  47.976  1.00  0.00    -0.367 N 
HETATM   11  C8  UNL     1      30.936   7.378  48.469  1.00  0.00     0.013 C 
HETATM   12  C9  UNL     1      31.769   6.419  48.073  1.00  0.00     0.032 C 
HETATM   13  C10 UNL     1      33.015   5.646  47.933  1.00  0.00    -0.059 C 
HETATM   14  C11 UNL     1      32.960   4.496  47.173  1.00  0.00    -0.005 C 
HETATM   15  C13 UNL     1      34.306   5.844  48.575  1.00  0.00     0.038 C 
HETATM   16  C14 UNL     1      35.280   6.874  48.221  1.00  0.00     0.005 C 
HETATM   17  C15 UNL     1      35.004   8.325  48.181  1.00  0.00     0.000 C 
HETATM   18  C16 UNL     1      34.174   8.793  47.050  1.00  0.00     0.002 C 
HETATM   19  C17 UNL     1      33.691  10.225  47.191  1.00  0.00     0.020 C 
HETATM   20  C18 UNL     1      32.785  10.598  46.064  1.00  0.00     0.138 C 
HETATM   21  N5  UNL     1      31.918  11.722  46.358  1.00  0.00    -0.222 N 
HETATM   22  C19 UNL     1      31.335   8.438  49.433  1.00  0.00     0.117 C 
HETATM   23  H8  UNL     1      29.333   6.263  47.845  1.00  0.00     0.161 HD
HETATM   24  H25 UNL     1      31.314  12.534  46.552  1.00  0.00     0.177 HD
ENDROOT
BRANCH  14  25
HETATM   25  C12 UNL     1      32.348   3.447  46.322  1.00  0.00     0.142 C 
HETATM   26 CL1  UNL     1      32.715   1.841  47.000  1.00  0.00    -0.126 Cl
ENDBRANCH  14  25
BRANCH   1  27
HETATM   27  C2  UNL     1      28.795   8.375  45.062  1.00  0.00     0.121 C 
HETATM   28  C1  UNL     1      27.500   8.587  44.320  1.00  0.00     0.026 C 
ENDBRANCH   1  27
TORSDOF 2
ENDMDL
MODEL 6
REMARK VINA RESULT:      -6.7      3.092      6.422
REMARK  2 active torsions:
REMARK  status: ('A' for Active; 'I' for Inactive)
REMARK    1  A    between atoms: C2_2  and  N1_3 
REMARK    2  A    between atoms: C11_16  and  C12_17 
ROOT
HETATM    1  N1  UNL     1      22.383   3.602  52.073  1.00  0.00    -0.349 N 
HETATM    2  C3  UNL     1      23.233   4.645  52.633  1.00  0.00     0.226 C 
HETATM    3  N2  UNL     1      23.414   5.058  51.434  1.00  0.00    -0.058 NA
HETATM    4  C4  UNL     1      24.230   6.173  51.163  1.00  0.00     0.723 C 
HETATM    5  N3  UNL     1      25.041   5.569  50.446  1.00  0.00    -0.066 NA
HETATM    6  C5  UNL     1      25.178   4.277  50.004  1.00  0.00     0.071 C 
HETATM    7  C6  UNL     1      25.834   3.376  50.689  1.00  0.00     0.017 C 
HETATM    8  P1  UNL     1      24.776   2.574  51.656  1.00  0.00     0.002 P 
HETATM    9  C7  UNL     1      22.922   2.468  51.299  1.00  0.00     0.222 C 
HETATM   10  N4  UNL     1      22.694   2.684  49.879  1.00  0.00    -0.367 N 
HETATM   11  C8  UNL     1      23.106   3.547  48.795  1.00  0.00     0.013 C 
HETATM   12  C9  UNL     1      22.198   3.782  47.851  1.00  0.00     0.032 C 
HETATM   13  C10 UNL     1      21.595   4.329  46.623  1.00  0.00    -0.059 C 
HETATM   14  C11 UNL     1      20.305   3.939  46.328  1.00  0.00    -0.005 C 
HETATM   15  C13 UNL     1      22.195   5.150  45.582  1.00  0.00     0.038 C 
HETATM   16  C14 UNL     1      22.490   6.577  45.692  1.00  0.00     0.005 C 
HETATM   17  C15 UNL     1      23.321   7.192  46.748  1.00  0.00     0.000 C 
HETATM   18  C16 UNL     1      22.707   7.268  48.090  1.00  0.00     0.002 C 
HETATM   19  C17 UNL     1      23.678   7.650  49.192  1.00  0.00     0.020 C 
HETATM   20  C18 UNL     1      23.014   7.616  50.529  1.00  0.00     0.138 C 
HETATM   21  N5  UNL     1      23.938   7.486  51.638  1.00  0.00    -0.222 N 
HETATM   22  C19 UNL     1      24.498   4.063  48.713  1.00  0.00     0.117 C 
HETATM   23  H8  UNL     1      21.987   1.980  49.499  1.00  0.00     0.161 HD
HETATM   24  H25 UNL     1      24.589   7.415  52.433  1.00  0.00     0.177 HD
ENDROOT
BRANCH  14  25
HETATM   25  C12 UNL     1      19.015   3.229  46.508  1.00  0.00     0.142 C 
HETATM   26 CL1  UNL     1      18.679   3.037  48.246  1.00  0.00    -0.126 Cl
ENDBRANCH  14  25
BRANCH   1  27
HETATM   27  C2  UNL     1      21.002   3.811  52.357  1.00  0.00     0.121 C 
HETATM   28  C1  UNL     1      20.198   2.538  52.437  1.00  0.00     0.026 C 
ENDBRANCH   1  27
TORSDOF 2
ENDMDL
MODEL 7
REMARK VINA RESULT:      -6.5      8.192     11.253
REMARK  2 active torsions:
REMARK  status: ('A' for Active; 'I' for Inactive)
REMARK    1  A    between atoms: C2_2  and  N1_3 
REMARK    2  A    between atoms: C11_16  and  C12_17 
ROOT
HETATM    1  N1  UNL     1      27.610  11.287  47.208  1.00  0.00    -0.349 N 
HETATM    2  C3  UNL     1      28.432  12.063  46.289  1.00  0.00     0.226 C 
HETATM    3  N2  UNL     1      29.309  11.135  46.381  1.00  0.00    -0.058 NA
HETATM    4  C4  UNL     1      30.526  11.209  45.679  1.00  0.00     0.723 C 
HETATM    5  N3  UNL     1      31.256  11.184  46.681  1.00  0.00    -0.066 NA
HETATM    6  C5  UNL     1      31.049  11.103  48.036  1.00  0.00     0.071 C 
HETATM    7  C6  UNL     1      30.873  12.168  48.775  1.00  0.00     0.017 C 
HETATM    8  P1  UNL     1      29.262  12.469  48.890  1.00  0.00     0.002 P 
HETATM    9  C7  UNL     1      27.940  11.142  48.638  1.00  0.00     0.222 C 
HETATM   10  N4  UNL     1      28.522   9.832  48.883  1.00  0.00    -0.367 N 
HETATM   11  C8  UNL     1      29.707   9.058  48.589  1.00  0.00     0.013 C 
HETATM   12  C9  UNL     1      29.539   7.743  48.477  1.00  0.00     0.032 C 
HETATM   13  C10 UNL     1      29.872   6.324  48.261  1.00  0.00    -0.059 C 
HETATM   14  C11 UNL     1      28.845   5.411  48.386  1.00  0.00    -0.005 C 
HETATM   15  C13 UNL     1      31.167   5.699  48.037  1.00  0.00     0.038 C 
HETATM   16  C14 UNL     1      31.923   5.737  46.788  1.00  0.00     0.005 C 
HETATM   17  C15 UNL     1      32.322   6.969  46.075  1.00  0.00     0.000 C 
HETATM   18  C16 UNL     1      31.235   7.692  45.381  1.00  0.00     0.002 C 
HETATM   19  C17 UNL     1      31.628   9.077  44.897  1.00  0.00     0.020 C 
HETATM   20  C18 UNL     1      30.461   9.784  44.291  1.00  0.00     0.138 C 
HETATM   21  N5  UNL     1      30.605  11.226  44.255  1.00  0.00    -0.222 N 
HETATM   22  C19 UNL     1      31.043   9.705  48.507  1.00  0.00     0.117 C 
HETATM   23  H8  UNL     1      27.864   9.231  49.471  1.00  0.00     0.161 HD
HETATM   24  H25 UNL     1      30.708  12.249  44.206  1.00  0.00     0.177 HD
ENDROOT
BRANCH  14  25
HETATM   25  C12 UNL     1      27.464   4.932  48.636  1.00  0.00     0.142 C 
HETATM   26 CL1  UNL     1      26.328   6.299  48.519  1.00  0.00    -0.126 Cl
ENDBRANCH  14  25
BRANCH   1  27
HETATM   27  C2  UNL     1      26.480  10.699  46.569  1.00  0.00     0.121 C 
HETATM   28  C1  UNL     1      25.250  10.644  47.438  1.00  0.00     0.026 C 
ENDBRANCH   1  27
TORSDOF 2
ENDMDL
MODEL 8
REMARK VINA RESULT:      -6.3      8.202     11.260
REMARK  2 active torsions:
REMARK  status: ('A' for Active; 'I' for Inactive)
REMARK    1  A    between atoms: C2_2  and  N1_3 
REMARK    2  A    between atoms: C11_16  and  C12_17 
ROOT
HETATM    1  N1  UNL     1      32.751   8.352  47.299  1.00  0.00    -0.349 N 
HETATM    2  C3  UNL     1      33.033   9.778  47.394  1.00  0.00     0.226 C 
HETATM    3  N2  UNL     1      31.767   9.969  47.385  1.00  0.00    -0.058 NA
HETATM    4  C4  UNL     1      31.225  11.266  47.456  1.00  0.00     0.723 C 
HETATM    5  N3  UNL     1      30.627  11.217  46.371  1.00  0.00    -0.066 NA
HETATM    6  C5  UNL     1      30.477  10.276  45.383  1.00  0.00     0.071 C 
HETATM    7  C6  UNL     1      31.318  10.178  44.385  1.00  0.00     0.017 C 
HETATM    8  P1  UNL     1      32.479   9.085  44.780  1.00  0.00     0.002 P 
HETATM    9  C7  UNL     1      32.226   7.727  46.071  1.00  0.00     0.222 C 
HETATM   10  N4  UNL     1      30.804   7.462  46.218  1.00  0.00    -0.367 N 
HETATM   11  C8  UNL     1      29.540   8.155  46.337  1.00  0.00     0.013 C 
HETATM   12  C9  UNL     1      28.604   7.551  47.066  1.00  0.00     0.032 C 
HETATM   13  C10 UNL     1      27.310   7.321  47.731  1.00  0.00    -0.059 C 
HETATM   14  C11 UNL     1      27.160   6.136  48.421  1.00  0.00    -0.005 C 
HETATM   15  C13 UNL     1      26.091   8.115  47.687  1.00  0.00     0.038 C 
HETATM   16  C14 UNL     1      25.871   9.372  48.397  1.00  0.00     0.005 C 
HETATM   17  C15 UNL     1      26.731  10.570  48.288  1.00  0.00     0.000 C 
HETATM   18  C16 UNL     1      28.048  10.481  48.956  1.00  0.00     0.002 C 
HETATM   19  C17 UNL     1      28.999  11.608  48.597  1.00  0.00     0.020 C 
HETATM   20  C18 UNL     1      30.335  11.405  49.231  1.00  0.00     0.138 C 
HETATM   21  N5  UNL     1      31.408  12.127  48.578  1.00  0.00    -0.222 N 
HETATM   22  C19 UNL     1      29.292   9.427  45.609  1.00  0.00     0.117 C 
HETATM   23  H8  UNL     1      30.617   6.412  46.253  1.00  0.00     0.161 HD
HETATM   24  H25 UNL     1      32.173  12.654  48.132  1.00  0.00     0.177 HD
ENDROOT
BRANCH  14  25
HETATM   25  C12 UNL     1      27.542   4.807  48.957  1.00  0.00     0.142 C 
HETATM   26 CL1  UNL     1      26.075   3.876  49.345  1.00  0.00    -0.126 Cl
ENDBRANCH  14  25
BRANCH   1  27
HETATM   27  C2  UNL     1      33.036   7.656  48.510  1.00  0.00     0.121 C 
HETATM   28  C1  UNL     1      33.818   6.383  48.310  1.00  0.00     0.026 C 
ENDBRANCH   1  27
TORSDOF 2
ENDMDL
MODEL 9
REMARK VINA RESULT:      -6.2     10.268     12.303
REMARK  2 active torsions:
REMARK  status: ('A' for Active; 'I' for Inactive)
REMARK    1  A    between atoms: C2_2  and  N1_3 
REMARK    2  A    between atoms: C11_16  and  C12_17 
ROOT
HETATM    1  N1  UNL     1      31.488  10.967  47.004  1.00  0.00    -0.349 N 
HETATM    2  C3  UNL     1      30.941  10.613  48.308  1.00  0.00     0.226 C 
HETATM    3  N2  UNL     1      31.053   9.387  47.956  1.00  0.00    -0.058 NA
HETATM    4  C4  UNL     1      30.668   8.343  48.819  1.00  0.00     0.723 C 
HETATM    5  N3  UNL     1      29.808   7.863  48.066  1.00  0.00    -0.066 NA
HETATM    6  C5  UNL     1      29.333   8.162  46.814  1.00  0.00     0.071 C 
HETATM    7  C6  UNL     1      28.346   9.000  46.629  1.00  0.00     0.017 C 
HETATM    8  P1  UNL     1      28.968  10.500  46.380  1.00  0.00     0.002 P 
HETATM    9  C7  UNL     1      30.726  10.801  45.752  1.00  0.00     0.222 C 
HETATM   10  N4  UNL     1      31.190   9.621  45.041  1.00  0.00    -0.367 N 
HETATM   11  C8  UNL     1      31.211   8.179  45.152  1.00  0.00     0.013 C 
HETATM   12  C9  UNL     1      32.260   7.562  44.615  1.00  0.00     0.032 C 
HETATM   13  C10 UNL     1      33.156   6.465  44.210  1.00  0.00    -0.059 C 
HETATM   14  C11 UNL     1      34.287   6.807  43.498  1.00  0.00    -0.005 C 
HETATM   15  C13 UNL     1      32.981   5.027  44.348  1.00  0.00     0.038 C 
HETATM   16  C14 UNL     1      33.135   4.269  45.587  1.00  0.00     0.005 C 
HETATM   17  C15 UNL     1      32.408   4.543  46.845  1.00  0.00     0.000 C 
HETATM   18  C16 UNL     1      32.838   5.747  47.588  1.00  0.00     0.002 C 
HETATM   19  C17 UNL     1      31.901   6.143  48.715  1.00  0.00     0.020 C 
HETATM   20  C18 UNL     1      32.345   7.415  49.359  1.00  0.00     0.138 C 
HETATM   21  N5  UNL     1      31.292   8.104  50.079  1.00  0.00    -0.222 N 
HETATM   22  C19 UNL     1      30.072   7.442  45.760  1.00  0.00     0.117 C 
HETATM   23  H8  UNL     1      31.684   9.896  44.136  1.00  0.00     0.161 HD
HETATM   24  H25 UNL     1      30.555   8.589  50.611  1.00  0.00     0.177 HD
ENDROOT
BRANCH  14  25
HETATM   25  C12 UNL     1      35.255   7.697  42.813  1.00  0.00     0.142 C 
HETATM   26 CL1  UNL     1      36.600   6.727  42.163  1.00  0.00    -0.126 Cl
ENDBRANCH  14  25
BRANCH   1  27
HETATM   27  C2  UNL     1      32.816  11.476  47.088  1.00  0.00     0.121 C 
HETATM   28  C1  UNL     1      33.882  10.420  46.941  1.00  0.00     0.026 C 
ENDBRANCH   1  27
TORSDOF 2
ENDMDL
