MODEL 1
REMARK VINA RESULT:      -7.9      0.000      0.000
REMARK  7 active torsions:
REMARK  status: ('A' for Active; 'I' for Inactive)
REMARK    1  A    between atoms: C4_6  and  N3_7 
REMARK    2  A    between atoms: N3_7  and  C5_8 
REMARK    3  A    between atoms: C11_15  and  C12_16 
REMARK    4  A    between atoms: C12_16  and  N4_17 
REMARK       I    between atoms: N4_17  and  C13_18 
REMARK       I    between atoms: C13_18  and  N5_20 
REMARK    5  A    between atoms: N5_20  and  C14_21 
REMARK    6  A    between atoms: C14_21  and  C15_22 
REMARK    7  A    between atoms: C15_22  and  N6_23 
ROOT
HETATM    1  C1  UNL     1      29.717   0.683  54.445  1.00  0.00     0.071 C 
HETATM    2  C2  UNL     1      28.700  -0.229  53.873  1.00  0.00     0.043 A 
HETATM    3  N1  UNL     1      28.988  -1.517  53.636  1.00  0.00    -0.246 NA
HETATM    4  C3  UNL     1      28.105  -2.366  53.080  1.00  0.00     0.235 A 
HETATM    5  N2  UNL     1      26.897  -1.877  52.759  1.00  0.00    -0.224 NA
HETATM    6  C4  UNL     1      26.588  -0.570  52.994  1.00  0.00     0.139 A 
HETATM    7  C11 UNL     1      27.489   0.336  53.573  1.00  0.00     0.030 A 
ENDROOT
BRANCH   7   8
HETATM    8  C12 UNL     1      26.888   1.652  53.746  1.00  0.00     0.169 C 
BRANCH   8   9
HETATM    9  N4  UNL     1      27.034   2.483  52.590  1.00  0.00    -0.339 N 
HETATM   10  C13 UNL     1      26.388   2.923  51.422  1.00  0.00     0.316 C 
HETATM   11  O1  UNL     1      25.231   2.441  51.265  1.00  0.00    -0.247 OA
HETATM   12  N5  UNL     1      26.792   3.811  50.388  1.00  0.00    -0.341 N 
HETATM   13  H13 UNL     1      27.747   4.152  50.646  1.00  0.00     0.164 HD
HETATM   14  H12 UNL     1      27.999   2.950  52.609  1.00  0.00     0.164 HD
BRANCH  12  15
HETATM   15  C14 UNL     1      25.707   3.854  49.458  1.00  0.00     0.154 C 
BRANCH  15  16
HETATM   16  C15 UNL     1      24.957   5.139  49.369  1.00  0.00     0.292 C 
BRANCH  16  17
HETATM   17  N6  UNL     1      24.865   5.957  50.528  1.00  0.00     0.094 N 
HETATM   18  C16 UNL     1      25.090   7.358  50.222  1.00  0.00     0.298 C 
HETATM   19  C17 UNL     1      23.843   8.144  50.034  1.00  0.00     0.198 C 
HETATM   20  O2  UNL     1      22.717   7.667  50.636  1.00  0.00    -0.388 OA
HETATM   21  C18 UNL     1      22.557   6.305  50.699  1.00  0.00     0.198 C 
HETATM   22  C19 UNL     1      23.790   5.755  51.424  1.00  0.00     0.298 C 
ENDBRANCH  16  17
ENDBRANCH  15  16
ENDBRANCH  12  15
ENDBRANCH   8   9
ENDBRANCH   7   8
BRANCH   6  23
HETATM   23  N3  UNL     1      25.230  -0.357  52.549  1.00  0.00    -0.340 N 
HETATM   24  H5  UNL     1      25.111  -0.048  51.573  1.00  0.00     0.167 HD
BRANCH  23  25
HETATM   25  C5  UNL     1      24.101  -0.552  53.388  1.00  0.00     0.035 A 
HETATM   26  C6  UNL     1      24.216  -1.083  54.675  1.00  0.00     0.029 A 
HETATM   27  C7  UNL     1      23.130  -1.267  55.496  1.00  0.00     0.004 A 
HETATM   28  C8  UNL     1      21.917  -0.892  54.958  1.00  0.00     0.019 A 
HETATM   29  C9  UNL     1      21.714  -0.364  53.705  1.00  0.00     0.013 A 
HETATM   30 BR1  UNL     1      20.016   0.142  53.013  1.00  0.00    -0.051 Br
HETATM   31  C10 UNL     1      22.841  -0.190  52.900  1.00  0.00     0.048 A 
ENDBRANCH  23  25
ENDBRANCH   6  23
TORSDOF 7
ENDMDL
MODEL 2
REMARK VINA RESULT:      -7.8      1.648      2.067
REMARK  7 active torsions:
REMARK  status: ('A' for Active; 'I' for Inactive)
REMARK    1  A    between atoms: C4_6  and  N3_7 
REMARK    2  A    between atoms: N3_7  and  C5_8 
REMARK    3  A    between atoms: C11_15  and  C12_16 
REMARK    4  A    between atoms: C12_16  and  N4_17 
REMARK       I    between atoms: N4_17  and  C13_18 
REMARK       I    between atoms: C13_18  and  N5_20 
REMARK    5  A    between atoms: N5_20  and  C14_21 
REMARK    6  A    between atoms: C14_21  and  C15_22 
REMARK    7  A    between atoms: C15_22  and  N6_23 
ROOT
HETATM    1  C1  UNL     1      29.529   1.828  54.726  1.00  0.00     0.071 C 
HETATM    2  C2  UNL     1      28.858   0.642  54.147  1.00  0.00     0.043 A 
HETATM    3  N1  UNL     1      29.528  -0.506  53.964  1.00  0.00    -0.246 NA
HETATM    4  C3  UNL     1      28.965  -1.592  53.404  1.00  0.00     0.235 A 
HETATM    5  N2  UNL     1      27.682  -1.494  53.023  1.00  0.00    -0.224 NA
HETATM    6  C4  UNL     1      26.987  -0.335  53.203  1.00  0.00     0.139 A 
HETATM    7  C11 UNL     1      27.549   0.811  53.784  1.00  0.00     0.030 A 
ENDROOT
BRANCH   7   8
HETATM    8  C12 UNL     1      26.575   1.890  53.892  1.00  0.00     0.169 C 
BRANCH   8   9
HETATM    9  N4  UNL     1      26.573   2.748  52.746  1.00  0.00    -0.339 N 
HETATM   10  C13 UNL     1      25.968   2.970  51.497  1.00  0.00     0.316 C 
HETATM   11  O1  UNL     1      25.075   2.126  51.204  1.00  0.00    -0.247 OA
HETATM   12  N5  UNL     1      26.171   3.967  50.505  1.00  0.00    -0.341 N 
HETATM   13  H13 UNL     1      26.912   4.608  50.875  1.00  0.00     0.164 HD
HETATM   14  H12 UNL     1      27.310   3.517  52.878  1.00  0.00     0.164 HD
BRANCH  12  15
HETATM   15  C14 UNL     1      25.264   3.660  49.445  1.00  0.00     0.154 C 
BRANCH  15  16
HETATM   16  C15 UNL     1      24.299   4.731  49.063  1.00  0.00     0.292 C 
BRANCH  16  17
HETATM   17  N6  UNL     1      23.087   4.359  48.419  1.00  0.00     0.094 N 
HETATM   18  C16 UNL     1      22.849   2.929  48.497  1.00  0.00     0.298 C 
HETATM   19  C17 UNL     1      21.940   2.526  49.602  1.00  0.00     0.198 C 
HETATM   20  O2  UNL     1      21.070   3.470  50.059  1.00  0.00    -0.388 OA
HETATM   21  C18 UNL     1      21.500   4.774  50.088  1.00  0.00     0.198 C 
HETATM   22  C19 UNL     1      21.922   5.125  48.658  1.00  0.00     0.298 C 
ENDBRANCH  16  17
ENDBRANCH  15  16
ENDBRANCH  12  15
ENDBRANCH   8   9
ENDBRANCH   7   8
BRANCH   6  23
HETATM   23  N3  UNL     1      25.648  -0.548  52.702  1.00  0.00    -0.340 N 
HETATM   24  H5  UNL     1      25.543  -0.581  51.676  1.00  0.00     0.167 HD
BRANCH  23  25
HETATM   25  C5  UNL     1      24.520  -0.705  53.550  1.00  0.00     0.035 A 
HETATM   26  C6  UNL     1      24.638  -1.163  54.864  1.00  0.00     0.029 A 
HETATM   27  C7  UNL     1      23.552  -1.310  55.693  1.00  0.00     0.004 A 
HETATM   28  C8  UNL     1      22.336  -0.975  55.134  1.00  0.00     0.019 A 
HETATM   29  C9  UNL     1      22.131  -0.518  53.854  1.00  0.00     0.013 A 
HETATM   30 BR1  UNL     1      20.430  -0.065  53.133  1.00  0.00    -0.051 Br
HETATM   31  C10 UNL     1      23.258  -0.380  53.041  1.00  0.00     0.048 A 
ENDBRANCH  23  25
ENDBRANCH   6  23
TORSDOF 7
ENDMDL
MODEL 3
REMARK VINA RESULT:      -7.5      2.053      2.689
REMARK  7 active torsions:
REMARK  status: ('A' for Active; 'I' for Inactive)
REMARK    1  A    between atoms: C4_6  and  N3_7 
REMARK    2  A    between atoms: N3_7  and  C5_8 
REMARK    3  A    between atoms: C11_15  and  C12_16 
REMARK    4  A    between atoms: C12_16  and  N4_17 
REMARK       I    between atoms: N4_17  and  C13_18 
REMARK       I    between atoms: C13_18  and  N5_20 
REMARK    5  A    between atoms: N5_20  and  C14_21 
REMARK    6  A    between atoms: C14_21  and  C15_22 
REMARK    7  A    between atoms: C15_22  and  N6_23 
ROOT
HETATM    1  C1  UNL     1      28.594   2.487  53.258  1.00  0.00     0.071 C 
HETATM    2  C2  UNL     1      27.658   1.453  53.755  1.00  0.00     0.043 A 
HETATM    3  N1  UNL     1      27.856   0.860  54.941  1.00  0.00    -0.246 NA
HETATM    4  C3  UNL     1      27.052  -0.112  55.409  1.00  0.00     0.235 A 
HETATM    5  N2  UNL     1      26.018  -0.482  54.636  1.00  0.00    -0.224 NA
HETATM    6  C4  UNL     1      25.802   0.111  53.428  1.00  0.00     0.139 A 
HETATM    7  C11 UNL     1      26.625   1.127  52.917  1.00  0.00     0.030 A 
ENDROOT
BRANCH   7   8
HETATM    8  C12 UNL     1      26.143   1.610  51.629  1.00  0.00     0.169 C 
BRANCH   8   9
HETATM    9  N4  UNL     1      25.546   2.908  51.715  1.00  0.00    -0.339 N 
HETATM   10  C13 UNL     1      25.170   4.034  50.963  1.00  0.00     0.316 C 
HETATM   11  O1  UNL     1      25.431   3.937  49.731  1.00  0.00    -0.247 OA
HETATM   12  N5  UNL     1      24.551   5.260  51.330  1.00  0.00    -0.341 N 
HETATM   13  H13 UNL     1      24.372   5.205  52.360  1.00  0.00     0.164 HD
HETATM   14  H12 UNL     1      25.283   3.110  52.735  1.00  0.00     0.164 HD
BRANCH  12  15
HETATM   15  C14 UNL     1      24.436   6.021  50.126  1.00  0.00     0.154 C 
BRANCH  15  16
HETATM   16  C15 UNL     1      24.957   7.417  50.167  1.00  0.00     0.292 C 
BRANCH  16  17
HETATM   17  N6  UNL     1      26.344   7.635  49.940  1.00  0.00     0.094 N 
HETATM   18  C16 UNL     1      26.800   6.994  48.720  1.00  0.00     0.298 C 
HETATM   19  C17 UNL     1      26.854   7.902  47.544  1.00  0.00     0.198 C 
HETATM   20  O2  UNL     1      26.983   9.234  47.799  1.00  0.00    -0.388 OA
HETATM   21  C18 UNL     1      26.346   9.735  48.908  1.00  0.00     0.198 C 
HETATM   22  C19 UNL     1      26.868   8.938  50.107  1.00  0.00     0.298 C 
ENDBRANCH  16  17
ENDBRANCH  15  16
ENDBRANCH  12  15
ENDBRANCH   8   9
ENDBRANCH   7   8
BRANCH   6  23
HETATM   23  N3  UNL     1      24.625  -0.494  52.849  1.00  0.00    -0.340 N 
HETATM   24  H5  UNL     1      24.784  -1.149  52.069  1.00  0.00     0.167 HD
BRANCH  23  25
HETATM   25  C5  UNL     1      23.309  -0.222  53.307  1.00  0.00     0.035 A 
HETATM   26  C6  UNL     1      22.701  -0.978  54.311  1.00  0.00     0.029 A 
HETATM   27  C7  UNL     1      21.431  -0.716  54.765  1.00  0.00     0.004 A 
HETATM   28  C8  UNL     1      20.798   0.349  54.157  1.00  0.00     0.019 A 
HETATM   29  C9  UNL     1      21.321   1.143  53.165  1.00  0.00     0.013 A 
HETATM   30 BR1  UNL     1      20.405   2.605  52.362  1.00  0.00    -0.051 Br
HETATM   31  C10 UNL     1      22.614   0.847  52.730  1.00  0.00     0.048 A 
ENDBRANCH  23  25
ENDBRANCH   6  23
TORSDOF 7
ENDMDL
MODEL 4
REMARK VINA RESULT:      -7.4      5.692     10.070
REMARK  7 active torsions:
REMARK  status: ('A' for Active; 'I' for Inactive)
REMARK    1  A    between atoms: C4_6  and  N3_7 
REMARK    2  A    between atoms: N3_7  and  C5_8 
REMARK    3  A    between atoms: C11_15  and  C12_16 
REMARK    4  A    between atoms: C12_16  and  N4_17 
REMARK       I    between atoms: N4_17  and  C13_18 
REMARK       I    between atoms: C13_18  and  N5_20 
REMARK    5  A    between atoms: N5_20  and  C14_21 
REMARK    6  A    between atoms: C14_21  and  C15_22 
REMARK    7  A    between atoms: C15_22  and  N6_23 
ROOT
HETATM    1  C1  UNL     1      26.615   7.820  47.242  1.00  0.00     0.071 C 
HETATM    2  C2  UNL     1      27.971   8.023  47.800  1.00  0.00     0.043 A 
HETATM    3  N1  UNL     1      28.502   9.251  47.887  1.00  0.00    -0.246 NA
HETATM    4  C3  UNL     1      29.745   9.473  48.350  1.00  0.00     0.235 A 
HETATM    5  N2  UNL     1      30.461   8.402  48.731  1.00  0.00    -0.224 NA
HETATM    6  C4  UNL     1      29.936   7.147  48.649  1.00  0.00     0.139 A 
HETATM    7  C11 UNL     1      28.643   6.889  48.171  1.00  0.00     0.030 A 
ENDROOT
BRANCH   7   8
HETATM    8  C12 UNL     1      28.323   5.468  48.230  1.00  0.00     0.169 C 
BRANCH   8   9
HETATM    9  N4  UNL     1      27.385   5.155  49.265  1.00  0.00    -0.339 N 
HETATM   10  C13 UNL     1      26.696   4.102  49.890  1.00  0.00     0.316 C 
HETATM   11  O1  UNL     1      26.949   2.965  49.402  1.00  0.00    -0.247 OA
HETATM   12  N5  UNL     1      25.770   4.077  50.968  1.00  0.00    -0.341 N 
HETATM   13  H13 UNL     1      25.665   5.068  51.291  1.00  0.00     0.164 HD
HETATM   14  H12 UNL     1      27.087   6.060  49.757  1.00  0.00     0.164 HD
BRANCH  12  15
HETATM   15  C14 UNL     1      25.402   2.708  51.142  1.00  0.00     0.154 C 
BRANCH  15  16
HETATM   16  C15 UNL     1      25.788   2.073  52.435  1.00  0.00     0.292 C 
BRANCH  16  17
HETATM   17  N6  UNL     1      26.871   1.153  52.447  1.00  0.00     0.094 N 
HETATM   18  C16 UNL     1      27.654   1.255  53.665  1.00  0.00     0.298 C 
HETATM   19  C17 UNL     1      27.292   0.254  54.702  1.00  0.00     0.198 C 
HETATM   20  O2  UNL     1      26.700  -0.895  54.270  1.00  0.00    -0.388 OA
HETATM   21  C18 UNL     1      25.841  -0.807  53.202  1.00  0.00     0.198 C 
HETATM   22  C19 UNL     1      26.638  -0.185  52.052  1.00  0.00     0.298 C 
ENDBRANCH  16  17
ENDBRANCH  15  16
ENDBRANCH  12  15
ENDBRANCH   8   9
ENDBRANCH   7   8
BRANCH   6  23
HETATM   23  N3  UNL     1      30.937   6.224  49.133  1.00  0.00    -0.340 N 
HETATM   24  H5  UNL     1      30.728   5.748  50.023  1.00  0.00     0.167 HD
BRANCH  23  25
HETATM   25  C5  UNL     1      32.151   5.967  48.443  1.00  0.00     0.035 A 
HETATM   26  C6  UNL     1      33.398   6.111  49.056  1.00  0.00     0.029 A 
HETATM   27  C7  UNL     1      34.577   5.857  48.398  1.00  0.00     0.004 A 
HETATM   28  C8  UNL     1      34.442   5.451  47.087  1.00  0.00     0.019 A 
HETATM   29  C9  UNL     1      33.258   5.284  46.407  1.00  0.00     0.013 A 
HETATM   30 BR1  UNL     1      33.128   4.715  44.597  1.00  0.00    -0.051 Br
HETATM   31  C10 UNL     1      32.081   5.551  47.109  1.00  0.00     0.048 A 
ENDBRANCH  23  25
ENDBRANCH   6  23
TORSDOF 7
ENDMDL
MODEL 5
REMARK VINA RESULT:      -7.4      4.485      6.830
REMARK  7 active torsions:
REMARK  status: ('A' for Active; 'I' for Inactive)
REMARK    1  A    between atoms: C4_6  and  N3_7 
REMARK    2  A    between atoms: N3_7  and  C5_8 
REMARK    3  A    between atoms: C11_15  and  C12_16 
REMARK    4  A    between atoms: C12_16  and  N4_17 
REMARK       I    between atoms: N4_17  and  C13_18 
REMARK       I    between atoms: C13_18  and  N5_20 
REMARK    5  A    between atoms: N5_20  and  C14_21 
REMARK    6  A    between atoms: C14_21  and  C15_22 
REMARK    7  A    between atoms: C15_22  and  N6_23 
ROOT
HETATM    1  C1  UNL     1      23.063   4.808  48.265  1.00  0.00     0.071 C 
HETATM    2  C2  UNL     1      22.829   4.624  49.715  1.00  0.00     0.043 A 
HETATM    3  N1  UNL     1      21.634   4.896  50.259  1.00  0.00    -0.246 NA
HETATM    4  C3  UNL     1      21.394   4.780  51.578  1.00  0.00     0.235 A 
HETATM    5  N2  UNL     1      22.410   4.374  52.356  1.00  0.00    -0.224 NA
HETATM    6  C4  UNL     1      23.631   4.093  51.819  1.00  0.00     0.139 A 
HETATM    7  C11 UNL     1      23.908   4.205  50.448  1.00  0.00     0.030 A 
ENDROOT
BRANCH   7   8
HETATM    8  C12 UNL     1      25.275   3.804  50.143  1.00  0.00     0.169 C 
BRANCH   8   9
HETATM    9  N4  UNL     1      26.111   4.913  49.794  1.00  0.00    -0.339 N 
HETATM   10  C13 UNL     1      27.283   5.279  49.112  1.00  0.00     0.316 C 
HETATM   11  O1  UNL     1      27.887   4.306  48.577  1.00  0.00    -0.247 OA
HETATM   12  N5  UNL     1      27.915   6.536  48.909  1.00  0.00    -0.341 N 
HETATM   13  H13 UNL     1      27.310   7.250  49.379  1.00  0.00     0.164 HD
HETATM   14  H12 UNL     1      25.695   5.813  50.206  1.00  0.00     0.164 HD
BRANCH  12  15
HETATM   15  C14 UNL     1      29.090   6.269  48.142  1.00  0.00     0.154 C 
BRANCH  15  16
HETATM   16  C15 UNL     1      30.148   7.320  48.156  1.00  0.00     0.292 C 
BRANCH  16  17
HETATM   17  N6  UNL     1      31.136   7.279  49.177  1.00  0.00     0.094 N 
HETATM   18  C16 UNL     1      31.640   5.934  49.390  1.00  0.00     0.298 C 
HETATM   19  C17 UNL     1      32.911   5.644  48.677  1.00  0.00     0.198 C 
HETATM   20  O2  UNL     1      33.698   6.711  48.360  1.00  0.00    -0.388 OA
HETATM   21  C18 UNL     1      33.072   7.882  48.008  1.00  0.00     0.198 C 
HETATM   22  C19 UNL     1      32.159   8.257  49.179  1.00  0.00     0.298 C 
ENDBRANCH  16  17
ENDBRANCH  15  16
ENDBRANCH  12  15
ENDBRANCH   8   9
ENDBRANCH   7   8
BRANCH   6  23
HETATM   23  N3  UNL     1      24.498   3.683  52.900  1.00  0.00    -0.340 N 
HETATM   24  H5  UNL     1      24.905   4.438  53.472  1.00  0.00     0.167 HD
BRANCH  23  25
HETATM   25  C5  UNL     1      24.792   2.323  53.182  1.00  0.00     0.035 A 
HETATM   26  C6  UNL     1      23.866   1.302  52.961  1.00  0.00     0.029 A 
HETATM   27  C7  UNL     1      24.146  -0.017  53.224  1.00  0.00     0.004 A 
HETATM   28  C8  UNL     1      25.408  -0.262  53.723  1.00  0.00     0.019 A 
HETATM   29  C9  UNL     1      26.378   0.680  53.971  1.00  0.00     0.013 A 
HETATM   30 BR1  UNL     1      28.108   0.287  54.657  1.00  0.00    -0.051 Br
HETATM   31  C10 UNL     1      26.058   2.010  53.690  1.00  0.00     0.048 A 
ENDBRANCH  23  25
ENDBRANCH   6  23
TORSDOF 7
ENDMDL
MODEL 6
REMARK VINA RESULT:      -7.4      4.439      6.415
REMARK  7 active torsions:
REMARK  status: ('A' for Active; 'I' for Inactive)
REMARK    1  A    between atoms: C4_6  and  N3_7 
REMARK    2  A    between atoms: N3_7  and  C5_8 
REMARK    3  A    between atoms: C11_15  and  C12_16 
REMARK    4  A    between atoms: C12_16  and  N4_17 
REMARK       I    between atoms: N4_17  and  C13_18 
REMARK       I    between atoms: C13_18  and  N5_20 
REMARK    5  A    between atoms: N5_20  and  C14_21 
REMARK    6  A    between atoms: C14_21  and  C15_22 
REMARK    7  A    between atoms: C15_22  and  N6_23 
ROOT
HETATM    1  C1  UNL     1      23.305   3.451  48.902  1.00  0.00     0.071 C 
HETATM    2  C2  UNL     1      23.883   3.195  50.241  1.00  0.00     0.043 A 
HETATM    3  N1  UNL     1      23.091   3.013  51.308  1.00  0.00    -0.246 NA
HETATM    4  C3  UNL     1      23.578   2.819  52.547  1.00  0.00     0.235 A 
HETATM    5  N2  UNL     1      24.913   2.812  52.691  1.00  0.00    -0.224 NA
HETATM    6  C4  UNL     1      25.731   2.994  51.617  1.00  0.00     0.139 A 
HETATM    7  C11 UNL     1      25.251   3.199  50.315  1.00  0.00     0.030 A 
ENDROOT
BRANCH   7   8
HETATM    8  C12 UNL     1      26.340   3.324  49.355  1.00  0.00     0.169 C 
BRANCH   8   9
HETATM    9  N4  UNL     1      26.820   4.667  49.237  1.00  0.00    -0.339 N 
HETATM   10  C13 UNL     1      27.897   5.451  48.789  1.00  0.00     0.316 C 
HETATM   11  O1  UNL     1      28.844   4.780  48.289  1.00  0.00    -0.247 OA
HETATM   12  N5  UNL     1      28.119   6.855  48.791  1.00  0.00    -0.341 N 
HETATM   13  H13 UNL     1      27.262   7.290  49.208  1.00  0.00     0.164 HD
HETATM   14  H12 UNL     1      26.090   5.341  49.642  1.00  0.00     0.164 HD
BRANCH  12  15
HETATM   15  C14 UNL     1      29.410   7.052  48.213  1.00  0.00     0.154 C 
BRANCH  15  16
HETATM   16  C15 UNL     1      29.777   8.455  47.865  1.00  0.00     0.292 C 
BRANCH  16  17
HETATM   17  N6  UNL     1      30.877   9.057  48.534  1.00  0.00     0.094 N 
HETATM   18  C16 UNL     1      31.893   9.514  47.603  1.00  0.00     0.298 C 
HETATM   19  C17 UNL     1      31.799  10.958  47.265  1.00  0.00     0.198 C 
HETATM   20  O2  UNL     1      31.179  11.764  48.172  1.00  0.00    -0.388 OA
HETATM   21  C18 UNL     1      30.112  11.244  48.862  1.00  0.00     0.198 C 
HETATM   22  C19 UNL     1      30.623   9.986  49.570  1.00  0.00     0.298 C 
ENDBRANCH  16  17
ENDBRANCH  15  16
ENDBRANCH  12  15
ENDBRANCH   8   9
ENDBRANCH   7   8
BRANCH   6  23
HETATM   23  N3  UNL     1      27.094   2.929  52.092  1.00  0.00    -0.340 N 
HETATM   24  H5  UNL     1      27.676   3.765  51.931  1.00  0.00     0.167 HD
BRANCH  23  25
HETATM   25  C5  UNL     1      27.632   1.789  52.747  1.00  0.00     0.035 A 
HETATM   26  C6  UNL     1      28.587   1.897  53.760  1.00  0.00     0.029 A 
HETATM   27  C7  UNL     1      29.106   0.801  54.404  1.00  0.00     0.004 A 
HETATM   28  C8  UNL     1      28.617  -0.417  53.978  1.00  0.00     0.019 A 
HETATM   29  C9  UNL     1      27.680  -0.614  52.992  1.00  0.00     0.013 A 
HETATM   30 BR1  UNL     1      27.034  -2.318  52.446  1.00  0.00    -0.051 Br
HETATM   31  C10 UNL     1      27.174   0.525  52.361  1.00  0.00     0.048 A 
ENDBRANCH  23  25
ENDBRANCH   6  23
TORSDOF 7
ENDMDL
MODEL 7
REMARK VINA RESULT:      -7.3      2.657      4.959
REMARK  7 active torsions:
REMARK  status: ('A' for Active; 'I' for Inactive)
REMARK    1  A    between atoms: C4_6  and  N3_7 
REMARK    2  A    between atoms: N3_7  and  C5_8 
REMARK    3  A    between atoms: C11_15  and  C12_16 
REMARK    4  A    between atoms: C12_16  and  N4_17 
REMARK       I    between atoms: N4_17  and  C13_18 
REMARK       I    between atoms: C13_18  and  N5_20 
REMARK    5  A    between atoms: N5_20  and  C14_21 
REMARK    6  A    between atoms: C14_21  and  C15_22 
REMARK    7  A    between atoms: C15_22  and  N6_23 
ROOT
HETATM    1  C1  UNL     1      20.605  -0.897  54.162  1.00  0.00     0.071 C 
HETATM    2  C2  UNL     1      22.082  -0.845  54.254  1.00  0.00     0.043 A 
HETATM    3  N1  UNL     1      22.720  -1.326  55.331  1.00  0.00    -0.246 NA
HETATM    4  C3  UNL     1      24.056  -1.260  55.471  1.00  0.00     0.235 A 
HETATM    5  N2  UNL     1      24.753  -0.686  54.477  1.00  0.00    -0.224 NA
HETATM    6  C4  UNL     1      24.120  -0.193  53.375  1.00  0.00     0.139 A 
HETATM    7  C11 UNL     1      22.728  -0.249  53.204  1.00  0.00     0.030 A 
ENDROOT
BRANCH   7   8
HETATM    8  C12 UNL     1      22.323   0.311  51.922  1.00  0.00     0.169 C 
BRANCH   8   9
HETATM    9  N4  UNL     1      22.028   1.710  51.998  1.00  0.00    -0.339 N 
HETATM   10  C13 UNL     1      22.606   2.985  52.124  1.00  0.00     0.316 C 
HETATM   11  O1  UNL     1      23.867   2.968  52.211  1.00  0.00    -0.247 OA
HETATM   12  N5  UNL     1      22.039   4.287  52.170  1.00  0.00    -0.341 N 
HETATM   13  H13 UNL     1      21.004   4.163  52.069  1.00  0.00     0.164 HD
HETATM   14  H12 UNL     1      20.967   1.852  51.941  1.00  0.00     0.164 HD
BRANCH  12  15
HETATM   15  C14 UNL     1      23.135   5.190  52.322  1.00  0.00     0.154 C 
BRANCH  15  16
HETATM   16  C15 UNL     1      23.461   6.046  51.145  1.00  0.00     0.292 C 
BRANCH  16  17
HETATM   17  N6  UNL     1      24.101   5.449  50.024  1.00  0.00     0.094 N 
HETATM   18  C16 UNL     1      23.398   5.731  48.786  1.00  0.00     0.298 C 
HETATM   19  C17 UNL     1      23.960   6.872  48.017  1.00  0.00     0.198 C 
HETATM   20  O2  UNL     1      25.270   7.177  48.236  1.00  0.00    -0.388 OA
HETATM   21  C18 UNL     1      25.756   7.022  49.511  1.00  0.00     0.198 C 
HETATM   22  C19 UNL     1      25.505   5.561  49.898  1.00  0.00     0.298 C 
ENDBRANCH  16  17
ENDBRANCH  15  16
ENDBRANCH  12  15
ENDBRANCH   8   9
ENDBRANCH   7   8
BRANCH   6  23
HETATM   23  N3  UNL     1      25.131   0.348  52.497  1.00  0.00    -0.340 N 
HETATM   24  H5  UNL     1      24.845   0.521  51.522  1.00  0.00     0.167 HD
BRANCH  23  25
HETATM   25  C5  UNL     1      26.454   0.635  52.925  1.00  0.00     0.035 A 
HETATM   26  C6  UNL     1      26.865   1.930  53.247  1.00  0.00     0.029 A 
HETATM   27  C7  UNL     1      28.141   2.215  53.669  1.00  0.00     0.004 A 
HETATM   28  C8  UNL     1      28.989   1.130  53.750  1.00  0.00     0.019 A 
HETATM   29  C9  UNL     1      28.669  -0.173  53.452  1.00  0.00     0.013 A 
HETATM   30 BR1  UNL     1      29.878  -1.636  53.586  1.00  0.00    -0.051 Br
HETATM   31  C10 UNL     1      27.362  -0.424  53.028  1.00  0.00     0.048 A 
ENDBRANCH  23  25
ENDBRANCH   6  23
TORSDOF 7
ENDMDL
MODEL 8
REMARK VINA RESULT:      -7.2      1.987      2.678
REMARK  7 active torsions:
REMARK  status: ('A' for Active; 'I' for Inactive)
REMARK    1  A    between atoms: C4_6  and  N3_7 
REMARK    2  A    between atoms: N3_7  and  C5_8 
REMARK    3  A    between atoms: C11_15  and  C12_16 
REMARK    4  A    between atoms: C12_16  and  N4_17 
REMARK       I    between atoms: N4_17  and  C13_18 
REMARK       I    between atoms: C13_18  and  N5_20 
REMARK    5  A    between atoms: N5_20  and  C14_21 
REMARK    6  A    between atoms: C14_21  and  C15_22 
REMARK    7  A    between atoms: C15_22  and  N6_23 
ROOT
HETATM    1  C1  UNL     1      28.659   2.580  53.382  1.00  0.00     0.071 C 
HETATM    2  C2  UNL     1      27.728   1.510  53.807  1.00  0.00     0.043 A 
HETATM    3  N1  UNL     1      27.934   0.831  54.944  1.00  0.00    -0.246 NA
HETATM    4  C3  UNL     1      27.135  -0.174  55.344  1.00  0.00     0.235 A 
HETATM    5  N2  UNL     1      26.097  -0.489  54.552  1.00  0.00    -0.224 NA
HETATM    6  C4  UNL     1      25.873   0.192  53.393  1.00  0.00     0.139 A 
HETATM    7  C11 UNL     1      26.690   1.244  52.953  1.00  0.00     0.030 A 
ENDROOT
BRANCH   7   8
HETATM    8  C12 UNL     1      26.199   1.820  51.708  1.00  0.00     0.169 C 
BRANCH   8   9
HETATM    9  N4  UNL     1      25.507   3.057  51.907  1.00  0.00    -0.339 N 
HETATM   10  C13 UNL     1      24.436   3.843  51.449  1.00  0.00     0.316 C 
HETATM   11  O1  UNL     1      23.793   3.323  50.494  1.00  0.00    -0.247 OA
HETATM   12  N5  UNL     1      23.941   5.111  51.860  1.00  0.00    -0.341 N 
HETATM   13  H13 UNL     1      24.542   5.418  52.660  1.00  0.00     0.164 HD
HETATM   14  H12 UNL     1      25.976   3.601  52.704  1.00  0.00     0.164 HD
BRANCH  12  15
HETATM   15  C14 UNL     1      22.833   5.399  51.004  1.00  0.00     0.154 C 
BRANCH  15  16
HETATM   16  C15 UNL     1      22.565   6.838  50.724  1.00  0.00     0.292 C 
BRANCH  16  17
HETATM   17  N6  UNL     1      22.047   7.200  49.450  1.00  0.00     0.094 N 
HETATM   18  C16 UNL     1      21.128   6.200  48.936  1.00  0.00     0.298 C 
HETATM   19  C17 UNL     1      19.696   6.510  49.183  1.00  0.00     0.198 C 
HETATM   20  O2  UNL     1      19.371   7.821  49.365  1.00  0.00    -0.388 OA
HETATM   21  C18 UNL     1      20.275   8.615  50.028  1.00  0.00     0.198 C 
HETATM   22  C19 UNL     1      21.590   8.523  49.248  1.00  0.00     0.298 C 
ENDBRANCH  16  17
ENDBRANCH  15  16
ENDBRANCH  12  15
ENDBRANCH   8   9
ENDBRANCH   7   8
BRANCH   6  23
HETATM   23  N3  UNL     1      24.693  -0.372  52.778  1.00  0.00    -0.340 N 
HETATM   24  H5  UNL     1      24.849  -0.967  51.951  1.00  0.00     0.167 HD
BRANCH  23  25
HETATM   25  C5  UNL     1      23.380  -0.136  53.263  1.00  0.00     0.035 A 
HETATM   26  C6  UNL     1      22.816  -0.905  54.283  1.00  0.00     0.029 A 
HETATM   27  C7  UNL     1      21.549  -0.679  54.763  1.00  0.00     0.004 A 
HETATM   28  C8  UNL     1      20.871   0.363  54.164  1.00  0.00     0.019 A 
HETATM   29  C9  UNL     1      21.349   1.168  53.156  1.00  0.00     0.013 A 
HETATM   30 BR1  UNL     1      20.372   2.596  52.367  1.00  0.00    -0.051 Br
HETATM   31  C10 UNL     1      22.641   0.908  52.695  1.00  0.00     0.048 A 
ENDBRANCH  23  25
ENDBRANCH   6  23
TORSDOF 7
ENDMDL
MODEL 9
REMARK VINA RESULT:      -7.0      3.346      8.370
REMARK  7 active torsions:
REMARK  status: ('A' for Active; 'I' for Inactive)
REMARK    1  A    between atoms: C4_6  and  N3_7 
REMARK    2  A    between atoms: N3_7  and  C5_8 
REMARK    3  A    between atoms: C11_15  and  C12_16 
REMARK    4  A    between atoms: C12_16  and  N4_17 
REMARK       I    between atoms: N4_17  and  C13_18 
REMARK       I    between atoms: C13_18  and  N5_20 
REMARK    5  A    between atoms: N5_20  and  C14_21 
REMARK    6  A    between atoms: C14_21  and  C15_22 
REMARK    7  A    between atoms: C15_22  and  N6_23 
ROOT
HETATM    1  C1  UNL     1      19.800   4.028  50.823  1.00  0.00     0.071 C 
HETATM    2  C2  UNL     1      21.006   4.602  50.183  1.00  0.00     0.043 A 
HETATM    3  N1  UNL     1      21.007   4.918  48.879  1.00  0.00    -0.246 NA
HETATM    4  C3  UNL     1      22.093   5.404  48.252  1.00  0.00     0.235 A 
HETATM    5  N2  UNL     1      23.206   5.568  48.985  1.00  0.00    -0.224 NA
HETATM    6  C4  UNL     1      23.222   5.252  50.311  1.00  0.00     0.139 A 
HETATM    7  C11 UNL     1      22.103   4.745  50.989  1.00  0.00     0.030 A 
ENDROOT
BRANCH   7   8
HETATM    8  C12 UNL     1      22.384   4.534  52.404  1.00  0.00     0.169 C 
BRANCH   8   9
HETATM    9  N4  UNL     1      22.738   3.179  52.700  1.00  0.00    -0.339 N 
HETATM   10  C13 UNL     1      23.718   2.193  52.497  1.00  0.00     0.316 C 
HETATM   11  O1  UNL     1      24.690   2.577  51.787  1.00  0.00    -0.247 OA
HETATM   12  N5  UNL     1      23.822   0.847  52.943  1.00  0.00    -0.341 N 
HETATM   13  H13 UNL     1      22.975   0.664  53.530  1.00  0.00     0.164 HD
HETATM   14  H12 UNL     1      21.970   2.737  53.305  1.00  0.00     0.164 HD
BRANCH  12  15
HETATM   15  C14 UNL     1      25.045   0.345  52.400  1.00  0.00     0.154 C 
BRANCH  15  16
HETATM   16  C15 UNL     1      26.141   0.070  53.372  1.00  0.00     0.292 C 
BRANCH  16  17
HETATM   17  N6  UNL     1      27.488   0.221  52.942  1.00  0.00     0.094 N 
HETATM   18  C16 UNL     1      27.824   1.611  52.692  1.00  0.00     0.298 C 
HETATM   19  C17 UNL     1      28.512   2.281  53.827  1.00  0.00     0.198 C 
HETATM   20  O2  UNL     1      29.186   1.479  54.698  1.00  0.00    -0.388 OA
HETATM   21  C18 UNL     1      28.650   0.244  54.973  1.00  0.00     0.198 C 
HETATM   22  C19 UNL     1      28.508  -0.477  53.629  1.00  0.00     0.298 C 
ENDBRANCH  16  17
ENDBRANCH  15  16
ENDBRANCH  12  15
ENDBRANCH   8   9
ENDBRANCH   7   8
BRANCH   6  23
HETATM   23  N3  UNL     1      24.545   5.543  50.813  1.00  0.00    -0.340 N 
HETATM   24  H5  UNL     1      24.650   5.569  51.838  1.00  0.00     0.167 HD
BRANCH  23  25
HETATM   25  C5  UNL     1      25.658   5.784  49.965  1.00  0.00     0.035 A 
HETATM   26  C6  UNL     1      26.406   4.745  49.408  1.00  0.00     0.029 A 
HETATM   27  C7  UNL     1      27.480   4.970  48.582  1.00  0.00     0.004 A 
HETATM   28  C8  UNL     1      27.768   6.298  48.341  1.00  0.00     0.019 A 
HETATM   29  C9  UNL     1      27.087   7.379  48.847  1.00  0.00     0.013 A 
HETATM   30 BR1  UNL     1      27.524   9.194  48.478  1.00  0.00    -0.051 Br
HETATM   31  C10 UNL     1      26.001   7.111  49.682  1.00  0.00     0.048 A 
ENDBRANCH  23  25
ENDBRANCH   6  23
TORSDOF 7
ENDMDL
