MODEL 1
REMARK VINA RESULT:      -9.5      0.000      0.000
REMARK  5 active torsions:
REMARK  status: ('A' for Active; 'I' for Inactive)
REMARK    1  A    between atoms: C1_1  and  C21_25 
REMARK    2  A    between atoms: C2_2  and  C3_3 
REMARK    3  A    between atoms: C3_3  and  C4_4 
REMARK    4  A    between atoms: C6_6  and  C7_7 
REMARK    5  A    between atoms: N2_18  and  C15_19 
ROOT
HETATM    1  C4  UNL     1      22.200   2.398  51.963  1.00  0.00     0.119 C 
HETATM    2  C5  UNL     1      23.491   2.662  52.705  1.00  0.00     0.089 C 
HETATM    3  C6  UNL     1      24.123   1.316  52.656  1.00  0.00     0.067 C 
HETATM    4  N1  UNL     1      23.229   0.417  52.406  1.00  0.00    -0.175 NA
HETATM    5  N2  UNL     1      21.970   1.012  52.267  1.00  0.00    -0.264 N 
ENDROOT
BRANCH   3   6
HETATM    6  C7  UNL     1      25.563   1.077  52.864  1.00  0.00    -0.007 A 
HETATM    7  C8  UNL     1      26.469   2.140  52.905  1.00  0.00     0.016 A 
HETATM    8  C9  UNL     1      27.820   1.935  53.100  1.00  0.00     0.040 A 
HETATM    9  C10 UNL     1      28.225   0.628  53.252  1.00  0.00     0.102 A 
HETATM   10  C11 UNL     1      27.343  -0.417  53.212  1.00  0.00     0.103 A 
HETATM   11  O2  UNL     1      29.544   0.292  53.452  1.00  0.00    -0.346 OA
HETATM   12  C12 UNL     1      26.006  -0.233  53.020  1.00  0.00     0.053 A 
HETATM   13  O1  UNL     1      27.783  -1.725  53.368  1.00  0.00    -0.346 OA
HETATM   14  C13 UNL     1      29.145  -2.061  53.187  1.00  0.00     0.202 C 
HETATM   15  C14 UNL     1      29.950  -0.980  53.921  1.00  0.00     0.202 C 
ENDBRANCH   3   6
BRANCH   1  16
HETATM   16  C3  UNL     1      22.290   2.715  50.503  1.00  0.00     0.055 C 
BRANCH  16  17
HETATM   17  C2  UNL     1      22.710   4.079  50.188  1.00  0.00    -0.024 C 
HETATM   18  C1  UNL     1      23.894   4.550  49.838  1.00  0.00    -0.001 C 
BRANCH  18  19
HETATM   19  C21 UNL     1      25.052   3.679  49.707  1.00  0.00     0.037 C 
HETATM   20  C22 UNL     1      26.189   4.185  49.277  1.00  0.00     0.076 A 
HETATM   21  C23 UNL     1      26.504   5.560  48.883  1.00  0.00     0.062 A 
HETATM   22  O3  UNL     1      27.511   3.902  48.971  1.00  0.00    -0.323 OA
HETATM   23  C24 UNL     1      27.772   5.214  48.606  1.00  0.00     0.145 A 
ENDBRANCH  18  19
ENDBRANCH  16  17
ENDBRANCH   1  16
BRANCH   5  24
HETATM   24  C15 UNL     1      20.734   0.352  52.405  1.00  0.00     0.053 A 
HETATM   25  C16 UNL     1      19.723   0.433  51.468  1.00  0.00     0.031 A 
HETATM   26  C17 UNL     1      18.499  -0.196  51.564  1.00  0.00     0.002 A 
HETATM   27  C18 UNL     1      18.267  -0.969  52.687  1.00  0.00     0.000 A 
HETATM   28  C19 UNL     1      19.251  -1.083  53.659  1.00  0.00     0.002 A 
HETATM   29  C20 UNL     1      20.462  -0.429  53.512  1.00  0.00     0.031 A 
ENDBRANCH   5  24
TORSDOF 5
ENDMDL
MODEL 2
REMARK VINA RESULT:      -9.3      3.282      7.528
REMARK  5 active torsions:
REMARK  status: ('A' for Active; 'I' for Inactive)
REMARK    1  A    between atoms: C1_1  and  C21_25 
REMARK    2  A    between atoms: C2_2  and  C3_3 
REMARK    3  A    between atoms: C3_3  and  C4_4 
REMARK    4  A    between atoms: C6_6  and  C7_7 
REMARK    5  A    between atoms: N2_18  and  C15_19 
ROOT
HETATM    1  C4  UNL     1      24.857   0.600  53.540  1.00  0.00     0.119 C 
HETATM    2  C5  UNL     1      24.227   1.949  53.278  1.00  0.00     0.089 C 
HETATM    3  C6  UNL     1      24.732   2.231  51.907  1.00  0.00     0.067 C 
HETATM    4  N1  UNL     1      25.764   1.495  51.655  1.00  0.00    -0.175 NA
HETATM    5  N2  UNL     1      26.058   0.683  52.757  1.00  0.00    -0.264 N 
ENDROOT
BRANCH   3   6
HETATM    6  C7  UNL     1      24.120   3.213  50.993  1.00  0.00    -0.007 A 
HETATM    7  C8  UNL     1      23.847   2.884  49.663  1.00  0.00     0.016 A 
HETATM    8  C9  UNL     1      23.273   3.790  48.794  1.00  0.00     0.040 A 
HETATM    9  C10 UNL     1      22.986   5.034  49.309  1.00  0.00     0.102 A 
HETATM   10  C11 UNL     1      23.252   5.363  50.610  1.00  0.00     0.103 A 
HETATM   11  O2  UNL     1      22.414   6.025  48.544  1.00  0.00    -0.346 OA
HETATM   12  C12 UNL     1      23.818   4.481  51.481  1.00  0.00     0.053 A 
HETATM   13  O1  UNL     1      22.950   6.627  51.099  1.00  0.00    -0.346 OA
HETATM   14  C13 UNL     1      22.731   7.715  50.221  1.00  0.00     0.202 C 
HETATM   15  C14 UNL     1      21.822   7.182  49.105  1.00  0.00     0.202 C 
ENDBRANCH   3   6
BRANCH   1  16
HETATM   16  C3  UNL     1      23.955  -0.544  53.191  1.00  0.00     0.055 C 
BRANCH  16  17
HETATM   17  C2  UNL     1      22.639  -0.514  53.825  1.00  0.00    -0.024 C 
HETATM   18  C1  UNL     1      21.456  -0.199  53.326  1.00  0.00    -0.001 C 
BRANCH  18  19
HETATM   19  C21 UNL     1      21.297   0.199  51.937  1.00  0.00     0.037 C 
HETATM   20  C22 UNL     1      20.889   1.421  51.664  1.00  0.00     0.076 A 
HETATM   21  C23 UNL     1      20.548   2.513  52.578  1.00  0.00     0.062 A 
HETATM   22  O3  UNL     1      20.576   2.310  50.646  1.00  0.00    -0.323 OA
HETATM   23  C24 UNL     1      20.261   3.320  51.543  1.00  0.00     0.145 A 
ENDBRANCH  18  19
ENDBRANCH  16  17
ENDBRANCH   1  16
BRANCH   5  24
HETATM   24  C15 UNL     1      27.303   0.078  53.018  1.00  0.00     0.053 A 
HETATM   25  C16 UNL     1      27.535  -1.275  52.867  1.00  0.00     0.031 A 
HETATM   26  C17 UNL     1      28.737  -1.907  53.111  1.00  0.00     0.002 A 
HETATM   27  C18 UNL     1      29.792  -1.122  53.541  1.00  0.00     0.000 A 
HETATM   28  C19 UNL     1      29.611   0.243  53.709  1.00  0.00     0.002 A 
HETATM   29  C20 UNL     1      28.383   0.826  53.449  1.00  0.00     0.031 A 
ENDBRANCH   5  24
TORSDOF 5
ENDMDL
MODEL 3
REMARK VINA RESULT:      -9.2      2.788      6.826
REMARK  5 active torsions:
REMARK  status: ('A' for Active; 'I' for Inactive)
REMARK    1  A    between atoms: C1_1  and  C21_25 
REMARK    2  A    between atoms: C2_2  and  C3_3 
REMARK    3  A    between atoms: C3_3  and  C4_4 
REMARK    4  A    between atoms: C6_6  and  C7_7 
REMARK    5  A    between atoms: N2_18  and  C15_19 
ROOT
HETATM    1  C4  UNL     1      24.678   2.091  51.627  1.00  0.00     0.119 C 
HETATM    2  C5  UNL     1      23.452   1.311  51.211  1.00  0.00     0.089 C 
HETATM    3  C6  UNL     1      23.102   0.637  52.491  1.00  0.00     0.067 C 
HETATM    4  N1  UNL     1      24.124   0.629  53.281  1.00  0.00    -0.175 NA
HETATM    5  N2  UNL     1      25.215   1.256  52.666  1.00  0.00    -0.264 N 
ENDROOT
BRANCH   3   6
HETATM    6  C7  UNL     1      21.772   0.072  52.784  1.00  0.00    -0.007 A 
HETATM    7  C8  UNL     1      21.584  -0.810  53.850  1.00  0.00     0.016 A 
HETATM    8  C9  UNL     1      20.346  -1.347  54.140  1.00  0.00     0.040 A 
HETATM    9  C10 UNL     1      19.307  -0.966  53.320  1.00  0.00     0.102 A 
HETATM   10  C11 UNL     1      19.484  -0.103  52.274  1.00  0.00     0.103 A 
HETATM   11  O2  UNL     1      18.025  -1.432  53.504  1.00  0.00    -0.346 OA
HETATM   12  C12 UNL     1      20.699   0.437  51.974  1.00  0.00     0.053 A 
HETATM   13  O1  UNL     1      18.416   0.263  51.466  1.00  0.00    -0.346 OA
HETATM   14  C13 UNL     1      17.229  -0.507  51.436  1.00  0.00     0.202 C 
HETATM   15  C14 UNL     1      16.896  -0.831  52.899  1.00  0.00     0.202 C 
ENDBRANCH   3   6
BRANCH   1  16
HETATM   16  C3  UNL     1      24.364   3.494  52.047  1.00  0.00     0.055 C 
BRANCH  16  17
HETATM   17  C2  UNL     1      24.110   4.428  50.952  1.00  0.00    -0.024 C 
HETATM   18  C1  UNL     1      24.826   4.696  49.874  1.00  0.00    -0.001 C 
BRANCH  18  19
HETATM   19  C21 UNL     1      26.089   4.025  49.611  1.00  0.00     0.037 C 
HETATM   20  C22 UNL     1      27.065   4.698  49.039  1.00  0.00     0.076 A 
HETATM   21  C23 UNL     1      27.097   6.093  48.595  1.00  0.00     0.062 A 
HETATM   22  O3  UNL     1      28.370   4.627  48.575  1.00  0.00    -0.323 OA
HETATM   23  C24 UNL     1      28.362   5.952  48.167  1.00  0.00     0.145 A 
ENDBRANCH  18  19
ENDBRANCH  16  17
ENDBRANCH   1  16
BRANCH   5  24
HETATM   24  C15 UNL     1      26.566   1.080  53.021  1.00  0.00     0.053 A 
HETATM   25  C16 UNL     1      27.413   2.128  53.323  1.00  0.00     0.031 A 
HETATM   26  C17 UNL     1      28.741   2.000  53.676  1.00  0.00     0.002 A 
HETATM   27  C18 UNL     1      29.264   0.721  53.730  1.00  0.00     0.000 A 
HETATM   28  C19 UNL     1      28.455  -0.367  53.435  1.00  0.00     0.002 A 
HETATM   29  C20 UNL     1      27.128  -0.181  53.087  1.00  0.00     0.031 A 
ENDBRANCH   5  24
TORSDOF 5
ENDMDL
MODEL 4
REMARK VINA RESULT:      -9.2      3.191      7.683
REMARK  5 active torsions:
REMARK  status: ('A' for Active; 'I' for Inactive)
REMARK    1  A    between atoms: C1_1  and  C21_25 
REMARK    2  A    between atoms: C2_2  and  C3_3 
REMARK    3  A    between atoms: C3_3  and  C4_4 
REMARK    4  A    between atoms: C6_6  and  C7_7 
REMARK    5  A    between atoms: N2_18  and  C15_19 
ROOT
HETATM    1  C4  UNL     1      24.908   0.686  53.467  1.00  0.00     0.119 C 
HETATM    2  C5  UNL     1      24.221   1.922  52.932  1.00  0.00     0.089 C 
HETATM    3  C6  UNL     1      24.674   1.903  51.515  1.00  0.00     0.067 C 
HETATM    4  N1  UNL     1      25.724   1.160  51.396  1.00  0.00    -0.175 NA
HETATM    5  N2  UNL     1      26.082   0.626  52.640  1.00  0.00    -0.264 N 
ENDROOT
BRANCH   3   6
HETATM    6  C7  UNL     1      23.998   2.635  50.428  1.00  0.00    -0.007 A 
HETATM    7  C8  UNL     1      24.497   3.854  49.963  1.00  0.00     0.016 A 
HETATM    8  C9  UNL     1      23.878   4.552  48.946  1.00  0.00     0.040 A 
HETATM    9  C10 UNL     1      22.743   3.981  48.415  1.00  0.00     0.102 A 
HETATM   10  C11 UNL     1      22.249   2.788  48.866  1.00  0.00     0.103 A 
HETATM   11  O2  UNL     1      22.035   4.578  47.397  1.00  0.00    -0.346 OA
HETATM   12  C12 UNL     1      22.847   2.086  49.869  1.00  0.00     0.053 A 
HETATM   13  O1  UNL     1      21.102   2.238  48.309  1.00  0.00    -0.346 OA
HETATM   14  C13 UNL     1      20.203   3.034  47.559  1.00  0.00     0.202 C 
HETATM   15  C14 UNL     1      21.072   3.887  46.624  1.00  0.00     0.202 C 
ENDBRANCH   3   6
BRANCH   1  16
HETATM   16  C3  UNL     1      24.040  -0.533  53.417  1.00  0.00     0.055 C 
BRANCH  16  17
HETATM   17  C2  UNL     1      22.944  -0.556  54.383  1.00  0.00    -0.024 C 
HETATM   18  C1  UNL     1      21.636  -0.574  54.193  1.00  0.00    -0.001 C 
BRANCH  18  19
HETATM   19  C21 UNL     1      21.060  -0.574  52.857  1.00  0.00     0.037 C 
HETATM   20  C22 UNL     1      20.531   0.536  52.387  1.00  0.00     0.076 A 
HETATM   21  C23 UNL     1      20.416   1.851  53.021  1.00  0.00     0.062 A 
HETATM   22  O3  UNL     1      19.892   1.115  51.302  1.00  0.00    -0.323 OA
HETATM   23  C24 UNL     1      19.801   2.346  51.934  1.00  0.00     0.145 A 
ENDBRANCH  18  19
ENDBRANCH  16  17
ENDBRANCH   1  16
BRANCH   5  24
HETATM   24  C15 UNL     1      27.355   0.132  52.983  1.00  0.00     0.053 A 
HETATM   25  C16 UNL     1      27.691  -1.206  52.923  1.00  0.00     0.031 A 
HETATM   26  C17 UNL     1      28.925  -1.730  53.250  1.00  0.00     0.002 A 
HETATM   27  C18 UNL     1      29.901  -0.845  53.669  1.00  0.00     0.000 A 
HETATM   28  C19 UNL     1      29.615   0.510  53.746  1.00  0.00     0.002 A 
HETATM   29  C20 UNL     1      28.359   0.983  53.406  1.00  0.00     0.031 A 
ENDBRANCH   5  24
TORSDOF 5
ENDMDL
MODEL 5
REMARK VINA RESULT:      -9.2      2.881      7.832
REMARK  5 active torsions:
REMARK  status: ('A' for Active; 'I' for Inactive)
REMARK    1  A    between atoms: C1_1  and  C21_25 
REMARK    2  A    between atoms: C2_2  and  C3_3 
REMARK    3  A    between atoms: C3_3  and  C4_4 
REMARK    4  A    between atoms: C6_6  and  C7_7 
REMARK    5  A    between atoms: N2_18  and  C15_19 
ROOT
HETATM    1  C4  UNL     1      25.024   2.079  52.201  1.00  0.00     0.119 C 
HETATM    2  C5  UNL     1      23.726   1.861  52.945  1.00  0.00     0.089 C 
HETATM    3  C6  UNL     1      22.777   1.699  51.810  1.00  0.00     0.067 C 
HETATM    4  N1  UNL     1      23.291   2.189  50.731  1.00  0.00    -0.175 NA
HETATM    5  N2  UNL     1      24.564   2.708  50.994  1.00  0.00    -0.264 N 
ENDROOT
BRANCH   3   6
HETATM    6  C7  UNL     1      21.452   1.064  51.933  1.00  0.00    -0.007 A 
HETATM    7  C8  UNL     1      21.122   0.300  53.055  1.00  0.00     0.016 A 
HETATM    8  C9  UNL     1      19.886  -0.300  53.187  1.00  0.00     0.040 A 
HETATM    9  C10 UNL     1      18.998  -0.106  52.153  1.00  0.00     0.102 A 
HETATM   10  C11 UNL     1      19.315   0.641  51.051  1.00  0.00     0.103 A 
HETATM   11  O2  UNL     1      17.735  -0.651  52.165  1.00  0.00    -0.346 OA
HETATM   12  C12 UNL     1      20.530   1.240  50.905  1.00  0.00     0.053 A 
HETATM   13  O1  UNL     1      18.397   0.818  50.025  1.00  0.00    -0.346 OA
HETATM   14  C13 UNL     1      17.285  -0.046  49.885  1.00  0.00     0.202 C 
HETATM   15  C14 UNL     1      16.705  -0.222  51.295  1.00  0.00     0.202 C 
ENDBRANCH   3   6
BRANCH   1  16
HETATM   16  C3  UNL     1      25.800   0.815  51.996  1.00  0.00     0.055 C 
BRANCH  16  17
HETATM   17  C2  UNL     1      25.487  -0.265  52.930  1.00  0.00    -0.024 C 
HETATM   18  C1  UNL     1      26.031  -0.573  54.094  1.00  0.00    -0.001 C 
BRANCH  18  19
HETATM   19  C21 UNL     1      27.125   0.205  54.654  1.00  0.00     0.037 C 
HETATM   20  C22 UNL     1      28.358  -0.065  54.283  1.00  0.00     0.076 A 
HETATM   21  C23 UNL     1      28.846  -1.079  53.345  1.00  0.00     0.062 A 
HETATM   22  O3  UNL     1      29.691   0.283  54.442  1.00  0.00    -0.323 OA
HETATM   23  C24 UNL     1      30.115  -0.689  53.548  1.00  0.00     0.145 A 
ENDBRANCH  18  19
ENDBRANCH  16  17
ENDBRANCH   1  16
BRANCH   5  24
HETATM   24  C15 UNL     1      25.238   3.661  50.206  1.00  0.00     0.053 A 
HETATM   25  C16 UNL     1      24.674   4.863  49.824  1.00  0.00     0.031 A 
HETATM   26  C17 UNL     1      25.298   5.823  49.054  1.00  0.00     0.002 A 
HETATM   27  C18 UNL     1      26.589   5.561  48.633  1.00  0.00     0.000 A 
HETATM   28  C19 UNL     1      27.201   4.368  48.990  1.00  0.00     0.002 A 
HETATM   29  C20 UNL     1      26.528   3.438  49.764  1.00  0.00     0.031 A 
ENDBRANCH   5  24
TORSDOF 5
ENDMDL
MODEL 6
REMARK VINA RESULT:      -9.1      3.627      7.468
REMARK  5 active torsions:
REMARK  status: ('A' for Active; 'I' for Inactive)
REMARK    1  A    between atoms: C1_1  and  C21_25 
REMARK    2  A    between atoms: C2_2  and  C3_3 
REMARK    3  A    between atoms: C3_3  and  C4_4 
REMARK    4  A    between atoms: C6_6  and  C7_7 
REMARK    5  A    between atoms: N2_18  and  C15_19 
ROOT
HETATM    1  C4  UNL     1      24.830   1.911  51.930  1.00  0.00     0.119 C 
HETATM    2  C5  UNL     1      23.556   1.252  51.452  1.00  0.00     0.089 C 
HETATM    3  C6  UNL     1      23.197   0.440  52.647  1.00  0.00     0.067 C 
HETATM    4  N1  UNL     1      24.233   0.282  53.402  1.00  0.00    -0.175 NA
HETATM    5  N2  UNL     1      25.343   0.926  52.842  1.00  0.00    -0.264 N 
ENDROOT
BRANCH   3   6
HETATM    6  C7  UNL     1      21.845  -0.090  52.902  1.00  0.00    -0.007 A 
HETATM    7  C8  UNL     1      21.607  -0.975  53.956  1.00  0.00     0.016 A 
HETATM    8  C9  UNL     1      20.347  -1.480  54.210  1.00  0.00     0.040 A 
HETATM    9  C10 UNL     1      19.340  -1.064  53.369  1.00  0.00     0.102 A 
HETATM   10  C11 UNL     1      19.567  -0.197  52.335  1.00  0.00     0.103 A 
HETATM   11  O2  UNL     1      18.042  -1.495  53.517  1.00  0.00    -0.346 OA
HETATM   12  C12 UNL     1      20.803   0.310  52.070  1.00  0.00     0.053 A 
HETATM   13  O1  UNL     1      18.529   0.204  51.504  1.00  0.00    -0.346 OA
HETATM   14  C13 UNL     1      17.323  -0.533  51.438  1.00  0.00     0.202 C 
HETATM   15  C14 UNL     1      16.946  -0.858  52.890  1.00  0.00     0.202 C 
ENDBRANCH   3   6
BRANCH   1  16
HETATM   16  C3  UNL     1      24.599   3.264  52.529  1.00  0.00     0.055 C 
BRANCH  16  17
HETATM   17  C2  UNL     1      24.069   4.269  51.610  1.00  0.00    -0.024 C 
HETATM   18  C1  UNL     1      22.854   4.779  51.509  1.00  0.00    -0.001 C 
BRANCH  18  19
HETATM   19  C21 UNL     1      21.777   4.362  52.392  1.00  0.00     0.037 C 
HETATM   20  C22 UNL     1      20.620   4.011  51.870  1.00  0.00     0.076 A 
HETATM   21  C23 UNL     1      20.210   3.966  50.465  1.00  0.00     0.062 A 
HETATM   22  O3  UNL     1      19.338   3.565  52.153  1.00  0.00    -0.323 OA
HETATM   23  C24 UNL     1      18.986   3.536  50.813  1.00  0.00     0.145 A 
ENDBRANCH  18  19
ENDBRANCH  16  17
ENDBRANCH   1  16
BRANCH   5  24
HETATM   24  C15 UNL     1      26.690   0.640  53.137  1.00  0.00     0.053 A 
HETATM   25  C16 UNL     1      27.583   1.588  53.595  1.00  0.00     0.031 A 
HETATM   26  C17 UNL     1      28.909   1.350  53.895  1.00  0.00     0.002 A 
HETATM   27  C18 UNL     1      29.378   0.061  53.724  1.00  0.00     0.000 A 
HETATM   28  C19 UNL     1      28.521  -0.929  53.266  1.00  0.00     0.002 A 
HETATM   29  C20 UNL     1      27.199  -0.635  52.979  1.00  0.00     0.031 A 
ENDBRANCH   5  24
TORSDOF 5
ENDMDL
MODEL 7
REMARK VINA RESULT:      -9.0      3.035      7.014
REMARK  5 active torsions:
REMARK  status: ('A' for Active; 'I' for Inactive)
REMARK    1  A    between atoms: C1_1  and  C21_25 
REMARK    2  A    between atoms: C2_2  and  C3_3 
REMARK    3  A    between atoms: C3_3  and  C4_4 
REMARK    4  A    between atoms: C6_6  and  C7_7 
REMARK    5  A    between atoms: N2_18  and  C15_19 
ROOT
HETATM    1  C4  UNL     1      24.183   4.489  49.117  1.00  0.00     0.119 C 
HETATM    2  C5  UNL     1      23.820   3.072  49.496  1.00  0.00     0.089 C 
HETATM    3  C6  UNL     1      24.757   2.837  50.629  1.00  0.00     0.067 C 
HETATM    4  N1  UNL     1      25.728   3.688  50.583  1.00  0.00    -0.175 NA
HETATM    5  N2  UNL     1      25.571   4.542  49.484  1.00  0.00    -0.264 N 
ENDROOT
BRANCH   3   6
HETATM    6  C7  UNL     1      24.574   1.779  51.639  1.00  0.00    -0.007 A 
HETATM    7  C8  UNL     1      25.648   0.988  52.054  1.00  0.00     0.016 A 
HETATM    8  C9  UNL     1      25.495  -0.006  53.000  1.00  0.00     0.040 A 
HETATM    9  C10 UNL     1      24.228  -0.174  53.511  1.00  0.00     0.102 A 
HETATM   10  C11 UNL     1      23.172   0.597  53.109  1.00  0.00     0.103 A 
HETATM   11  O2  UNL     1      23.945  -1.130  54.459  1.00  0.00    -0.346 OA
HETATM   12  C12 UNL     1      23.305   1.582  52.176  1.00  0.00     0.053 A 
HETATM   13  O1  UNL     1      21.905   0.403  53.643  1.00  0.00    -0.346 OA
HETATM   14  C13 UNL     1      21.571  -0.803  54.304  1.00  0.00     0.202 C 
HETATM   15  C14 UNL     1      22.756  -1.123  55.226  1.00  0.00     0.202 C 
ENDBRANCH   3   6
BRANCH   1  16
HETATM   16  C3  UNL     1      23.316   5.513  49.783  1.00  0.00     0.055 C 
BRANCH  16  17
HETATM   17  C2  UNL     1      21.925   5.535  49.336  1.00  0.00    -0.024 C 
HETATM   18  C1  UNL     1      20.813   5.244  49.989  1.00  0.00    -0.001 C 
BRANCH  18  19
HETATM   19  C21 UNL     1      20.834   4.821  51.380  1.00  0.00     0.037 C 
HETATM   20  C22 UNL     1      20.251   3.689  51.714  1.00  0.00     0.076 A 
HETATM   21  C23 UNL     1      19.541   2.725  50.871  1.00  0.00     0.062 A 
HETATM   22  O3  UNL     1      19.960   2.831  52.764  1.00  0.00    -0.323 OA
HETATM   23  C24 UNL     1      19.294   1.942  51.934  1.00  0.00     0.145 A 
ENDBRANCH  18  19
ENDBRANCH  16  17
ENDBRANCH   1  16
BRANCH   5  24
HETATM   24  C15 UNL     1      26.597   5.294  48.880  1.00  0.00     0.053 A 
HETATM   25  C16 UNL     1      26.414   6.575  48.397  1.00  0.00     0.031 A 
HETATM   26  C17 UNL     1      27.390   7.345  47.799  1.00  0.00     0.002 A 
HETATM   27  C18 UNL     1      28.650   6.789  47.673  1.00  0.00     0.000 A 
HETATM   28  C19 UNL     1      28.887   5.506  48.142  1.00  0.00     0.002 A 
HETATM   29  C20 UNL     1      27.870   4.776  48.735  1.00  0.00     0.031 A 
ENDBRANCH   5  24
TORSDOF 5
ENDMDL
MODEL 8
REMARK VINA RESULT:      -8.9      3.154      8.071
REMARK  5 active torsions:
REMARK  status: ('A' for Active; 'I' for Inactive)
REMARK    1  A    between atoms: C1_1  and  C21_25 
REMARK    2  A    between atoms: C2_2  and  C3_3 
REMARK    3  A    between atoms: C3_3  and  C4_4 
REMARK    4  A    between atoms: C6_6  and  C7_7 
REMARK    5  A    between atoms: N2_18  and  C15_19 
ROOT
HETATM    1  C4  UNL     1      24.981   1.037  53.381  1.00  0.00     0.119 C 
HETATM    2  C5  UNL     1      24.553   2.474  53.183  1.00  0.00     0.089 C 
HETATM    3  C6  UNL     1      25.171   2.769  51.861  1.00  0.00     0.067 C 
HETATM    4  N1  UNL     1      26.109   1.916  51.611  1.00  0.00    -0.175 NA
HETATM    5  N2  UNL     1      26.227   1.004  52.666  1.00  0.00    -0.264 N 
ENDROOT
BRANCH   3   6
HETATM    6  C7  UNL     1      24.750   3.880  50.988  1.00  0.00    -0.007 A 
HETATM    7  C8  UNL     1      25.472   4.204  49.837  1.00  0.00     0.016 A 
HETATM    8  C9  UNL     1      25.091   5.240  49.008  1.00  0.00     0.040 A 
HETATM    9  C10 UNL     1      23.963   5.937  49.379  1.00  0.00     0.102 A 
HETATM   10  C11 UNL     1      23.252   5.626  50.505  1.00  0.00     0.103 A 
HETATM   11  O2  UNL     1      23.481   6.991  48.637  1.00  0.00    -0.346 OA
HETATM   12  C12 UNL     1      23.613   4.606  51.334  1.00  0.00     0.053 A 
HETATM   13  O1  UNL     1      22.118   6.348  50.852  1.00  0.00    -0.346 OA
HETATM   14  C13 UNL     1      21.875   7.630  50.304  1.00  0.00     0.202 C 
HETATM   15  C14 UNL     1      22.177   7.514  48.804  1.00  0.00     0.202 C 
ENDBRANCH   3   6
BRANCH   1  16
HETATM   16  C3  UNL     1      23.957   0.052  52.908  1.00  0.00     0.055 C 
BRANCH  16  17
HETATM   17  C2  UNL     1      23.093  -0.496  53.951  1.00  0.00    -0.024 C 
HETATM   18  C1  UNL     1      21.790  -0.371  54.135  1.00  0.00    -0.001 C 
BRANCH  18  19
HETATM   19  C21 UNL     1      20.964   0.409  53.228  1.00  0.00     0.037 C 
HETATM   20  C22 UNL     1      19.748  -0.011  52.946  1.00  0.00     0.076 A 
HETATM   21  C23 UNL     1      19.044  -1.205  53.422  1.00  0.00     0.062 A 
HETATM   22  O3  UNL     1      18.593   0.260  52.228  1.00  0.00    -0.323 OA
HETATM   23  C24 UNL     1      17.959  -0.880  52.700  1.00  0.00     0.145 A 
ENDBRANCH  18  19
ENDBRANCH  16  17
ENDBRANCH   1  16
BRANCH   5  24
HETATM   24  C15 UNL     1      27.362   0.220  52.946  1.00  0.00     0.053 A 
HETATM   25  C16 UNL     1      27.385  -1.155  52.818  1.00  0.00     0.031 A 
HETATM   26  C17 UNL     1      28.474  -1.960  53.081  1.00  0.00     0.002 A 
HETATM   27  C18 UNL     1      29.634  -1.340  53.507  1.00  0.00     0.000 A 
HETATM   28  C19 UNL     1      29.665   0.039  53.652  1.00  0.00     0.002 A 
HETATM   29  C20 UNL     1      28.542   0.799  53.374  1.00  0.00     0.031 A 
ENDBRANCH   5  24
TORSDOF 5
ENDMDL
MODEL 9
REMARK VINA RESULT:      -8.8      1.701      2.282
REMARK  5 active torsions:
REMARK  status: ('A' for Active; 'I' for Inactive)
REMARK    1  A    between atoms: C1_1  and  C21_25 
REMARK    2  A    between atoms: C2_2  and  C3_3 
REMARK    3  A    between atoms: C3_3  and  C4_4 
REMARK    4  A    between atoms: C6_6  and  C7_7 
REMARK    5  A    between atoms: N2_18  and  C15_19 
ROOT
HETATM    1  C4  UNL     1      22.190   3.503  51.163  1.00  0.00     0.119 C 
HETATM    2  C5  UNL     1      23.228   3.392  52.256  1.00  0.00     0.089 C 
HETATM    3  C6  UNL     1      23.375   1.915  52.353  1.00  0.00     0.067 C 
HETATM    4  N1  UNL     1      22.349   1.333  51.827  1.00  0.00    -0.175 NA
HETATM    5  N2  UNL     1      21.446   2.288  51.345  1.00  0.00    -0.264 N 
ENDROOT
BRANCH   3   6
HETATM    6  C7  UNL     1      24.537   1.244  52.965  1.00  0.00    -0.007 A 
HETATM    7  C8  UNL     1      24.414  -0.021  53.545  1.00  0.00     0.016 A 
HETATM    8  C9  UNL     1      25.492  -0.664  54.121  1.00  0.00     0.040 A 
HETATM    9  C10 UNL     1      26.692   0.010  54.093  1.00  0.00     0.102 A 
HETATM   10  C11 UNL     1      26.819   1.249  53.527  1.00  0.00     0.103 A 
HETATM   11  O2  UNL     1      27.840  -0.523  54.634  1.00  0.00    -0.346 OA
HETATM   12  C12 UNL     1      25.767   1.897  52.954  1.00  0.00     0.053 A 
HETATM   13  O1  UNL     1      28.045   1.902  53.514  1.00  0.00    -0.346 OA
HETATM   14  C13 UNL     1      29.085   1.516  54.393  1.00  0.00     0.202 C 
HETATM   15  C14 UNL     1      29.130  -0.018  54.348  1.00  0.00     0.202 C 
ENDBRANCH   3   6
BRANCH   1  16
HETATM   16  C3  UNL     1      22.790   3.676  49.802  1.00  0.00     0.055 C 
BRANCH  16  17
HETATM   17  C2  UNL     1      23.300   5.015  49.513  1.00  0.00    -0.024 C 
HETATM   18  C1  UNL     1      24.534   5.428  49.282  1.00  0.00    -0.001 C 
BRANCH  18  19
HETATM   19  C21 UNL     1      25.660   4.507  49.287  1.00  0.00     0.037 C 
HETATM   20  C22 UNL     1      26.840   4.935  48.889  1.00  0.00     0.076 A 
HETATM   21  C23 UNL     1      27.234   6.263  48.412  1.00  0.00     0.062 A 
HETATM   22  O3  UNL     1      28.164   4.580  48.684  1.00  0.00    -0.323 OA
HETATM   23  C24 UNL     1      28.500   5.849  48.238  1.00  0.00     0.145 A 
ENDBRANCH  18  19
ENDBRANCH  16  17
ENDBRANCH   1  16
BRANCH   5  24
HETATM   24  C15 UNL     1      20.078   2.068  51.097  1.00  0.00     0.053 A 
HETATM   25  C16 UNL     1      19.073   2.840  51.646  1.00  0.00     0.031 A 
HETATM   26  C17 UNL     1      17.723   2.659  51.430  1.00  0.00     0.002 A 
HETATM   27  C18 UNL     1      17.347   1.622  50.596  1.00  0.00     0.000 A 
HETATM   28  C19 UNL     1      18.316   0.816  50.018  1.00  0.00     0.002 A 
HETATM   29  C20 UNL     1      19.659   1.042  50.270  1.00  0.00     0.031 A 
ENDBRANCH   5  24
TORSDOF 5
ENDMDL
