MODEL 1
REMARK VINA RESULT:      -7.7      0.000      0.000
REMARK  3 active torsions:
REMARK  status: ('A' for Active; 'I' for Inactive)
REMARK    1  A    between atoms: O1_2  and  C2_3 
REMARK       I    between atoms: C2_3  and  N1_5 
REMARK    2  A    between atoms: N1_5  and  C3_6 
REMARK    3  A    between atoms: C6_10  and  O3_11 
ROOT
HETATM    1  C3  UNL     1      24.302   1.005  52.382  1.00  0.00     0.017 C 
HETATM    2  C4  UNL     1      24.404   2.052  51.830  1.00  0.00     0.024 C 
HETATM    3  C5  UNL     1      24.445   3.355  51.153  1.00  0.00     0.166 C 
HETATM    4 CL1  UNL     1      25.794   3.193  49.929  1.00  0.00    -0.116 Cl
HETATM    5  C6  UNL     1      23.200   3.884  50.534  1.00  0.00     0.193 C 
HETATM    6  C8  UNL     1      22.863   3.113  49.199  1.00  0.00     0.239 C 
HETATM    7  O4  UNL     1      22.569   1.734  49.540  1.00  0.00    -0.358 OA
HETATM    8  C9  UNL     1      21.702   1.112  48.528  1.00  0.00     0.131 C 
HETATM    9  C10 UNL     1      20.737   1.231  49.418  1.00  0.00     0.004 C 
HETATM   10  C11 UNL     1      19.725   1.398  50.455  1.00  0.00     0.101 C 
HETATM   11  C12 UNL     1      20.346   1.789  51.779  1.00  0.00     0.083 C 
HETATM   12  N2  UNL     1      20.768   2.990  51.481  1.00  0.00    -0.138 NA
HETATM   13  C13 UNL     1      21.451   3.878  52.334  1.00  0.00     0.199 A 
HETATM   14  N3  UNL     1      22.057   3.648  51.301  1.00  0.00    -0.260 N 
HETATM   15  N4  UNL     1      20.234   0.697  52.751  1.00  0.00    -0.382 N 
HETATM   16  C14 UNL     1      21.119   0.519  53.887  1.00  0.00     0.126 C 
HETATM   17  C15 UNL     1      22.539   0.288  53.432  1.00  0.00     0.020 C 
HETATM   18  C16 UNL     1      23.826  -0.112  53.112  1.00  0.00     0.052 C 
HETATM   19  H17 UNL     1      19.449   0.026  52.612  1.00  0.00     0.160 HD
ENDROOT
BRANCH   1  20
HETATM   20  N1  UNL     1      25.654   0.662  52.374  1.00  0.00    -0.306 N 
HETATM   21  C2  UNL     1      26.595   1.036  53.416  1.00  0.00     0.364 C 
HETATM   22  O2  UNL     1      26.413   1.692  54.479  1.00  0.00    -0.238 OA
HETATM   23  H4  UNL     1      26.299   0.134  51.709  1.00  0.00     0.171 HD
BRANCH  21  24
HETATM   24  O1  UNL     1      27.963   0.786  53.554  1.00  0.00    -0.309 OA
HETATM   25  C1  UNL     1      28.364   0.196  54.804  1.00  0.00     0.215 C 
ENDBRANCH  21  24
ENDBRANCH   1  20
BRANCH   5  26
HETATM   26  O3  UNL     1      23.310   5.236  50.167  1.00  0.00    -0.360 OA
HETATM   27  C7  UNL     1      23.997   6.064  50.981  1.00  0.00     0.205 C 
ENDBRANCH   5  26
TORSDOF 3
ENDMDL
MODEL 2
REMARK VINA RESULT:      -7.0      2.108      4.298
REMARK  3 active torsions:
REMARK  status: ('A' for Active; 'I' for Inactive)
REMARK    1  A    between atoms: O1_2  and  C2_3 
REMARK       I    between atoms: C2_3  and  N1_5 
REMARK    2  A    between atoms: N1_5  and  C3_6 
REMARK    3  A    between atoms: C6_10  and  O3_11 
ROOT
HETATM    1  C3  UNL     1      25.632   1.794  51.621  1.00  0.00     0.017 C 
HETATM    2  C4  UNL     1      24.505   1.426  51.543  1.00  0.00     0.024 C 
HETATM    3  C5  UNL     1      23.097   1.037  51.391  1.00  0.00     0.166 C 
HETATM    4 CL1  UNL     1      22.618   0.404  53.039  1.00  0.00    -0.116 Cl
HETATM    5  C6  UNL     1      22.123   2.040  50.883  1.00  0.00     0.193 C 
HETATM    6  C8  UNL     1      21.789   3.113  51.990  1.00  0.00     0.239 C 
HETATM    7  O4  UNL     1      23.001   3.859  52.271  1.00  0.00    -0.358 OA
HETATM    8  C9  UNL     1      22.689   5.196  52.798  1.00  0.00     0.131 C 
HETATM    9  C10 UNL     1      23.038   5.643  51.608  1.00  0.00     0.004 C 
HETATM   10  C11 UNL     1      23.440   6.058  50.269  1.00  0.00     0.101 C 
HETATM   11  C12 UNL     1      24.093   4.924  49.508  1.00  0.00     0.083 C 
HETATM   12  N2  UNL     1      23.060   4.137  49.354  1.00  0.00    -0.138 NA
HETATM   13  C13 UNL     1      23.044   2.886  48.707  1.00  0.00     0.199 A 
HETATM   14  N3  UNL     1      22.634   2.835  49.854  1.00  0.00    -0.260 N 
HETATM   15  N4  UNL     1      25.524   5.179  49.316  1.00  0.00    -0.382 N 
HETATM   16  C14 UNL     1      26.518   4.143  49.105  1.00  0.00     0.126 C 
HETATM   17  C15 UNL     1      26.598   3.223  50.298  1.00  0.00     0.020 C 
HETATM   18  C16 UNL     1      26.874   2.443  51.409  1.00  0.00     0.052 C 
HETATM   19  H17 UNL     1      25.824   6.177  49.314  1.00  0.00     0.160 HD
ENDROOT
BRANCH   1  20
HETATM   20  N1  UNL     1      26.076   0.830  52.526  1.00  0.00    -0.306 N 
HETATM   21  C2  UNL     1      26.456   1.116  53.900  1.00  0.00     0.364 C 
HETATM   22  O2  UNL     1      26.458   2.208  54.532  1.00  0.00    -0.238 OA
HETATM   23  H4  UNL     1      26.261  -0.219  52.488  1.00  0.00     0.171 HD
BRANCH  21  24
HETATM   24  O1  UNL     1      26.923   0.282  54.918  1.00  0.00    -0.309 OA
HETATM   25  C1  UNL     1      28.347   0.076  54.950  1.00  0.00     0.215 C 
ENDBRANCH  21  24
ENDBRANCH   1  20
BRANCH   5  26
HETATM   26  O3  UNL     1      20.889   1.467  50.533  1.00  0.00    -0.360 OA
HETATM   27  C7  UNL     1      19.761   2.048  50.993  1.00  0.00     0.205 C 
ENDBRANCH   5  26
TORSDOF 3
ENDMDL
MODEL 3
REMARK VINA RESULT:      -6.6      6.901      8.803
REMARK  3 active torsions:
REMARK  status: ('A' for Active; 'I' for Inactive)
REMARK    1  A    between atoms: O1_2  and  C2_3 
REMARK       I    between atoms: C2_3  and  N1_5 
REMARK    2  A    between atoms: N1_5  and  C3_6 
REMARK    3  A    between atoms: C6_10  and  O3_11 
ROOT
HETATM    1  C3  UNL     1      29.619   6.808  48.266  1.00  0.00     0.017 C 
HETATM    2  C4  UNL     1      29.656   7.966  48.529  1.00  0.00     0.024 C 
HETATM    3  C5  UNL     1      29.615   9.396  48.865  1.00  0.00     0.166 C 
HETATM    4 CL1  UNL     1      30.932  10.144  47.840  1.00  0.00    -0.116 Cl
HETATM    5  C6  UNL     1      28.329  10.131  48.729  1.00  0.00     0.193 C 
HETATM    6  C8  UNL     1      27.988  10.397  47.212  1.00  0.00     0.239 C 
HETATM    7  O4  UNL     1      27.769   9.114  46.571  1.00  0.00    -0.358 OA
HETATM    8  C9  UNL     1      26.902   9.253  45.391  1.00  0.00     0.131 C 
HETATM    9  C10 UNL     1      25.960   8.711  46.137  1.00  0.00     0.004 C 
HETATM   10  C11 UNL     1      24.973   8.108  47.025  1.00  0.00     0.101 C 
HETATM   11  C12 UNL     1      25.614   7.576  48.289  1.00  0.00     0.083 C 
HETATM   12  N2  UNL     1      25.970   8.703  48.848  1.00  0.00    -0.138 NA
HETATM   13  C13 UNL     1      26.637   8.859  50.079  1.00  0.00     0.199 A 
HETATM   14  N3  UNL     1      27.221   9.390  49.149  1.00  0.00    -0.260 N 
HETATM   15  N4  UNL     1      25.583   6.111  48.315  1.00  0.00    -0.382 N 
HETATM   16  C14 UNL     1      26.509   5.286  49.068  1.00  0.00     0.126 C 
HETATM   17  C15 UNL     1      27.924   5.485  48.583  1.00  0.00     0.020 C 
HETATM   18  C16 UNL     1      29.218   5.461  48.090  1.00  0.00     0.052 C 
HETATM   19  H17 UNL     1      24.826   5.650  47.766  1.00  0.00     0.160 HD
ENDROOT
BRANCH   1  20
HETATM   20  N1  UNL     1      30.985   6.628  48.047  1.00  0.00    -0.306 N 
HETATM   21  C2  UNL     1      31.894   6.035  49.014  1.00  0.00     0.364 C 
HETATM   22  O2  UNL     1      31.668   5.579  50.168  1.00  0.00    -0.238 OA
HETATM   23  H4  UNL     1      31.662   6.850  47.254  1.00  0.00     0.171 HD
BRANCH  21  24
HETATM   24  O1  UNL     1      33.268   5.794  48.957  1.00  0.00    -0.309 OA
HETATM   25  C1  UNL     1      34.068   6.874  48.442  1.00  0.00     0.215 C 
ENDBRANCH  21  24
ENDBRANCH   1  20
BRANCH   5  26
HETATM   26  O3  UNL     1      28.364  11.399  49.332  1.00  0.00    -0.360 OA
HETATM   27  C7  UNL     1      27.991  12.467  48.597  1.00  0.00     0.205 C 
ENDBRANCH   5  26
TORSDOF 3
ENDMDL
MODEL 4
REMARK VINA RESULT:      -6.5      7.867      9.800
REMARK  3 active torsions:
REMARK  status: ('A' for Active; 'I' for Inactive)
REMARK    1  A    between atoms: O1_2  and  C2_3 
REMARK       I    between atoms: C2_3  and  N1_5 
REMARK    2  A    between atoms: N1_5  and  C3_6 
REMARK    3  A    between atoms: C6_10  and  O3_11 
ROOT
HETATM    1  C3  UNL     1      30.150   6.239  48.427  1.00  0.00     0.017 C 
HETATM    2  C4  UNL     1      30.632   7.277  48.748  1.00  0.00     0.024 C 
HETATM    3  C5  UNL     1      31.148   8.595  49.139  1.00  0.00     0.166 C 
HETATM    4 CL1  UNL     1      32.813   8.676  48.385  1.00  0.00    -0.116 Cl
HETATM    5  C6  UNL     1      30.343   9.806  48.826  1.00  0.00     0.193 C 
HETATM    6  C8  UNL     1      30.413  10.148  47.287  1.00  0.00     0.239 C 
HETATM    7  O4  UNL     1      29.780   9.065  46.559  1.00  0.00    -0.358 OA
HETATM    8  C9  UNL     1      29.271   9.527  45.259  1.00  0.00     0.131 C 
HETATM    9  C10 UNL     1      28.076   9.463  45.811  1.00  0.00     0.004 C 
HETATM   10  C11 UNL     1      26.790   9.367  46.492  1.00  0.00     0.101 C 
HETATM   11  C12 UNL     1      26.917   8.649  47.820  1.00  0.00     0.083 C 
HETATM   12  N2  UNL     1      27.619   9.531  48.483  1.00  0.00    -0.138 NA
HETATM   13  C13 UNL     1      28.067   9.422  49.813  1.00  0.00     0.199 A 
HETATM   14  N3  UNL     1      28.971   9.623  49.020  1.00  0.00    -0.260 N 
HETATM   15  N4  UNL     1      26.259   7.340  47.770  1.00  0.00    -0.382 N 
HETATM   16  C14 UNL     1      26.601   6.220  48.627  1.00  0.00     0.126 C 
HETATM   17  C15 UNL     1      28.026   5.780  48.394  1.00  0.00     0.020 C 
HETATM   18  C16 UNL     1      29.249   5.189  48.123  1.00  0.00     0.052 C 
HETATM   19  H17 UNL     1      25.484   7.232  47.082  1.00  0.00     0.160 HD
ENDROOT
BRANCH   1  20
HETATM   20  N1  UNL     1      31.324   5.485  48.431  1.00  0.00    -0.306 N 
HETATM   21  C2  UNL     1      32.193   5.326  47.277  1.00  0.00     0.364 C 
HETATM   22  O2  UNL     1      32.095   5.803  46.113  1.00  0.00    -0.238 OA
HETATM   23  H4  UNL     1      31.838   4.884  49.146  1.00  0.00     0.171 HD
BRANCH  21  24
HETATM   24  O1  UNL     1      33.381   4.609  47.111  1.00  0.00    -0.309 OA
HETATM   25  C1  UNL     1      33.235   3.275  46.592  1.00  0.00     0.215 C 
ENDBRANCH  21  24
ENDBRANCH   1  20
BRANCH   5  26
HETATM   26  O3  UNL     1      30.813  10.954  49.486  1.00  0.00    -0.360 OA
HETATM   27  C7  UNL     1      30.468  12.161  48.991  1.00  0.00     0.205 C 
ENDBRANCH   5  26
TORSDOF 3
ENDMDL
MODEL 5
REMARK VINA RESULT:      -6.5      2.102      2.815
REMARK  3 active torsions:
REMARK  status: ('A' for Active; 'I' for Inactive)
REMARK    1  A    between atoms: O1_2  and  C2_3 
REMARK       I    between atoms: C2_3  and  N1_5 
REMARK    2  A    between atoms: N1_5  and  C3_6 
REMARK    3  A    between atoms: C6_10  and  O3_11 
ROOT
HETATM    1  C3  UNL     1      21.737   1.514  52.277  1.00  0.00     0.017 C 
HETATM    2  C4  UNL     1      21.889   2.691  52.312  1.00  0.00     0.024 C 
HETATM    3  C5  UNL     1      22.014   4.155  52.297  1.00  0.00     0.166 C 
HETATM    4 CL1  UNL     1      23.798   4.464  52.554  1.00  0.00    -0.116 Cl
HETATM    5  C6  UNL     1      21.488   4.911  51.128  1.00  0.00     0.193 C 
HETATM    6  C8  UNL     1      22.429   4.738  49.874  1.00  0.00     0.239 C 
HETATM    7  O4  UNL     1      22.396   3.342  49.478  1.00  0.00    -0.358 OA
HETATM    8  C9  UNL     1      22.724   3.189  48.053  1.00  0.00     0.131 C 
HETATM    9  C10 UNL     1      21.437   2.965  47.879  1.00  0.00     0.004 C 
HETATM   10  C11 UNL     1      20.002   2.729  47.768  1.00  0.00     0.101 C 
HETATM   11  C12 UNL     1      19.362   2.551  49.129  1.00  0.00     0.083 C 
HETATM   12  N2  UNL     1      19.499   3.764  49.598  1.00  0.00    -0.138 NA
HETATM   13  C13 UNL     1      19.087   4.228  50.862  1.00  0.00     0.199 A 
HETATM   14  N3  UNL     1      20.273   4.413  50.649  1.00  0.00    -0.260 N 
HETATM   15  N4  UNL     1      18.921   1.166  49.322  1.00  0.00    -0.382 N 
HETATM   16  C14 UNL     1      18.749   0.536  50.617  1.00  0.00     0.126 C 
HETATM   17  C15 UNL     1      20.059   0.475  51.364  1.00  0.00     0.020 C 
HETATM   18  C16 UNL     1      21.235   0.209  52.044  1.00  0.00     0.052 C 
HETATM   19  H17 UNL     1      18.702   0.621  48.461  1.00  0.00     0.160 HD
ENDROOT
BRANCH   1  20
HETATM   20  N1  UNL     1      22.720   1.175  53.206  1.00  0.00    -0.306 N 
HETATM   21  C2  UNL     1      24.120   0.969  52.872  1.00  0.00     0.364 C 
HETATM   22  O2  UNL     1      24.711   1.053  51.762  1.00  0.00    -0.238 OA
HETATM   23  H4  UNL     1      22.738   0.977  54.254  1.00  0.00     0.171 HD
BRANCH  21  24
HETATM   24  O1  UNL     1      25.214   0.622  53.668  1.00  0.00    -0.309 OA
HETATM   25  C1  UNL     1      25.598  -0.765  53.628  1.00  0.00     0.215 C 
ENDBRANCH  21  24
ENDBRANCH   1  20
BRANCH   5  26
HETATM   26  O3  UNL     1      21.426   6.295  51.362  1.00  0.00    -0.360 OA
HETATM   27  C7  UNL     1      21.452   7.124  50.298  1.00  0.00     0.205 C 
ENDBRANCH   5  26
TORSDOF 3
ENDMDL
MODEL 6
REMARK VINA RESULT:      -6.3     10.458     12.646
REMARK  3 active torsions:
REMARK  status: ('A' for Active; 'I' for Inactive)
REMARK    1  A    between atoms: O1_2  and  C2_3 
REMARK       I    between atoms: C2_3  and  N1_5 
REMARK    2  A    between atoms: N1_5  and  C3_6 
REMARK    3  A    between atoms: C6_10  and  O3_11 
ROOT
HETATM    1  C3  UNL     1      33.731   4.419  46.400  1.00  0.00     0.017 C 
HETATM    2  C4  UNL     1      32.841   4.981  46.952  1.00  0.00     0.024 C 
HETATM    3  C5  UNL     1      31.752   5.741  47.579  1.00  0.00     0.166 C 
HETATM    4 CL1  UNL     1      31.869   5.326  49.357  1.00  0.00    -0.116 Cl
HETATM    5  C6  UNL     1      31.681   7.211  47.362  1.00  0.00     0.193 C 
HETATM    6  C8  UNL     1      32.790   7.960  48.197  1.00  0.00     0.239 C 
HETATM    7  O4  UNL     1      34.086   7.555  47.685  1.00  0.00    -0.358 OA
HETATM    8  C9  UNL     1      35.105   8.581  47.954  1.00  0.00     0.131 C 
HETATM    9  C10 UNL     1      35.015   8.871  46.671  1.00  0.00     0.004 C 
HETATM   10  C11 UNL     1      34.858   9.132  45.245  1.00  0.00     0.101 C 
HETATM   11  C12 UNL     1      34.044   8.049  44.569  1.00  0.00     0.083 C 
HETATM   12  N2  UNL     1      32.877   8.274  45.114  1.00  0.00    -0.138 NA
HETATM   13  C13 UNL     1      31.686   7.563  44.876  1.00  0.00     0.199 A 
HETATM   14  N3  UNL     1      31.997   7.592  46.055  1.00  0.00    -0.260 N 
HETATM   15  N4  UNL     1      34.884   7.249  43.671  1.00  0.00    -0.382 N 
HETATM   16  C14 UNL     1      34.590   5.884  43.277  1.00  0.00     0.126 C 
HETATM   17  C15 UNL     1      34.581   4.968  44.476  1.00  0.00     0.020 C 
HETATM   18  C16 UNL     1      34.733   4.025  45.479  1.00  0.00     0.052 C 
HETATM   19  H17 UNL     1      35.732   7.715  43.286  1.00  0.00     0.160 HD
ENDROOT
BRANCH   1  20
HETATM   20  N1  UNL     1      33.743   3.273  47.195  1.00  0.00    -0.306 N 
HETATM   21  C2  UNL     1      32.784   2.187  47.073  1.00  0.00     0.364 C 
HETATM   22  O2  UNL     1      31.813   2.046  46.280  1.00  0.00    -0.238 OA
HETATM   23  H4  UNL     1      34.340   2.916  48.003  1.00  0.00     0.171 HD
BRANCH  21  24
HETATM   24  O1  UNL     1      32.652   0.992  47.784  1.00  0.00    -0.309 OA
HETATM   25  C1  UNL     1      32.101  -0.113  47.046  1.00  0.00     0.215 C 
ENDBRANCH  21  24
ENDBRANCH   1  20
BRANCH   5  26
HETATM   26  O3  UNL     1      30.459   7.762  47.783  1.00  0.00    -0.360 OA
HETATM   27  C7  UNL     1      30.489   8.778  48.671  1.00  0.00     0.205 C 
ENDBRANCH   5  26
TORSDOF 3
ENDMDL
MODEL 7
REMARK VINA RESULT:      -6.1      3.715      6.889
REMARK  3 active torsions:
REMARK  status: ('A' for Active; 'I' for Inactive)
REMARK    1  A    between atoms: O1_2  and  C2_3 
REMARK       I    between atoms: C2_3  and  N1_5 
REMARK    2  A    between atoms: N1_5  and  C3_6 
REMARK    3  A    between atoms: C6_10  and  O3_11 
ROOT
HETATM    1  C3  UNL     1      18.447   3.482  50.814  1.00  0.00     0.017 C 
HETATM    2  C4  UNL     1      19.068   2.764  51.528  1.00  0.00     0.024 C 
HETATM    3  C5  UNL     1      19.906   1.917  52.386  1.00  0.00     0.166 C 
HETATM    4 CL1  UNL     1      19.108   0.272  52.326  1.00  0.00    -0.116 Cl
HETATM    5  C6  UNL     1      21.365   1.830  52.108  1.00  0.00     0.193 C 
HETATM    6  C8  UNL     1      21.645   0.948  50.830  1.00  0.00     0.239 C 
HETATM    7  O4  UNL     1      21.072   1.627  49.683  1.00  0.00    -0.358 OA
HETATM    8  C9  UNL     1      21.756   1.236  48.441  1.00  0.00     0.131 C 
HETATM    9  C10 UNL     1      22.324   2.424  48.492  1.00  0.00     0.004 C 
HETATM   10  C11 UNL     1      22.911   3.753  48.619  1.00  0.00     0.101 C 
HETATM   11  C12 UNL     1      22.212   4.569  49.686  1.00  0.00     0.083 C 
HETATM   12  N2  UNL     1      22.578   3.903  50.750  1.00  0.00    -0.138 NA
HETATM   13  C13 UNL     1      22.226   4.188  52.083  1.00  0.00     0.199 A 
HETATM   14  N3  UNL     1      21.932   3.054  51.744  1.00  0.00    -0.260 N 
HETATM   15  N4  UNL     1      21.450   5.669  49.087  1.00  0.00    -0.382 N 
HETATM   16  C14 UNL     1      20.305   6.305  49.710  1.00  0.00     0.126 C 
HETATM   17  C15 UNL     1      19.182   5.317  49.907  1.00  0.00     0.020 C 
HETATM   18  C16 UNL     1      18.038   4.537  49.960  1.00  0.00     0.052 C 
HETATM   19  H17 UNL     1      21.780   6.017  48.161  1.00  0.00     0.160 HD
ENDROOT
BRANCH   1  20
HETATM   20  N1  UNL     1      17.187   2.937  51.057  1.00  0.00    -0.306 N 
HETATM   21  C2  UNL     1      16.241   3.470  52.023  1.00  0.00     0.364 C 
HETATM   22  O2  UNL     1      16.337   4.468  52.788  1.00  0.00    -0.238 OA
HETATM   23  H4  UNL     1      16.638   2.100  50.689  1.00  0.00     0.171 HD
BRANCH  21  24
HETATM   24  O1  UNL     1      14.962   3.045  52.390  1.00  0.00    -0.309 OA
HETATM   25  C1  UNL     1      14.191   3.985  53.160  1.00  0.00     0.215 C 
ENDBRANCH  21  24
ENDBRANCH   1  20
BRANCH   5  26
HETATM   26  O3  UNL     1      22.080   1.215  53.150  1.00  0.00    -0.360 OA
HETATM   27  C7  UNL     1      23.250   0.612  52.853  1.00  0.00     0.205 C 
ENDBRANCH   5  26
TORSDOF 3
ENDMDL
MODEL 8
REMARK VINA RESULT:      -6.0     10.791     12.809
REMARK  3 active torsions:
REMARK  status: ('A' for Active; 'I' for Inactive)
REMARK    1  A    between atoms: O1_2  and  C2_3 
REMARK       I    between atoms: C2_3  and  N1_5 
REMARK    2  A    between atoms: N1_5  and  C3_6 
REMARK    3  A    between atoms: C6_10  and  O3_11 
ROOT
HETATM    1  C3  UNL     1      33.212   5.755  44.814  1.00  0.00     0.017 C 
HETATM    2  C4  UNL     1      33.011   6.920  44.929  1.00  0.00     0.024 C 
HETATM    3  C5  UNL     1      32.776   8.352  45.157  1.00  0.00     0.166 C 
HETATM    4 CL1  UNL     1      31.476   8.799  43.950  1.00  0.00    -0.116 Cl
HETATM    5  C6  UNL     1      32.436   8.818  46.528  1.00  0.00     0.193 C 
HETATM    6  C8  UNL     1      30.953   8.434  46.903  1.00  0.00     0.239 C 
HETATM    7  O4  UNL     1      30.863   6.987  46.953  1.00  0.00    -0.358 OA
HETATM    8  C9  UNL     1      29.766   6.554  47.832  1.00  0.00     0.131 C 
HETATM    9  C10 UNL     1      30.711   6.233  48.694  1.00  0.00     0.004 C 
HETATM   10  C11 UNL     1      31.812   5.905  49.592  1.00  0.00     0.101 C 
HETATM   11  C12 UNL     1      33.148   5.984  48.885  1.00  0.00     0.083 C 
HETATM   12  N2  UNL     1      33.214   7.274  48.679  1.00  0.00    -0.138 NA
HETATM   13  C13 UNL     1      34.255   7.971  48.037  1.00  0.00     0.199 A 
HETATM   14  N3  UNL     1      33.165   8.168  47.529  1.00  0.00    -0.260 N 
HETATM   15  N4  UNL     1      33.734   4.650  48.724  1.00  0.00    -0.382 N 
HETATM   16  C14 UNL     1      34.696   4.297  47.697  1.00  0.00     0.126 C 
HETATM   17  C15 UNL     1      34.099   4.463  46.321  1.00  0.00     0.020 C 
HETATM   18  C16 UNL     1      33.586   4.406  45.036  1.00  0.00     0.052 C 
HETATM   19  H17 UNL     1      33.443   3.926  49.415  1.00  0.00     0.160 HD
ENDROOT
BRANCH   1  20
HETATM   20  N1  UNL     1      33.009   5.670  43.437  1.00  0.00    -0.306 N 
HETATM   21  C2  UNL     1      34.065   5.803  42.447  1.00  0.00     0.364 C 
HETATM   22  O2  UNL     1      35.302   5.999  42.600  1.00  0.00    -0.238 OA
HETATM   23  H4  UNL     1      32.164   5.529  42.802  1.00  0.00     0.171 HD
BRANCH  21  24
HETATM   24  O1  UNL     1      34.030   5.754  41.052  1.00  0.00    -0.309 OA
HETATM   25  C1  UNL     1      34.443   4.508  40.462  1.00  0.00     0.215 C 
ENDBRANCH  21  24
ENDBRANCH   1  20
BRANCH   5  26
HETATM   26  O3  UNL     1      32.506  10.215  46.659  1.00  0.00    -0.360 OA
HETATM   27  C7  UNL     1      31.602  10.828  47.451  1.00  0.00     0.205 C 
ENDBRANCH   5  26
TORSDOF 3
ENDMDL
MODEL 9
REMARK VINA RESULT:      -6.0     10.007     12.774
REMARK  3 active torsions:
REMARK  status: ('A' for Active; 'I' for Inactive)
REMARK    1  A    between atoms: O1_2  and  C2_3 
REMARK       I    between atoms: C2_3  and  N1_5 
REMARK    2  A    between atoms: N1_5  and  C3_6 
REMARK    3  A    between atoms: C6_10  and  O3_11 
ROOT
HETATM    1  C3  UNL     1      31.060   8.379  48.334  1.00  0.00     0.017 C 
HETATM    2  C4  UNL     1      31.827   7.475  48.402  1.00  0.00     0.024 C 
HETATM    3  C5  UNL     1      32.835   6.406  48.444  1.00  0.00     0.166 C 
HETATM    4 CL1  UNL     1      31.872   4.863  48.258  1.00  0.00    -0.116 Cl
HETATM    5  C6  UNL     1      33.980   6.458  47.496  1.00  0.00     0.193 C 
HETATM    6  C8  UNL     1      33.521   6.076  46.035  1.00  0.00     0.239 C 
HETATM    7  O4  UNL     1      32.593   7.093  45.577  1.00  0.00    -0.358 OA
HETATM    8  C9  UNL     1      32.576   7.169  44.108  1.00  0.00     0.131 C 
HETATM    9  C10 UNL     1      33.268   8.282  44.253  1.00  0.00     0.004 C 
HETATM   10  C11 UNL     1      34.030   9.501  44.496  1.00  0.00     0.101 C 
HETATM   11  C12 UNL     1      34.015   9.883  45.961  1.00  0.00     0.083 C 
HETATM   12  N2  UNL     1      34.725   8.902  46.454  1.00  0.00    -0.138 NA
HETATM   13  C13 UNL     1      35.060   8.702  47.807  1.00  0.00     0.199 A 
HETATM   14  N3  UNL     1      34.487   7.747  47.311  1.00  0.00    -0.260 N 
HETATM   15  N4  UNL     1      33.228  11.102  46.175  1.00  0.00    -0.382 N 
HETATM   16  C14 UNL     1      32.593  11.456  47.430  1.00  0.00     0.126 C 
HETATM   17  C15 UNL     1      31.555  10.431  47.815  1.00  0.00     0.020 C 
HETATM   18  C16 UNL     1      30.462   9.652  48.157  1.00  0.00     0.052 C 
HETATM   19  H17 UNL     1      33.149  11.754  45.366  1.00  0.00     0.160 HD
ENDROOT
BRANCH   1  20
HETATM   20  N1  UNL     1      29.983   7.751  48.961  1.00  0.00    -0.306 N 
HETATM   21  C2  UNL     1      28.867   7.148  48.252  1.00  0.00     0.364 C 
HETATM   22  O2  UNL     1      28.644   7.056  47.014  1.00  0.00    -0.238 OA
HETATM   23  H4  UNL     1      29.692   7.573  49.971  1.00  0.00     0.171 HD
BRANCH  21  24
HETATM   24  O1  UNL     1      27.723   6.498  48.721  1.00  0.00    -0.309 OA
HETATM   25  C1  UNL     1      26.473   6.986  48.200  1.00  0.00     0.215 C 
ENDBRANCH  21  24
ENDBRANCH   1  20
BRANCH   5  26
HETATM   26  O3  UNL     1      34.994   5.542  47.821  1.00  0.00    -0.360 OA
HETATM   27  C7  UNL     1      35.351   5.417  49.116  1.00  0.00     0.205 C 
ENDBRANCH   5  26
TORSDOF 3
ENDMDL
