MODEL 1
REMARK VINA RESULT:      -8.2      0.000      0.000
REMARK  4 active torsions:
REMARK  status: ('A' for Active; 'I' for Inactive)
REMARK    1  A    between atoms: C2_2  and  N1_3 
REMARK    2  A    between atoms: N3_13  and  C10_14 
REMARK    3  A    between atoms: C10_14  and  C11_15 
REMARK    4  A    between atoms: C20_25  and  C21_26 
ROOT
HETATM    1  N1  UNL     1      22.010  -0.653  53.463  1.00  0.00     0.089 NA
HETATM    2  C3  UNL     1      21.143   0.271  54.063  1.00  0.00     0.292 C 
HETATM    3  C4  UNL     1      20.211   1.184  53.390  1.00  0.00     0.153 C 
HETATM    4  N2  UNL     1      20.558   2.076  52.352  1.00  0.00    -0.356 N 
HETATM    5  C5  UNL     1      20.970   2.607  51.100  1.00  0.00     0.242 C 
HETATM    6  O1  UNL     1      21.118   1.550  50.450  1.00  0.00    -0.269 OA
HETATM    7  C6  UNL     1      21.250   3.803  50.371  1.00  0.00     0.088 C 
HETATM    8  C7  UNL     1      21.831   4.384  51.405  1.00  0.00     0.004 C 
HETATM    9  C8  UNL     1      23.063   4.017  51.530  1.00  0.00     0.015 C 
HETATM   10  C9  UNL     1      23.903   5.100  52.009  1.00  0.00     0.069 C 
HETATM   11  N3  UNL     1      23.834   2.876  51.321  1.00  0.00    -0.373 N 
HETATM   12  C20 UNL     1      24.476   1.792  52.077  1.00  0.00     0.120 C 
HETATM   13  C22 UNL     1      23.422   0.948  52.580  1.00  0.00     0.058 C 
HETATM   14  C23 UNL     1      23.473  -0.223  53.413  1.00  0.00     0.274 C 
HETATM   15  H10 UNL     1      20.497   3.084  52.616  1.00  0.00     0.162 HD
ENDROOT
BRANCH  11  16
HETATM   16  C10 UNL     1      24.063   2.902  49.891  1.00  0.00     0.151 C 
BRANCH  16  17
HETATM   17  C11 UNL     1      25.352   3.513  49.500  1.00  0.00     0.002 C 
HETATM   18  C12 UNL     1      26.018   4.573  49.037  1.00  0.00    -0.030 C 
HETATM   19  C13 UNL     1      27.474   4.848  48.742  1.00  0.00     0.159 C 
HETATM   20  C19 UNL     1      25.389   5.853  48.667  1.00  0.00    -0.002 A 
HETATM   21  N4  UNL     1      27.543   6.221  49.257  1.00  0.00    -0.385 N 
HETATM   22  C14 UNL     1      26.345   6.859  48.808  1.00  0.00     0.039 A 
HETATM   23  H20 UNL     1      28.250   6.741  49.832  1.00  0.00     0.160 HD
HETATM   24  C15 UNL     1      25.970   8.160  48.510  1.00  0.00     0.030 A 
HETATM   25  C16 UNL     1      24.705   8.506  48.083  1.00  0.00     0.002 A 
HETATM   26  C17 UNL     1      23.752   7.510  47.941  1.00  0.00     0.001 A 
HETATM   27  C18 UNL     1      24.115   6.216  48.235  1.00  0.00     0.014 A 
ENDBRANCH  16  17
ENDBRANCH  11  16
BRANCH  12  28
HETATM   28  C21 UNL     1      25.297   2.285  53.187  1.00  0.00     0.416 C 
HETATM   29  O2  UNL     1      26.063   2.366  54.114  1.00  0.00    -0.428 OA
ENDBRANCH  12  28
BRANCH   1  30
HETATM   30  C2  UNL     1      22.220  -1.824  54.403  1.00  0.00     0.268 C 
HETATM   31  C1  UNL     1      23.206  -1.316  55.427  1.00  0.00     0.037 C 
ENDBRANCH   1  30
TORSDOF 4
ENDMDL
MODEL 2
REMARK VINA RESULT:      -8.0      1.957      7.409
REMARK  4 active torsions:
REMARK  status: ('A' for Active; 'I' for Inactive)
REMARK    1  A    between atoms: C2_2  and  N1_3 
REMARK    2  A    between atoms: N3_13  and  C10_14 
REMARK    3  A    between atoms: C10_14  and  C11_15 
REMARK    4  A    between atoms: C20_25  and  C21_26 
ROOT
HETATM    1  N1  UNL     1      26.373   5.227  49.351  1.00  0.00     0.089 NA
HETATM    2  C3  UNL     1      25.811   6.198  48.508  1.00  0.00     0.292 C 
HETATM    3  C4  UNL     1      24.966   7.333  48.899  1.00  0.00     0.153 C 
HETATM    4  N2  UNL     1      23.799   7.240  49.689  1.00  0.00    -0.356 N 
HETATM    5  C5  UNL     1      22.910   7.034  50.778  1.00  0.00     0.242 C 
HETATM    6  O1  UNL     1      23.728   6.747  51.678  1.00  0.00    -0.269 OA
HETATM    7  C6  UNL     1      21.542   7.039  51.189  1.00  0.00     0.088 C 
HETATM    8  C7  UNL     1      21.126   6.493  50.062  1.00  0.00     0.004 C 
HETATM    9  C8  UNL     1      21.260   5.209  50.072  1.00  0.00     0.015 C 
HETATM   10  C9  UNL     1      20.181   4.546  49.361  1.00  0.00     0.069 C 
HETATM   11  N3  UNL     1      22.141   4.260  50.587  1.00  0.00    -0.373 N 
HETATM   12  C20 UNL     1      23.226   3.371  50.150  1.00  0.00     0.120 C 
HETATM   13  C22 UNL     1      24.358   4.209  49.844  1.00  0.00     0.058 C 
HETATM   14  C23 UNL     1      25.662   3.876  49.337  1.00  0.00     0.274 C 
HETATM   15  H10 UNL     1      22.918   7.464  49.176  1.00  0.00     0.162 HD
ENDROOT
BRANCH  11  16
HETATM   16  C10 UNL     1      21.725   4.156  51.971  1.00  0.00     0.151 C 
BRANCH  16  17
HETATM   17  C11 UNL     1      20.977   2.918  52.281  1.00  0.00     0.002 C 
HETATM   18  C12 UNL     1      20.990   1.652  52.703  1.00  0.00    -0.030 C 
HETATM   19  C13 UNL     1      19.922   0.605  52.907  1.00  0.00     0.159 C 
HETATM   20  C19 UNL     1      22.207   0.923  53.104  1.00  0.00    -0.002 A 
HETATM   21  N4  UNL     1      20.417   0.032  54.165  1.00  0.00    -0.385 N 
HETATM   22  C14 UNL     1      21.834  -0.073  54.006  1.00  0.00     0.039 A 
HETATM   23  H20 UNL     1      19.949  -0.274  55.053  1.00  0.00     0.160 HD
HETATM   24  C15 UNL     1      22.828  -0.892  54.519  1.00  0.00     0.030 A 
HETATM   25  C16 UNL     1      24.160  -0.769  54.184  1.00  0.00     0.002 A 
HETATM   26  C17 UNL     1      24.535   0.219  53.287  1.00  0.00     0.001 A 
HETATM   27  C18 UNL     1      23.556   1.036  52.773  1.00  0.00     0.014 A 
ENDBRANCH  16  17
ENDBRANCH  11  16
BRANCH  12  28
HETATM   28  C21 UNL     1      22.864   2.568  48.979  1.00  0.00     0.416 C 
HETATM   29  O2  UNL     1      22.592   2.207  47.862  1.00  0.00    -0.428 OA
ENDBRANCH  12  28
BRANCH   1  30
HETATM   30  C2  UNL     1      27.670   4.730  48.744  1.00  0.00     0.268 C 
HETATM   31  C1  UNL     1      28.338   5.972  48.207  1.00  0.00     0.037 C 
ENDBRANCH   1  30
TORSDOF 4
ENDMDL
MODEL 3
REMARK VINA RESULT:      -7.8      6.961     11.984
REMARK  4 active torsions:
REMARK  status: ('A' for Active; 'I' for Inactive)
REMARK    1  A    between atoms: C2_2  and  N1_3 
REMARK    2  A    between atoms: N3_13  and  C10_14 
REMARK    3  A    between atoms: C10_14  and  C11_15 
REMARK    4  A    between atoms: C20_25  and  C21_26 
ROOT
HETATM    1  N1  UNL     1      33.250   4.845  43.522  1.00  0.00     0.089 NA
HETATM    2  C3  UNL     1      34.599   4.608  43.828  1.00  0.00     0.292 C 
HETATM    3  C4  UNL     1      35.145   4.063  45.077  1.00  0.00     0.153 C 
HETATM    4  N2  UNL     1      34.866   4.562  46.368  1.00  0.00    -0.356 N 
HETATM    5  C5  UNL     1      34.198   4.918  47.571  1.00  0.00     0.242 C 
HETATM    6  O1  UNL     1      33.061   4.458  47.335  1.00  0.00    -0.269 OA
HETATM    7  C6  UNL     1      34.338   5.551  48.844  1.00  0.00     0.088 C 
HETATM    8  C7  UNL     1      35.102   6.515  48.362  1.00  0.00     0.004 C 
HETATM    9  C8  UNL     1      34.403   7.457  47.824  1.00  0.00     0.015 C 
HETATM   10  C9  UNL     1      35.001   8.763  48.037  1.00  0.00     0.069 C 
HETATM   11  N3  UNL     1      33.217   7.591  47.104  1.00  0.00    -0.373 N 
HETATM   12  C20 UNL     1      32.750   7.821  45.730  1.00  0.00     0.120 C 
HETATM   13  C22 UNL     1      33.030   6.621  44.984  1.00  0.00     0.058 C 
HETATM   14  C23 UNL     1      32.824   6.309  43.596  1.00  0.00     0.274 C 
HETATM   15  H10 UNL     1      35.686   5.003  46.842  1.00  0.00     0.162 HD
ENDROOT
BRANCH  11  16
HETATM   16  C10 UNL     1      32.206   7.529  48.140  1.00  0.00     0.151 C 
BRANCH  16  17
HETATM   17  C11 UNL     1      30.963   8.261  47.809  1.00  0.00     0.002 C 
HETATM   18  C12 UNL     1      29.631   8.272  47.737  1.00  0.00    -0.030 C 
HETATM   19  C13 UNL     1      28.614   9.303  47.309  1.00  0.00     0.159 C 
HETATM   20  C19 UNL     1      28.770   7.134  48.104  1.00  0.00    -0.002 A 
HETATM   21  N4  UNL     1      27.608   9.061  48.350  1.00  0.00    -0.385 N 
HETATM   22  C14 UNL     1      27.525   7.639  48.479  1.00  0.00     0.039 A 
HETATM   23  H20 UNL     1      27.014   9.693  48.941  1.00  0.00     0.160 HD
HETATM   24  C15 UNL     1      26.546   6.737  48.867  1.00  0.00     0.030 A 
HETATM   25  C16 UNL     1      26.742   5.373  48.899  1.00  0.00     0.002 A 
HETATM   26  C17 UNL     1      27.976   4.866  48.527  1.00  0.00     0.001 A 
HETATM   27  C18 UNL     1      28.954   5.753  48.141  1.00  0.00     0.014 A 
ENDBRANCH  16  17
ENDBRANCH  11  16
BRANCH  12  28
HETATM   28  C21 UNL     1      33.400   8.971  45.096  1.00  0.00     0.416 C 
HETATM   29  O2  UNL     1      34.212   9.767  44.697  1.00  0.00    -0.428 OA
ENDBRANCH  12  28
BRANCH   1  30
HETATM   30  C2  UNL     1      33.043   4.694  42.028  1.00  0.00     0.268 C 
HETATM   31  C1  UNL     1      34.388   5.015  41.424  1.00  0.00     0.037 C 
ENDBRANCH   1  30
TORSDOF 4
ENDMDL
MODEL 4
REMARK VINA RESULT:      -7.7      2.038      8.011
REMARK  4 active torsions:
REMARK  status: ('A' for Active; 'I' for Inactive)
REMARK    1  A    between atoms: C2_2  and  N1_3 
REMARK    2  A    between atoms: N3_13  and  C10_14 
REMARK    3  A    between atoms: C10_14  and  C11_15 
REMARK    4  A    between atoms: C20_25  and  C21_26 
ROOT
HETATM    1  N1  UNL     1      24.513   6.828  47.685  1.00  0.00     0.089 NA
HETATM    2  C3  UNL     1      25.048   7.306  48.891  1.00  0.00     0.292 C 
HETATM    3  C4  UNL     1      25.900   6.575  49.837  1.00  0.00     0.153 C 
HETATM    4  N2  UNL     1      25.599   5.311  50.389  1.00  0.00    -0.356 N 
HETATM    5  C5  UNL     1      25.347   3.921  50.539  1.00  0.00     0.242 C 
HETATM    6  O1  UNL     1      25.538   3.535  49.367  1.00  0.00    -0.269 OA
HETATM    7  C6  UNL     1      24.990   2.889  51.460  1.00  0.00     0.088 C 
HETATM    8  C7  UNL     1      24.115   3.651  52.089  1.00  0.00     0.004 C 
HETATM    9  C8  UNL     1      22.978   3.680  51.478  1.00  0.00     0.015 C 
HETATM   10  C9  UNL     1      21.866   3.750  52.409  1.00  0.00     0.069 C 
HETATM   11  N3  UNL     1      22.499   3.644  50.170  1.00  0.00    -0.373 N 
HETATM   12  C20 UNL     1      21.942   4.539  49.146  1.00  0.00     0.120 C 
HETATM   13  C22 UNL     1      23.020   5.382  48.695  1.00  0.00     0.058 C 
HETATM   14  C23 UNL     1      23.033   6.459  47.742  1.00  0.00     0.274 C 
HETATM   15  H10 UNL     1      25.410   5.327  51.416  1.00  0.00     0.162 HD
ENDROOT
BRANCH  11  16
HETATM   16  C10 UNL     1      22.557   2.233  49.847  1.00  0.00     0.151 C 
BRANCH  16  17
HETATM   17  C11 UNL     1      21.371   1.467  50.288  1.00  0.00     0.002 C 
HETATM   18  C12 UNL     1      20.809   0.647  51.178  1.00  0.00    -0.030 C 
HETATM   19  C13 UNL     1      19.441   0.019  51.307  1.00  0.00     0.159 C 
HETATM   20  C19 UNL     1      21.497   0.114  52.367  1.00  0.00    -0.002 A 
HETATM   21  N4  UNL     1      19.268   0.172  52.756  1.00  0.00    -0.385 N 
HETATM   22  C14 UNL     1      20.531  -0.174  53.331  1.00  0.00     0.039 A 
HETATM   23  H20 UNL     1      18.460   0.459  53.361  1.00  0.00     0.160 HD
HETATM   24  C15 UNL     1      20.956  -0.692  54.545  1.00  0.00     0.030 A 
HETATM   25  C16 UNL     1      22.280  -0.935  54.844  1.00  0.00     0.002 A 
HETATM   26  C17 UNL     1      23.244  -0.651  53.889  1.00  0.00     0.001 A 
HETATM   27  C18 UNL     1      22.831  -0.136  52.682  1.00  0.00     0.014 A 
ENDBRANCH  16  17
ENDBRANCH  11  16
BRANCH  12  28
HETATM   28  C21 UNL     1      20.839   5.360  49.651  1.00  0.00     0.416 C 
HETATM   29  O2  UNL     1      19.804   5.967  49.762  1.00  0.00    -0.428 OA
ENDBRANCH  12  28
BRANCH   1  30
HETATM   30  C2  UNL     1      24.351   7.984  46.718  1.00  0.00     0.268 C 
HETATM   31  C1  UNL     1      25.762   8.355  46.331  1.00  0.00     0.037 C 
ENDBRANCH   1  30
TORSDOF 4
ENDMDL
MODEL 5
REMARK VINA RESULT:      -7.6      2.685      6.140
REMARK  4 active torsions:
REMARK  status: ('A' for Active; 'I' for Inactive)
REMARK    1  A    between atoms: C2_2  and  N1_3 
REMARK    2  A    between atoms: N3_13  and  C10_14 
REMARK    3  A    between atoms: C10_14  and  C11_15 
REMARK    4  A    between atoms: C20_25  and  C21_26 
ROOT
HETATM    1  N1  UNL     1      18.363   2.890  50.714  1.00  0.00     0.089 NA
HETATM    2  C3  UNL     1      17.949   3.470  49.506  1.00  0.00     0.292 C 
HETATM    3  C4  UNL     1      18.375   3.100  48.150  1.00  0.00     0.153 C 
HETATM    4  N2  UNL     1      19.716   2.993  47.723  1.00  0.00    -0.356 N 
HETATM    5  C5  UNL     1      21.061   2.560  47.566  1.00  0.00     0.242 C 
HETATM    6  O1  UNL     1      21.063   1.571  48.328  1.00  0.00    -0.269 OA
HETATM    7  C6  UNL     1      22.304   2.817  46.911  1.00  0.00     0.088 C 
HETATM    8  C7  UNL     1      22.185   4.126  47.039  1.00  0.00     0.004 C 
HETATM    9  C8  UNL     1      22.566   4.530  48.204  1.00  0.00     0.015 C 
HETATM   10  C9  UNL     1      23.215   5.827  48.141  1.00  0.00     0.069 C 
HETATM   11  N3  UNL     1      22.552   4.071  49.520  1.00  0.00    -0.373 N 
HETATM   12  C20 UNL     1      21.832   4.284  50.783  1.00  0.00     0.120 C 
HETATM   13  C22 UNL     1      20.511   3.735  50.611  1.00  0.00     0.058 C 
HETATM   14  C23 UNL     1      19.383   3.707  51.503  1.00  0.00     0.274 C 
HETATM   15  H10 UNL     1      20.001   3.716  47.025  1.00  0.00     0.162 HD
ENDROOT
BRANCH  11  16
HETATM   16  C10 UNL     1      23.672   3.154  49.551  1.00  0.00     0.151 C 
BRANCH  16  17
HETATM   17  C11 UNL     1      24.290   3.005  50.887  1.00  0.00     0.002 C 
HETATM   18  C12 UNL     1      24.346   2.356  52.052  1.00  0.00    -0.030 C 
HETATM   19  C13 UNL     1      25.190   2.507  53.295  1.00  0.00     0.159 C 
HETATM   20  C19 UNL     1      23.483   1.217  52.411  1.00  0.00    -0.002 A 
HETATM   21  N4  UNL     1      25.419   1.085  53.576  1.00  0.00    -0.385 N 
HETATM   22  C14 UNL     1      24.161   0.443  53.353  1.00  0.00     0.039 A 
HETATM   23  H20 UNL     1      26.260   0.535  53.878  1.00  0.00     0.160 HD
HETATM   24  C15 UNL     1      23.530  -0.692  53.838  1.00  0.00     0.030 A 
HETATM   25  C16 UNL     1      22.273  -1.091  53.437  1.00  0.00     0.002 A 
HETATM   26  C17 UNL     1      21.595  -0.325  52.502  1.00  0.00     0.001 A 
HETATM   27  C18 UNL     1      22.213   0.803  52.015  1.00  0.00     0.014 A 
ENDBRANCH  16  17
ENDBRANCH  11  16
BRANCH  12  28
HETATM   28  C21 UNL     1      21.744   5.700  51.153  1.00  0.00     0.416 C 
HETATM   29  O2  UNL     1      21.522   6.884  51.155  1.00  0.00    -0.428 OA
ENDBRANCH  12  28
BRANCH   1  30
HETATM   30  C2  UNL     1      17.246   3.006  51.732  1.00  0.00     0.268 C 
HETATM   31  C1  UNL     1      16.548   4.298  51.384  1.00  0.00     0.037 C 
ENDBRANCH   1  30
TORSDOF 4
ENDMDL
MODEL 6
REMARK VINA RESULT:      -7.5      6.126      9.802
REMARK  4 active torsions:
REMARK  status: ('A' for Active; 'I' for Inactive)
REMARK    1  A    between atoms: C2_2  and  N1_3 
REMARK    2  A    between atoms: N3_13  and  C10_14 
REMARK    3  A    between atoms: C10_14  and  C11_15 
REMARK    4  A    between atoms: C20_25  and  C21_26 
ROOT
HETATM    1  N1  UNL     1      26.452   7.170  48.439  1.00  0.00     0.089 NA
HETATM    2  C3  UNL     1      26.580   7.914  49.621  1.00  0.00     0.292 C 
HETATM    3  C4  UNL     1      27.001   9.315  49.750  1.00  0.00     0.153 C 
HETATM    4  N2  UNL     1      28.179   9.860  49.194  1.00  0.00    -0.356 N 
HETATM    5  C5  UNL     1      29.158  10.324  48.274  1.00  0.00     0.242 C 
HETATM    6  O1  UNL     1      28.557  10.129  47.197  1.00  0.00    -0.269 OA
HETATM    7  C6  UNL     1      30.463  10.887  48.139  1.00  0.00     0.088 C 
HETATM    8  C7  UNL     1      30.965  10.142  49.107  1.00  0.00     0.004 C 
HETATM    9  C8  UNL     1      31.287   8.964  48.687  1.00  0.00     0.015 C 
HETATM   10  C9  UNL     1      32.477   8.461  49.349  1.00  0.00     0.069 C 
HETATM   11  N3  UNL     1      30.830   8.030  47.760  1.00  0.00    -0.373 N 
HETATM   12  C20 UNL     1      30.095   6.759  47.705  1.00  0.00     0.120 C 
HETATM   13  C22 UNL     1      28.724   7.051  48.037  1.00  0.00     0.058 C 
HETATM   14  C23 UNL     1      27.585   6.184  48.176  1.00  0.00     0.274 C 
HETATM   15  H10 UNL     1      28.890  10.153  49.902  1.00  0.00     0.162 HD
ENDROOT
BRANCH  11  16
HETATM   16  C10 UNL     1      31.352   8.540  46.508  1.00  0.00     0.151 C 
BRANCH  16  17
HETATM   17  C11 UNL     1      31.821   7.488  45.580  1.00  0.00     0.002 C 
HETATM   18  C12 UNL     1      32.572   6.406  45.368  1.00  0.00    -0.030 C 
HETATM   19  C13 UNL     1      32.817   5.519  44.171  1.00  0.00     0.159 C 
HETATM   20  C19 UNL     1      33.428   5.776  46.389  1.00  0.00    -0.002 A 
HETATM   21  N4  UNL     1      32.823   4.222  44.859  1.00  0.00    -0.385 N 
HETATM   22  C14 UNL     1      33.573   4.429  46.058  1.00  0.00     0.039 A 
HETATM   23  H20 UNL     1      32.412   3.283  44.633  1.00  0.00     0.160 HD
HETATM   24  C15 UNL     1      34.347   3.634  46.889  1.00  0.00     0.030 A 
HETATM   25  C16 UNL     1      34.978   4.107  48.020  1.00  0.00     0.002 A 
HETATM   26  C17 UNL     1      34.838   5.446  48.352  1.00  0.00     0.001 A 
HETATM   27  C18 UNL     1      34.071   6.242  47.534  1.00  0.00     0.014 A 
ENDBRANCH  16  17
ENDBRANCH  11  16
BRANCH  12  28
HETATM   28  C21 UNL     1      30.632   5.754  48.627  1.00  0.00     0.416 C 
HETATM   29  O2  UNL     1      31.317   5.158  49.419  1.00  0.00    -0.428 OA
ENDBRANCH  12  28
BRANCH   1  30
HETATM   30  C2  UNL     1      25.370   6.124  48.622  1.00  0.00     0.268 C 
HETATM   31  C1  UNL     1      24.096   6.819  48.207  1.00  0.00     0.037 C 
ENDBRANCH   1  30
TORSDOF 4
ENDMDL
MODEL 7
REMARK VINA RESULT:      -7.3      1.857      2.980
REMARK  4 active torsions:
REMARK  status: ('A' for Active; 'I' for Inactive)
REMARK    1  A    between atoms: C2_2  and  N1_3 
REMARK    2  A    between atoms: N3_13  and  C10_14 
REMARK    3  A    between atoms: C10_14  and  C11_15 
REMARK    4  A    between atoms: C20_25  and  C21_26 
ROOT
HETATM    1  N1  UNL     1      24.177   0.532  52.091  1.00  0.00     0.089 NA
HETATM    2  C3  UNL     1      22.855   0.317  52.508  1.00  0.00     0.292 C 
HETATM    3  C4  UNL     1      21.663   0.197  51.658  1.00  0.00     0.153 C 
HETATM    4  N2  UNL     1      21.277   1.126  50.668  1.00  0.00    -0.356 N 
HETATM    5  C5  UNL     1      21.245   1.920  49.490  1.00  0.00     0.242 C 
HETATM    6  O1  UNL     1      22.262   1.490  48.907  1.00  0.00    -0.269 OA
HETATM    7  C6  UNL     1      20.535   2.939  48.784  1.00  0.00     0.088 C 
HETATM    8  C7  UNL     1      20.276   3.622  49.884  1.00  0.00     0.004 C 
HETATM    9  C8  UNL     1      21.270   4.371  50.229  1.00  0.00     0.015 C 
HETATM   10  C9  UNL     1      20.826   5.624  50.812  1.00  0.00     0.069 C 
HETATM   11  N3  UNL     1      22.662   4.334  50.188  1.00  0.00    -0.373 N 
HETATM   12  C20 UNL     1      23.813   4.112  51.075  1.00  0.00     0.120 C 
HETATM   13  C22 UNL     1      23.817   2.711  51.415  1.00  0.00     0.058 C 
HETATM   14  C23 UNL     1      24.686   1.958  52.279  1.00  0.00     0.274 C 
HETATM   15  H10 UNL     1      20.396   1.643  50.888  1.00  0.00     0.162 HD
ENDROOT
BRANCH  11  16
HETATM   16  C10 UNL     1      22.952   4.703  48.818  1.00  0.00     0.151 C 
BRANCH  16  17
HETATM   17  C11 UNL     1      23.518   6.061  48.670  1.00  0.00     0.002 C 
HETATM   18  C12 UNL     1      24.593   6.841  48.529  1.00  0.00    -0.030 C 
HETATM   19  C13 UNL     1      24.795   8.331  48.397  1.00  0.00     0.159 C 
HETATM   20  C19 UNL     1      25.978   6.342  48.470  1.00  0.00    -0.002 A 
HETATM   21  N4  UNL     1      25.846   8.317  47.372  1.00  0.00    -0.385 N 
HETATM   22  C14 UNL     1      26.738   7.266  47.753  1.00  0.00     0.039 A 
HETATM   23  H20 UNL     1      26.022   8.889  46.510  1.00  0.00     0.160 HD
HETATM   24  C15 UNL     1      28.086   7.000  47.571  1.00  0.00     0.030 A 
HETATM   25  C16 UNL     1      28.709   5.872  48.062  1.00  0.00     0.002 A 
HETATM   26  C17 UNL     1      27.959   4.951  48.777  1.00  0.00     0.001 A 
HETATM   27  C18 UNL     1      26.620   5.207  48.961  1.00  0.00     0.014 A 
ENDBRANCH  16  17
ENDBRANCH  11  16
BRANCH  12  28
HETATM   28  C21 UNL     1      23.754   4.924  52.293  1.00  0.00     0.416 C 
HETATM   29  O2  UNL     1      23.585   5.306  53.424  1.00  0.00    -0.428 OA
ENDBRANCH  12  28
BRANCH   1  30
HETATM   30  C2  UNL     1      25.124  -0.107  53.088  1.00  0.00     0.268 C 
HETATM   31  C1  UNL     1      26.440  -0.199  52.356  1.00  0.00     0.037 C 
ENDBRANCH   1  30
TORSDOF 4
ENDMDL
MODEL 8
REMARK VINA RESULT:      -7.2      1.649      3.713
REMARK  4 active torsions:
REMARK  status: ('A' for Active; 'I' for Inactive)
REMARK    1  A    between atoms: C2_2  and  N1_3 
REMARK    2  A    between atoms: N3_13  and  C10_14 
REMARK    3  A    between atoms: C10_14  and  C11_15 
REMARK    4  A    between atoms: C20_25  and  C21_26 
ROOT
HETATM    1  N1  UNL     1      22.371  -0.110  54.074  1.00  0.00     0.089 NA
HETATM    2  C3  UNL     1      23.245  -0.884  53.296  1.00  0.00     0.292 C 
HETATM    3  C4  UNL     1      24.686  -0.677  53.104  1.00  0.00     0.153 C 
HETATM    4  N2  UNL     1      25.283   0.536  52.696  1.00  0.00    -0.356 N 
HETATM    5  C5  UNL     1      25.741   1.881  52.667  1.00  0.00     0.242 C 
HETATM    6  O1  UNL     1      25.375   2.263  53.798  1.00  0.00    -0.269 OA
HETATM    7  C6  UNL     1      26.412   2.872  51.887  1.00  0.00     0.088 C 
HETATM    8  C7  UNL     1      25.825   2.492  50.766  1.00  0.00     0.004 C 
HETATM    9  C8  UNL     1      24.648   3.006  50.644  1.00  0.00     0.015 C 
HETATM   10  C9  UNL     1      24.336   3.321  49.261  1.00  0.00     0.069 C 
HETATM   11  N3  UNL     1      23.581   3.368  51.464  1.00  0.00    -0.373 N 
HETATM   12  C20 UNL     1      22.245   2.896  51.853  1.00  0.00     0.120 C 
HETATM   13  C22 UNL     1      22.435   1.725  52.671  1.00  0.00     0.058 C 
HETATM   14  C23 UNL     1      21.479   0.842  53.283  1.00  0.00     0.274 C 
HETATM   15  H10 UNL     1      25.716   0.501  51.746  1.00  0.00     0.162 HD
ENDROOT
BRANCH  11  16
HETATM   16  C10 UNL     1      24.005   4.647  51.995  1.00  0.00     0.151 C 
BRANCH  16  17
HETATM   17  C11 UNL     1      23.375   5.810  51.334  1.00  0.00     0.002 C 
HETATM   18  C12 UNL     1      23.441   6.773  50.412  1.00  0.00    -0.030 C 
HETATM   19  C13 UNL     1      22.511   7.885  49.990  1.00  0.00     0.159 C 
HETATM   20  C19 UNL     1      24.584   6.975  49.504  1.00  0.00    -0.002 A 
HETATM   21  N4  UNL     1      22.707   7.792  48.538  1.00  0.00    -0.385 N 
HETATM   22  C14 UNL     1      24.113   7.606  48.353  1.00  0.00     0.039 A 
HETATM   23  H20 UNL     1      22.055   7.836  47.717  1.00  0.00     0.160 HD
HETATM   24  C15 UNL     1      25.024   7.899  47.350  1.00  0.00     0.030 A 
HETATM   25  C16 UNL     1      26.367   7.598  47.435  1.00  0.00     0.002 A 
HETATM   26  C17 UNL     1      26.841   6.972  48.577  1.00  0.00     0.001 A 
HETATM   27  C18 UNL     1      25.943   6.678  49.577  1.00  0.00     0.014 A 
ENDBRANCH  16  17
ENDBRANCH  11  16
BRANCH  12  28
HETATM   28  C21 UNL     1      21.400   2.572  50.700  1.00  0.00     0.416 C 
HETATM   29  O2  UNL     1      20.469   2.451  49.944  1.00  0.00    -0.428 OA
ENDBRANCH  12  28
BRANCH   1  30
HETATM   30  C2  UNL     1      21.249  -0.989  54.589  1.00  0.00     0.268 C 
HETATM   31  C1  UNL     1      20.080  -0.680  53.686  1.00  0.00     0.037 C 
ENDBRANCH   1  30
TORSDOF 4
ENDMDL
MODEL 9
REMARK VINA RESULT:      -7.2      3.133      5.411
REMARK  4 active torsions:
REMARK  status: ('A' for Active; 'I' for Inactive)
REMARK    1  A    between atoms: C2_2  and  N1_3 
REMARK    2  A    between atoms: N3_13  and  C10_14 
REMARK    3  A    between atoms: C10_14  and  C11_15 
REMARK    4  A    between atoms: C20_25  and  C21_26 
ROOT
HETATM    1  N1  UNL     1      16.895  -1.290  52.306  1.00  0.00     0.089 NA
HETATM    2  C3  UNL     1      16.166  -0.115  52.542  1.00  0.00     0.292 C 
HETATM    3  C4  UNL     1      15.983   1.017  51.625  1.00  0.00     0.153 C 
HETATM    4  N2  UNL     1      17.026   1.710  50.975  1.00  0.00    -0.356 N 
HETATM    5  C5  UNL     1      18.118   2.033  50.125  1.00  0.00     0.242 C 
HETATM    6  O1  UNL     1      18.235   0.958  49.500  1.00  0.00    -0.269 OA
HETATM    7  C6  UNL     1      19.050   3.049  49.751  1.00  0.00     0.088 C 
HETATM    8  C7  UNL     1      19.215   3.458  50.996  1.00  0.00     0.004 C 
HETATM    9  C8  UNL     1      20.068   2.727  51.631  1.00  0.00     0.015 C 
HETATM   10  C9  UNL     1      20.860   3.507  52.566  1.00  0.00     0.069 C 
HETATM   11  N3  UNL     1      20.469   1.393  51.671  1.00  0.00    -0.373 N 
HETATM   12  C20 UNL     1      20.322   0.193  52.507  1.00  0.00     0.120 C 
HETATM   13  C22 UNL     1      18.959  -0.254  52.365  1.00  0.00     0.058 C 
HETATM   14  C23 UNL     1      18.260  -1.346  52.986  1.00  0.00     0.274 C 
HETATM   15  H10 UNL     1      17.149   2.696  51.297  1.00  0.00     0.162 HD
ENDROOT
BRANCH  11  16
HETATM   16  C10 UNL     1      21.343   1.287  50.521  1.00  0.00     0.151 C 
BRANCH  16  17
HETATM   17  C11 UNL     1      22.583   2.086  50.634  1.00  0.00     0.002 C 
HETATM   18  C12 UNL     1      23.818   2.214  51.124  1.00  0.00    -0.030 C 
HETATM   19  C13 UNL     1      24.885   3.275  51.010  1.00  0.00     0.159 C 
HETATM   20  C19 UNL     1      24.474   1.218  51.990  1.00  0.00    -0.002 A 
HETATM   21  N4  UNL     1      26.052   2.395  50.873  1.00  0.00    -0.385 N 
HETATM   22  C14 UNL     1      25.853   1.345  51.823  1.00  0.00     0.039 A 
HETATM   23  H20 UNL     1      26.905   2.417  50.262  1.00  0.00     0.160 HD
HETATM   24  C15 UNL     1      26.678   0.500  52.549  1.00  0.00     0.030 A 
HETATM   25  C16 UNL     1      26.203  -0.455  53.424  1.00  0.00     0.002 A 
HETATM   26  C17 UNL     1      24.834  -0.585  53.594  1.00  0.00     0.001 A 
HETATM   27  C18 UNL     1      24.008   0.250  52.877  1.00  0.00     0.014 A 
ENDBRANCH  16  17
ENDBRANCH  11  16
BRANCH  12  28
HETATM   28  C21 UNL     1      20.624   0.446  53.918  1.00  0.00     0.416 C 
HETATM   29  O2  UNL     1      21.033   0.360  55.049  1.00  0.00    -0.428 OA
ENDBRANCH  12  28
BRANCH   1  30
HETATM   30  C2  UNL     1      16.278  -2.428  53.095  1.00  0.00     0.268 C 
HETATM   31  C1  UNL     1      17.450  -3.287  53.503  1.00  0.00     0.037 C 
ENDBRANCH   1  30
TORSDOF 4
ENDMDL
