MODEL 1
REMARK VINA RESULT:      -8.8      0.000      0.000
REMARK  2 active torsions:
REMARK  status: ('A' for Active; 'I' for Inactive)
REMARK    1  A    between atoms: O1_2  and  C2_3 
REMARK    2  A    between atoms: C11_13  and  O3_14 
ROOT
HETATM    1  C2  UNL     1      19.397   4.759  49.395  1.00  0.00     0.047 C 
HETATM    2  C3  UNL     1      19.452   3.812  50.385  1.00  0.00     0.010 C 
HETATM    3  C4  UNL     1      20.061   3.718  51.759  1.00  0.00     0.066 C 
HETATM    4  C5  UNL     1      21.337   2.900  51.640  1.00  0.00    -0.039 C 
HETATM    5  C6  UNL     1      21.302   1.686  52.350  1.00  0.00     0.005 C 
HETATM    6  C7  UNL     1      22.192   0.553  52.556  1.00  0.00     0.196 C 
HETATM    7  O2  UNL     1      22.592   0.329  53.830  1.00  0.00    -0.383 OA
HETATM    8  C8  UNL     1      23.686  -0.557  53.853  1.00  0.00     0.209 C 
HETATM    9  C9  UNL     1      24.920   0.020  53.237  1.00  0.00    -0.003 A 
HETATM   10  C10 UNL     1      26.034  -0.420  53.990  1.00  0.00     0.048 A 
HETATM   11  C11 UNL     1      27.387  -0.128  53.800  1.00  0.00     0.068 A 
HETATM   12  C13 UNL     1      27.688   0.699  52.739  1.00  0.00     0.039 A 
HETATM   13  C14 UNL     1      26.646   1.162  51.966  1.00  0.00     0.035 A 
HETATM   14  C15 UNL     1      25.326   0.863  52.171  1.00  0.00     0.065 A 
HETATM   15  N1  UNL     1      24.438   1.421  51.242  1.00  0.00    -0.255 NA
HETATM   16  C16 UNL     1      23.686   2.406  51.456  1.00  0.00     0.047 C 
HETATM   17  C17 UNL     1      23.827   2.966  52.829  1.00  0.00     0.068 C 
HETATM   18  C18 UNL     1      22.642   3.236  50.890  1.00  0.00     0.303 C 
HETATM   19  N2  UNL     1      23.017   4.634  50.942  1.00  0.00     0.122 N 
HETATM   20  C19 UNL     1      23.228   6.096  50.968  1.00  0.00     0.445 A 
HETATM   21  O4  UNL     1      22.175   5.444  50.881  1.00  0.00    -0.124 OA
HETATM   22  N3  UNL     1      22.559   7.388  50.939  1.00  0.00    -0.358 N 
HETATM   23  C20 UNL     1      21.141   7.729  50.874  1.00  0.00     0.124 C 
HETATM   24  C21 UNL     1      20.516   7.311  49.587  1.00  0.00     0.020 C 
HETATM   25  C22 UNL     1      19.907   6.155  49.229  1.00  0.00     0.059 C 
HETATM   26  H22 UNL     1      24.116   4.696  51.051  1.00  0.00     0.326 HD
HETATM   27  H23 UNL     1      23.596   7.471  50.986  1.00  0.00     0.158 HD
ENDROOT
BRANCH   1  28
HETATM   28  O1  UNL     1      18.847   4.863  48.125  1.00  0.00    -0.360 OA
HETATM   29  C1  UNL     1      18.941   3.758  47.238  1.00  0.00     0.209 C 
ENDBRANCH   1  28
BRANCH  11  30
HETATM   30  O3  UNL     1      28.440  -0.570  54.542  1.00  0.00    -0.356 OA
HETATM   31  C12 UNL     1      29.669  -0.929  53.943  1.00  0.00     0.210 C 
ENDBRANCH  11  30
TORSDOF 2
ENDMDL
MODEL 2
REMARK VINA RESULT:      -8.6      3.186      5.424
REMARK  2 active torsions:
REMARK  status: ('A' for Active; 'I' for Inactive)
REMARK    1  A    between atoms: O1_2  and  C2_3 
REMARK    2  A    between atoms: C11_13  and  O3_14 
ROOT
HETATM    1  C2  UNL     1      26.541   7.782  48.652  1.00  0.00     0.047 C 
HETATM    2  C3  UNL     1      27.072   6.545  48.907  1.00  0.00     0.010 C 
HETATM    3  C4  UNL     1      26.726   5.124  48.548  1.00  0.00     0.066 C 
HETATM    4  C5  UNL     1      26.051   4.496  49.757  1.00  0.00    -0.039 C 
HETATM    5  C6  UNL     1      26.773   3.426  50.319  1.00  0.00     0.005 C 
HETATM    6  C7  UNL     1      26.619   2.522  51.448  1.00  0.00     0.196 C 
HETATM    7  O2  UNL     1      26.508   1.205  51.152  1.00  0.00    -0.383 OA
HETATM    8  C8  UNL     1      26.036   0.488  52.268  1.00  0.00     0.209 C 
HETATM    9  C9  UNL     1      24.632   0.842  52.640  1.00  0.00    -0.003 A 
HETATM   10  C10 UNL     1      23.979  -0.341  53.061  1.00  0.00     0.048 A 
HETATM   11  C11 UNL     1      22.659  -0.504  53.489  1.00  0.00     0.068 A 
HETATM   12  C13 UNL     1      21.880   0.632  53.508  1.00  0.00     0.039 A 
HETATM   13  C14 UNL     1      22.458   1.818  53.108  1.00  0.00     0.035 A 
HETATM   14  C15 UNL     1      23.755   1.955  52.692  1.00  0.00     0.065 A 
HETATM   15  N1  UNL     1      24.139   3.261  52.361  1.00  0.00    -0.255 NA
HETATM   16  C16 UNL     1      24.291   3.701  51.193  1.00  0.00     0.047 C 
HETATM   17  C17 UNL     1      24.004   2.685  50.142  1.00  0.00     0.068 C 
HETATM   18  C18 UNL     1      24.699   4.849  50.410  1.00  0.00     0.303 C 
HETATM   19  N2  UNL     1      23.662   5.221  49.470  1.00  0.00     0.122 N 
HETATM   20  C19 UNL     1      22.730   5.694  48.426  1.00  0.00     0.445 A 
HETATM   21  O4  UNL     1      23.955   5.859  48.534  1.00  0.00    -0.124 OA
HETATM   22  N3  UNL     1      22.629   6.435  47.177  1.00  0.00    -0.358 N 
HETATM   23  C20 UNL     1      23.655   7.083  46.366  1.00  0.00     0.124 C 
HETATM   24  C21 UNL     1      24.287   8.236  47.067  1.00  0.00     0.020 C 
HETATM   25  C22 UNL     1      25.371   8.298  47.878  1.00  0.00     0.059 C 
HETATM   26  H22 UNL     1      22.704   4.794  49.820  1.00  0.00     0.326 HD
HETATM   27  H23 UNL     1      21.708   6.089  47.517  1.00  0.00     0.158 HD
ENDROOT
BRANCH   1  28
HETATM   28  O1  UNL     1      26.842   9.097  48.977  1.00  0.00    -0.360 OA
HETATM   29  C1  UNL     1      27.488   9.375  50.211  1.00  0.00     0.209 C 
ENDBRANCH   1  28
BRANCH  11  30
HETATM   30  O3  UNL     1      22.058  -1.657  53.892  1.00  0.00    -0.356 OA
HETATM   31  C12 UNL     1      20.704  -1.683  54.300  1.00  0.00     0.210 C 
ENDBRANCH  11  30
TORSDOF 2
ENDMDL
MODEL 3
REMARK VINA RESULT:      -8.5      3.142      7.585
REMARK  2 active torsions:
REMARK  status: ('A' for Active; 'I' for Inactive)
REMARK    1  A    between atoms: O1_2  and  C2_3 
REMARK    2  A    between atoms: C11_13  and  O3_14 
ROOT
HETATM    1  C2  UNL     1      22.593   0.578  53.066  1.00  0.00     0.047 C 
HETATM    2  C3  UNL     1      22.235   1.149  51.873  1.00  0.00     0.010 C 
HETATM    3  C4  UNL     1      22.917   1.425  50.559  1.00  0.00     0.066 C 
HETATM    4  C5  UNL     1      23.298   2.897  50.540  1.00  0.00    -0.039 C 
HETATM    5  C6  UNL     1      22.641   3.641  49.542  1.00  0.00     0.005 C 
HETATM    6  C7  UNL     1      22.606   5.029  49.107  1.00  0.00     0.196 C 
HETATM    7  O2  UNL     1      23.029   5.272  47.844  1.00  0.00    -0.383 OA
HETATM    8  C8  UNL     1      23.264   6.647  47.660  1.00  0.00     0.209 C 
HETATM    9  C9  UNL     1      24.407   7.161  48.474  1.00  0.00    -0.003 A 
HETATM   10  C10 UNL     1      25.102   8.121  47.701  1.00  0.00     0.048 A 
HETATM   11  C11 UNL     1      26.240   8.857  48.039  1.00  0.00     0.068 A 
HETATM   12  C13 UNL     1      26.766   8.624  49.291  1.00  0.00     0.039 A 
HETATM   13  C14 UNL     1      26.136   7.699  50.094  1.00  0.00     0.035 A 
HETATM   14  C15 UNL     1      25.019   6.988  49.742  1.00  0.00     0.065 A 
HETATM   15  N1  UNL     1      24.529   6.123  50.729  1.00  0.00    -0.255 NA
HETATM   16  C16 UNL     1      24.659   4.873  50.730  1.00  0.00     0.047 C 
HETATM   17  C17 UNL     1      25.421   4.361  49.556  1.00  0.00     0.068 C 
HETATM   18  C18 UNL     1      24.309   3.652  51.426  1.00  0.00     0.303 C 
HETATM   19  N2  UNL     1      25.497   2.893  51.756  1.00  0.00     0.122 N 
HETATM   20  C19 UNL     1      26.601   1.979  52.117  1.00  0.00     0.445 A 
HETATM   21  O4  UNL     1      25.391   1.747  51.971  1.00  0.00    -0.124 OA
HETATM   22  N3  UNL     1      26.940   0.600  52.435  1.00  0.00    -0.358 N 
HETATM   23  C20 UNL     1      26.107  -0.597  52.501  1.00  0.00     0.124 C 
HETATM   24  C21 UNL     1      25.102  -0.528  53.599  1.00  0.00     0.020 C 
HETATM   25  C22 UNL     1      23.832  -0.056  53.614  1.00  0.00     0.059 C 
HETATM   26  H22 UNL     1      26.366   3.577  51.731  1.00  0.00     0.326 HD
HETATM   27  H23 UNL     1      27.763   1.236  52.472  1.00  0.00     0.158 HD
ENDROOT
BRANCH   1  28
HETATM   28  O1  UNL     1      21.983   0.319  54.286  1.00  0.00    -0.360 OA
HETATM   29  C1  UNL     1      21.539  -0.999  54.572  1.00  0.00     0.209 C 
ENDBRANCH   1  28
BRANCH  11  30
HETATM   30  O3  UNL     1      26.886   9.778  47.272  1.00  0.00    -0.356 OA
HETATM   31  C12 UNL     1      28.298   9.823  47.200  1.00  0.00     0.210 C 
ENDBRANCH  11  30
TORSDOF 2
ENDMDL
MODEL 4
REMARK VINA RESULT:      -8.4      3.046      3.876
REMARK  2 active torsions:
REMARK  status: ('A' for Active; 'I' for Inactive)
REMARK    1  A    between atoms: O1_2  and  C2_3 
REMARK    2  A    between atoms: C11_13  and  O3_14 
ROOT
HETATM    1  C2  UNL     1      16.977  -0.121  50.331  1.00  0.00     0.047 C 
HETATM    2  C3  UNL     1      17.442  -0.537  51.552  1.00  0.00     0.010 C 
HETATM    3  C4  UNL     1      18.092   0.117  52.742  1.00  0.00     0.066 C 
HETATM    4  C5  UNL     1      19.582  -0.176  52.670  1.00  0.00    -0.039 C 
HETATM    5  C6  UNL     1      20.059  -0.959  53.738  1.00  0.00     0.005 C 
HETATM    6  C7  UNL     1      21.332  -1.535  54.142  1.00  0.00     0.196 C 
HETATM    7  O2  UNL     1      21.839  -1.104  55.322  1.00  0.00    -0.383 OA
HETATM    8  C8  UNL     1      23.194  -1.465  55.437  1.00  0.00     0.209 C 
HETATM    9  C9  UNL     1      24.073  -0.769  54.448  1.00  0.00    -0.003 A 
HETATM   10  C10 UNL     1      25.299  -0.466  55.087  1.00  0.00     0.048 A 
HETATM   11  C11 UNL     1      26.416   0.190  54.566  1.00  0.00     0.068 A 
HETATM   12  C13 UNL     1      26.324   0.603  53.254  1.00  0.00     0.039 A 
HETATM   13  C14 UNL     1      25.154   0.338  52.576  1.00  0.00     0.035 A 
HETATM   14  C15 UNL     1      24.069  -0.307  53.108  1.00  0.00     0.065 A 
HETATM   15  N1  UNL     1      22.997  -0.495  52.226  1.00  0.00    -0.255 NA
HETATM   16  C16 UNL     1      21.925   0.162  52.233  1.00  0.00     0.047 C 
HETATM   17  C17 UNL     1      21.887   1.210  53.291  1.00  0.00     0.068 C 
HETATM   18  C18 UNL     1      20.616   0.289  51.625  1.00  0.00     0.303 C 
HETATM   19  N2  UNL     1      20.408   1.637  51.139  1.00  0.00     0.122 N 
HETATM   20  C19 UNL     1      20.022   2.972  50.637  1.00  0.00     0.445 A 
HETATM   21  O4  UNL     1      19.312   2.009  50.968  1.00  0.00    -0.124 OA
HETATM   22  N3  UNL     1      18.896   3.830  50.302  1.00  0.00    -0.358 N 
HETATM   23  C20 UNL     1      17.458   3.596  50.390  1.00  0.00     0.124 C 
HETATM   24  C21 UNL     1      17.000   2.531  49.453  1.00  0.00     0.020 C 
HETATM   25  C22 UNL     1      16.885   1.190  49.619  1.00  0.00     0.059 C 
HETATM   26  H22 UNL     1      21.396   2.120  51.017  1.00  0.00     0.326 HD
HETATM   27  H23 UNL     1      19.816   4.286  50.129  1.00  0.00     0.158 HD
ENDROOT
BRANCH   1  28
HETATM   28  O1  UNL     1      16.382  -0.707  49.223  1.00  0.00    -0.360 OA
HETATM   29  C1  UNL     1      15.224  -1.510  49.403  1.00  0.00     0.209 C 
ENDBRANCH   1  28
BRANCH  11  30
HETATM   30  O3  UNL     1      27.586   0.465  55.206  1.00  0.00    -0.356 OA
HETATM   31  C12 UNL     1      28.838   0.166  54.621  1.00  0.00     0.210 C 
ENDBRANCH  11  30
TORSDOF 2
ENDMDL
MODEL 5
REMARK VINA RESULT:      -8.3      3.455      7.698
REMARK  2 active torsions:
REMARK  status: ('A' for Active; 'I' for Inactive)
REMARK    1  A    between atoms: O1_2  and  C2_3 
REMARK    2  A    between atoms: C11_13  and  O3_14 
ROOT
HETATM    1  C2  UNL     1      25.724   3.248  50.592  1.00  0.00     0.047 C 
HETATM    2  C3  UNL     1      24.569   3.944  50.835  1.00  0.00     0.010 C 
HETATM    3  C4  UNL     1      23.566   4.018  51.955  1.00  0.00     0.066 C 
HETATM    4  C5  UNL     1      22.354   3.197  51.542  1.00  0.00    -0.039 C 
HETATM    5  C6  UNL     1      21.178   3.956  51.393  1.00  0.00     0.005 C 
HETATM    6  C7  UNL     1      19.799   3.704  51.006  1.00  0.00     0.196 C 
HETATM    7  O2  UNL     1      18.856   3.961  51.944  1.00  0.00    -0.383 OA
HETATM    8  C8  UNL     1      17.629   3.375  51.582  1.00  0.00     0.209 C 
HETATM    9  C9  UNL     1      17.670   1.881  51.583  1.00  0.00    -0.003 A 
HETATM   10  C10 UNL     1      16.428   1.407  52.069  1.00  0.00     0.048 A 
HETATM   11  C11 UNL     1      16.010   0.088  52.259  1.00  0.00     0.068 A 
HETATM   12  C13 UNL     1      16.922  -0.893  51.934  1.00  0.00     0.039 A 
HETATM   13  C14 UNL     1      18.152  -0.497  51.455  1.00  0.00     0.035 A 
HETATM   14  C15 UNL     1      18.541   0.804  51.277  1.00  0.00     0.065 A 
HETATM   15  N1  UNL     1      19.827   0.974  50.749  1.00  0.00    -0.255 NA
HETATM   16  C16 UNL     1      20.840   1.332  51.402  1.00  0.00     0.047 C 
HETATM   17  C17 UNL     1      20.557   1.558  52.847  1.00  0.00     0.068 C 
HETATM   18  C18 UNL     1      22.244   1.678  51.304  1.00  0.00     0.303 C 
HETATM   19  N2  UNL     1      23.033   0.872  52.213  1.00  0.00     0.122 N 
HETATM   20  C19 UNL     1      23.967   0.171  53.118  1.00  0.00     0.445 A 
HETATM   21  O4  UNL     1      24.089   1.260  52.533  1.00  0.00    -0.124 OA
HETATM   22  N3  UNL     1      25.266   0.249  53.768  1.00  0.00    -0.358 N 
HETATM   23  C20 UNL     1      26.289   1.290  53.737  1.00  0.00     0.124 C 
HETATM   24  C21 UNL     1      26.892   1.452  52.384  1.00  0.00     0.020 C 
HETATM   25  C22 UNL     1      26.538   2.242  51.341  1.00  0.00     0.059 C 
HETATM   26  H22 UNL     1      22.449  -0.030  52.476  1.00  0.00     0.326 HD
HETATM   27  H23 UNL     1      24.758  -0.633  53.986  1.00  0.00     0.158 HD
ENDROOT
BRANCH   1  28
HETATM   28  O1  UNL     1      26.656   3.163  49.567  1.00  0.00    -0.360 OA
HETATM   29  C1  UNL     1      27.143   4.358  48.974  1.00  0.00     0.209 C 
ENDBRANCH   1  28
BRANCH  11  30
HETATM   30  O3  UNL     1      14.804  -0.337  52.727  1.00  0.00    -0.356 OA
HETATM   31  C12 UNL     1      13.922   0.536  53.403  1.00  0.00     0.210 C 
ENDBRANCH  11  30
TORSDOF 2
ENDMDL
MODEL 6
REMARK VINA RESULT:      -8.3      3.424      5.298
REMARK  2 active torsions:
REMARK  status: ('A' for Active; 'I' for Inactive)
REMARK    1  A    between atoms: O1_2  and  C2_3 
REMARK    2  A    between atoms: C11_13  and  O3_14 
ROOT
HETATM    1  C2  UNL     1      16.283   1.864  51.196  1.00  0.00     0.047 C 
HETATM    2  C3  UNL     1      17.282   2.037  50.274  1.00  0.00     0.010 C 
HETATM    3  C4  UNL     1      18.470   1.241  49.806  1.00  0.00     0.066 C 
HETATM    4  C5  UNL     1      19.707   1.829  50.467  1.00  0.00    -0.039 C 
HETATM    5  C6  UNL     1      20.624   2.391  49.559  1.00  0.00     0.005 C 
HETATM    6  C7  UNL     1      21.901   3.083  49.636  1.00  0.00     0.196 C 
HETATM    7  O2  UNL     1      22.952   2.472  49.038  1.00  0.00    -0.383 OA
HETATM    8  C8  UNL     1      24.163   3.051  49.460  1.00  0.00     0.209 C 
HETATM    9  C9  UNL     1      24.451   2.817  50.908  1.00  0.00    -0.003 A 
HETATM   10  C10 UNL     1      25.844   2.608  51.051  1.00  0.00     0.048 A 
HETATM   11  C11 UNL     1      26.572   2.340  52.212  1.00  0.00     0.068 A 
HETATM   12  C13 UNL     1      25.847   2.267  53.382  1.00  0.00     0.039 A 
HETATM   13  C14 UNL     1      24.485   2.461  53.311  1.00  0.00     0.035 A 
HETATM   14  C15 UNL     1      23.791   2.722  52.159  1.00  0.00     0.065 A 
HETATM   15  N1  UNL     1      22.413   2.916  52.326  1.00  0.00    -0.255 NA
HETATM   16  C16 UNL     1      21.521   2.082  52.029  1.00  0.00     0.047 C 
HETATM   17  C17 UNL     1      22.066   0.811  51.475  1.00  0.00     0.068 C 
HETATM   18  C18 UNL     1      20.091   1.860  51.960  1.00  0.00     0.303 C 
HETATM   19  N2  UNL     1      19.723   0.668  52.695  1.00  0.00     0.122 N 
HETATM   20  C19 UNL     1      19.193  -0.544  53.356  1.00  0.00     0.445 A 
HETATM   21  O4  UNL     1      18.707   0.144  52.444  1.00  0.00    -0.124 OA
HETATM   22  N3  UNL     1      18.090  -1.491  53.380  1.00  0.00    -0.358 N 
HETATM   23  C20 UNL     1      16.884  -1.574  52.561  1.00  0.00     0.124 C 
HETATM   24  C21 UNL     1      15.971  -0.416  52.779  1.00  0.00     0.020 C 
HETATM   25  C22 UNL     1      15.899   0.788  52.160  1.00  0.00     0.059 C 
HETATM   26  H22 UNL     1      20.533   0.435  53.411  1.00  0.00     0.326 HD
HETATM   27  H23 UNL     1      18.814  -1.697  54.099  1.00  0.00     0.158 HD
ENDROOT
BRANCH   1  28
HETATM   28  O1  UNL     1      15.185   2.586  51.644  1.00  0.00    -0.360 OA
HETATM   29  C1  UNL     1      15.393   3.712  52.484  1.00  0.00     0.209 C 
ENDBRANCH   1  28
BRANCH  11  30
HETATM   30  O3  UNL     1      27.915   2.145  52.319  1.00  0.00    -0.356 OA
HETATM   31  C12 UNL     1      28.603   2.377  53.533  1.00  0.00     0.210 C 
ENDBRANCH  11  30
TORSDOF 2
ENDMDL
MODEL 7
REMARK VINA RESULT:      -7.9      2.299      3.914
REMARK  2 active torsions:
REMARK  status: ('A' for Active; 'I' for Inactive)
REMARK    1  A    between atoms: O1_2  and  C2_3 
REMARK    2  A    between atoms: C11_13  and  O3_14 
ROOT
HETATM    1  C2  UNL     1      20.415   6.950  48.117  1.00  0.00     0.047 C 
HETATM    2  C3  UNL     1      21.750   6.642  48.113  1.00  0.00     0.010 C 
HETATM    3  C4  UNL     1      22.583   5.449  47.726  1.00  0.00     0.066 C 
HETATM    4  C5  UNL     1      22.963   4.719  49.005  1.00  0.00    -0.039 C 
HETATM    5  C6  UNL     1      24.347   4.707  49.263  1.00  0.00     0.005 C 
HETATM    6  C7  UNL     1      25.224   4.201  50.307  1.00  0.00     0.196 C 
HETATM    7  O2  UNL     1      26.127   3.264  49.930  1.00  0.00    -0.383 OA
HETATM    8  C8  UNL     1      26.672   2.624  51.058  1.00  0.00     0.209 C 
HETATM    9  C9  UNL     1      25.670   1.806  51.809  1.00  0.00    -0.003 A 
HETATM   10  C10 UNL     1      26.318   0.636  52.273  1.00  0.00     0.048 A 
HETATM   11  C11 UNL     1      25.783  -0.425  53.008  1.00  0.00     0.068 A 
HETATM   12  C13 UNL     1      24.446  -0.330  53.329  1.00  0.00     0.039 A 
HETATM   13  C14 UNL     1      23.758   0.786  52.905  1.00  0.00     0.035 A 
HETATM   14  C15 UNL     1      24.303   1.815  52.185  1.00  0.00     0.065 A 
HETATM   15  N1  UNL     1      23.424   2.865  51.888  1.00  0.00    -0.255 NA
HETATM   16  C16 UNL     1      22.900   3.079  50.765  1.00  0.00     0.047 C 
HETATM   17  C17 UNL     1      23.292   2.078  49.734  1.00  0.00     0.068 C 
HETATM   18  C18 UNL     1      22.055   3.983  50.012  1.00  0.00     0.303 C 
HETATM   19  N2  UNL     1      20.952   3.268  49.407  1.00  0.00     0.122 N 
HETATM   20  C19 UNL     1      19.805   2.679  48.685  1.00  0.00     0.445 A 
HETATM   21  O4  UNL     1      20.406   3.748  48.490  1.00  0.00    -0.124 OA
HETATM   22  N3  UNL     1      18.881   2.870  47.577  1.00  0.00    -0.358 N 
HETATM   23  C20 UNL     1      18.778   3.943  46.593  1.00  0.00     0.124 C 
HETATM   24  C21 UNL     1      18.397   5.244  47.211  1.00  0.00     0.020 C 
HETATM   25  C22 UNL     1      19.158   6.243  47.719  1.00  0.00     0.059 C 
HETATM   26  H22 UNL     1      20.815   2.314  49.951  1.00  0.00     0.326 HD
HETATM   27  H23 UNL     1      18.699   1.993  48.108  1.00  0.00     0.158 HD
ENDROOT
BRANCH   1  28
HETATM   28  O1  UNL     1      19.630   8.038  48.473  1.00  0.00    -0.360 OA
HETATM   29  C1  UNL     1      19.822   8.644  49.743  1.00  0.00     0.209 C 
ENDBRANCH   1  28
BRANCH  11  30
HETATM   30  O3  UNL     1      26.433  -1.539  53.444  1.00  0.00    -0.356 OA
HETATM   31  C12 UNL     1      27.220  -2.325  52.571  1.00  0.00     0.210 C 
ENDBRANCH  11  30
TORSDOF 2
ENDMDL
MODEL 8
REMARK VINA RESULT:      -7.9      2.743      7.344
REMARK  2 active torsions:
REMARK  status: ('A' for Active; 'I' for Inactive)
REMARK    1  A    between atoms: O1_2  and  C2_3 
REMARK    2  A    between atoms: C11_13  and  O3_14 
ROOT
HETATM    1  C2  UNL     1      21.289   0.105  52.831  1.00  0.00     0.047 C 
HETATM    2  C3  UNL     1      21.254   0.591  51.550  1.00  0.00     0.010 C 
HETATM    3  C4  UNL     1      22.273   0.953  50.503  1.00  0.00     0.066 C 
HETATM    4  C5  UNL     1      22.416   2.468  50.506  1.00  0.00    -0.039 C 
HETATM    5  C6  UNL     1      22.012   3.078  49.304  1.00  0.00     0.005 C 
HETATM    6  C7  UNL     1      21.912   4.435  48.787  1.00  0.00     0.196 C 
HETATM    7  O2  UNL     1      22.678   4.723  47.709  1.00  0.00    -0.383 OA
HETATM    8  C8  UNL     1      22.751   6.115  47.516  1.00  0.00     0.209 C 
HETATM    9  C9  UNL     1      23.480   6.822  48.613  1.00  0.00    -0.003 A 
HETATM   10  C10 UNL     1      24.235   7.870  48.035  1.00  0.00     0.048 A 
HETATM   11  C11 UNL     1      25.080   8.787  48.664  1.00  0.00     0.068 A 
HETATM   12  C13 UNL     1      25.203   8.664  50.031  1.00  0.00     0.039 A 
HETATM   13  C14 UNL     1      24.493   7.661  50.655  1.00  0.00     0.035 A 
HETATM   14  C15 UNL     1      23.670   6.772  50.017  1.00  0.00     0.065 A 
HETATM   15  N1  UNL     1      23.022   5.854  50.855  1.00  0.00    -0.255 NA
HETATM   16  C16 UNL     1      23.331   4.642  50.981  1.00  0.00     0.047 C 
HETATM   17  C17 UNL     1      24.498   4.243  50.146  1.00  0.00     0.068 C 
HETATM   18  C18 UNL     1      22.962   3.392  51.613  1.00  0.00     0.303 C 
HETATM   19  N2  UNL     1      24.080   2.842  52.351  1.00  0.00     0.122 N 
HETATM   20  C19 UNL     1      25.132   2.127  53.103  1.00  0.00     0.445 A 
HETATM   21  O4  UNL     1      24.082   1.699  52.599  1.00  0.00    -0.124 OA
HETATM   22  N3  UNL     1      25.552   0.827  53.604  1.00  0.00    -0.358 N 
HETATM   23  C20 UNL     1      24.931  -0.488  53.484  1.00  0.00     0.124 C 
HETATM   24  C21 UNL     1      23.628  -0.567  54.202  1.00  0.00     0.020 C 
HETATM   25  C22 UNL     1      22.365  -0.309  53.783  1.00  0.00     0.059 C 
HETATM   26  H22 UNL     1      24.797   3.659  52.556  1.00  0.00     0.326 HD
HETATM   27  H23 UNL     1      26.214   1.590  53.856  1.00  0.00     0.158 HD
ENDROOT
BRANCH   1  28
HETATM   28  O1  UNL     1      20.364  -0.230  53.811  1.00  0.00    -0.360 OA
HETATM   29  C1  UNL     1      19.143  -0.846  53.428  1.00  0.00     0.209 C 
ENDBRANCH   1  28
BRANCH  11  30
HETATM   30  O3  UNL     1      25.794   9.789  48.080  1.00  0.00    -0.356 OA
HETATM   31  C12 UNL     1      25.993   9.838  46.681  1.00  0.00     0.210 C 
ENDBRANCH  11  30
TORSDOF 2
ENDMDL
MODEL 9
REMARK VINA RESULT:      -7.8      4.474      6.254
REMARK  2 active torsions:
REMARK  status: ('A' for Active; 'I' for Inactive)
REMARK    1  A    between atoms: O1_2  and  C2_3 
REMARK    2  A    between atoms: C11_13  and  O3_14 
ROOT
HETATM    1  C2  UNL     1      16.116  -2.106  52.419  1.00  0.00     0.047 C 
HETATM    2  C3  UNL     1      17.309  -2.018  53.086  1.00  0.00     0.010 C 
HETATM    3  C4  UNL     1      18.097  -0.921  53.752  1.00  0.00     0.066 C 
HETATM    4  C5  UNL     1      19.209  -0.510  52.799  1.00  0.00    -0.039 C 
HETATM    5  C6  UNL     1      20.502  -0.764  53.293  1.00  0.00     0.005 C 
HETATM    6  C7  UNL     1      21.867  -0.606  52.814  1.00  0.00     0.196 C 
HETATM    7  O2  UNL     1      22.659   0.230  53.528  1.00  0.00    -0.383 OA
HETATM    8  C8  UNL     1      23.816   0.556  52.796  1.00  0.00     0.209 C 
HETATM    9  C9  UNL     1      23.527   1.368  51.574  1.00  0.00    -0.003 A 
HETATM   10  C10 UNL     1      24.568   2.315  51.419  1.00  0.00     0.048 A 
HETATM   11  C11 UNL     1      24.721   3.292  50.433  1.00  0.00     0.068 A 
HETATM   12  C13 UNL     1      23.730   3.352  49.477  1.00  0.00     0.039 A 
HETATM   13  C14 UNL     1      22.687   2.457  49.572  1.00  0.00     0.035 A 
HETATM   14  C15 UNL     1      22.557   1.506  50.549  1.00  0.00     0.065 A 
HETATM   15  N1  UNL     1      21.430   0.682  50.432  1.00  0.00    -0.255 NA
HETATM   16  C16 UNL     1      20.392   0.765  51.136  1.00  0.00     0.047 C 
HETATM   17  C17 UNL     1      20.450   1.865  52.139  1.00  0.00     0.068 C 
HETATM   18  C18 UNL     1      19.105   0.161  51.415  1.00  0.00     0.303 C 
HETATM   19  N2  UNL     1      18.046   1.142  51.304  1.00  0.00     0.122 N 
HETATM   20  C19 UNL     1      16.863   2.027  51.283  1.00  0.00     0.445 A 
HETATM   21  O4  UNL     1      17.028   0.932  51.844  1.00  0.00    -0.124 OA
HETATM   22  N3  UNL     1      15.501   2.194  51.766  1.00  0.00    -0.358 N 
HETATM   23  C20 UNL     1      14.687   1.352  52.638  1.00  0.00     0.124 C 
HETATM   24  C21 UNL     1      14.368   0.035  52.017  1.00  0.00     0.020 C 
HETATM   25  C22 UNL     1      15.027  -1.148  52.054  1.00  0.00     0.059 C 
HETATM   26  H22 UNL     1      18.415   1.987  50.695  1.00  0.00     0.326 HD
HETATM   27  H23 UNL     1      15.809   2.975  51.150  1.00  0.00     0.158 HD
ENDROOT
BRANCH   1  28
HETATM   28  O1  UNL     1      15.378  -3.103  51.796  1.00  0.00    -0.360 OA
HETATM   29  C1  UNL     1      15.251  -4.368  52.429  1.00  0.00     0.209 C 
ENDBRANCH   1  28
BRANCH  11  30
HETATM   30  O3  UNL     1      25.737   4.189  50.309  1.00  0.00    -0.356 OA
HETATM   31  C12 UNL     1      26.783   3.998  49.376  1.00  0.00     0.210 C 
ENDBRANCH  11  30
TORSDOF 2
ENDMDL
