MODEL 1
REMARK VINA RESULT:      -8.1      0.000      0.000
REMARK  8 active torsions:
REMARK  status: ('A' for Active; 'I' for Inactive)
REMARK    1  A    between atoms: N1_2  and  C2_3 
REMARK    2  A    between atoms: C6_9  and  N4_10 
REMARK    3  A    between atoms: N4_10  and  C7_11 
REMARK    4  A    between atoms: C15_21  and  O1_22 
REMARK    5  A    between atoms: O1_22  and  C16_23 
REMARK    6  A    between atoms: C16_23  and  C17_24 
REMARK    7  A    between atoms: C17_24  and  C18_25 
REMARK    8  A    between atoms: C18_25  and  N5_26 
ROOT
HETATM    1  C2  UNL     1      20.144  -0.716  53.462  1.00  0.00     0.063 A 
HETATM    2  C3  UNL     1      20.851  -1.236  54.556  1.00  0.00     0.064 A 
HETATM    3  C4  UNL     1      22.210  -1.064  54.591  1.00  0.00     0.074 A 
HETATM    4  N2  UNL     1      22.948  -1.525  55.623  1.00  0.00    -0.241 NA
HETATM    5  C5  UNL     1      24.280  -1.362  55.698  1.00  0.00     0.236 A 
HETATM    6  N3  UNL     1      24.908  -0.707  54.688  1.00  0.00    -0.224 NA
HETATM    7  C6  UNL     1      24.247  -0.215  53.616  1.00  0.00     0.142 A 
HETATM    8  C13 UNL     1      22.895  -0.407  53.595  1.00  0.00     0.042 A 
HETATM    9  C14 UNL     1      22.163   0.081  52.548  1.00  0.00     0.057 A 
HETATM   10  C15 UNL     1      20.799  -0.040  52.426  1.00  0.00     0.096 A 
ENDROOT
BRANCH   7  11
HETATM   11  N4  UNL     1      24.928   0.477  52.552  1.00  0.00    -0.340 N 
HETATM   12  H7  UNL     1      24.688   1.123  51.775  1.00  0.00     0.167 HD
BRANCH  11  13
HETATM   13  C7  UNL     1      26.264   0.010  52.824  1.00  0.00     0.035 A 
HETATM   14  C8  UNL     1      26.824  -1.231  52.629  1.00  0.00     0.032 A 
HETATM   15  C9  UNL     1      28.146  -1.451  52.953  1.00  0.00     0.046 A 
HETATM   16  C10 UNL     1      28.945  -0.457  53.476  1.00  0.00     0.138 A 
HETATM   17  F1  UNL     1      30.242  -0.694  53.785  1.00  0.00    -0.204 F 
HETATM   18  C11 UNL     1      28.463   0.813  53.701  1.00  0.00     0.074 A 
HETATM   19 CL1  UNL     1      29.412   2.135  54.362  1.00  0.00    -0.081 Cl
HETATM   20  C12 UNL     1      27.116   0.990  53.356  1.00  0.00     0.056 A 
ENDBRANCH  11  13
ENDBRANCH   7  11
BRANCH  10  21
HETATM   21  O1  UNL     1      19.918   0.383  51.460  1.00  0.00    -0.349 OA
BRANCH  21  22
HETATM   22  C16 UNL     1      19.639   1.742  51.301  1.00  0.00     0.177 C 
BRANCH  22  23
HETATM   23  C17 UNL     1      20.611   2.426  50.355  1.00  0.00     0.057 C 
BRANCH  23  24
HETATM   24  C18 UNL     1      21.193   3.590  51.108  1.00  0.00     0.273 C 
BRANCH  24  25
HETATM   25  N5  UNL     1      22.607   3.823  50.856  1.00  0.00     0.080 N 
HETATM   26  C19 UNL     1      23.265   3.680  52.175  1.00  0.00     0.309 C 
HETATM   27  C20 UNL     1      23.057   2.672  50.031  1.00  0.00     0.309 C 
ENDBRANCH  24  25
ENDBRANCH  23  24
ENDBRANCH  22  23
ENDBRANCH  21  22
ENDBRANCH  10  21
BRANCH   1  28
HETATM   28  N1  UNL     1      18.745  -0.929  53.512  1.00  0.00    -0.392 N 
HETATM   29  C1  UNL     1      17.956  -2.149  53.535  1.00  0.00     0.146 C 
HETATM   30  H4  UNL     1      18.115  -0.091  53.533  1.00  0.00     0.159 HD
ENDBRANCH   1  28
TORSDOF 8
ENDMDL
MODEL 2
REMARK VINA RESULT:      -7.6      1.870      4.635
REMARK  8 active torsions:
REMARK  status: ('A' for Active; 'I' for Inactive)
REMARK    1  A    between atoms: N1_2  and  C2_3 
REMARK    2  A    between atoms: C6_9  and  N4_10 
REMARK    3  A    between atoms: N4_10  and  C7_11 
REMARK    4  A    between atoms: C15_21  and  O1_22 
REMARK    5  A    between atoms: O1_22  and  C16_23 
REMARK    6  A    between atoms: C16_23  and  C17_24 
REMARK    7  A    between atoms: C17_24  and  C18_25 
REMARK    8  A    between atoms: C18_25  and  N5_26 
ROOT
HETATM    1  C2  UNL     1      21.806   2.986  50.667  1.00  0.00     0.063 A 
HETATM    2  C3  UNL     1      22.849   3.189  49.753  1.00  0.00     0.064 A 
HETATM    3  C4  UNL     1      24.138   3.085  50.207  1.00  0.00     0.074 A 
HETATM    4  N2  UNL     1      25.189   3.252  49.376  1.00  0.00    -0.241 NA
HETATM    5  C5  UNL     1      26.465   3.145  49.784  1.00  0.00     0.236 A 
HETATM    6  N3  UNL     1      26.705   2.859  51.089  1.00  0.00    -0.224 NA
HETATM    7  C6  UNL     1      25.713   2.678  51.989  1.00  0.00     0.142 A 
HETATM    8  C13 UNL     1      24.436   2.796  51.519  1.00  0.00     0.042 A 
HETATM    9  C14 UNL     1      23.384   2.608  52.373  1.00  0.00     0.057 A 
HETATM   10  C15 UNL     1      22.061   2.688  52.010  1.00  0.00     0.096 A 
ENDROOT
BRANCH   7  11
HETATM   11  N4  UNL     1      25.984   2.376  53.371  1.00  0.00    -0.340 N 
HETATM   12  H7  UNL     1      25.914   2.852  54.292  1.00  0.00     0.167 HD
BRANCH  11  13
HETATM   13  C7  UNL     1      26.462   1.028  53.197  1.00  0.00     0.035 A 
HETATM   14  C8  UNL     1      25.786  -0.110  52.825  1.00  0.00     0.032 A 
HETATM   15  C9  UNL     1      26.460  -1.307  52.706  1.00  0.00     0.046 A 
HETATM   16  C10 UNL     1      27.813  -1.411  52.952  1.00  0.00     0.138 A 
HETATM   17  F1  UNL     1      28.455  -2.596  52.827  1.00  0.00    -0.204 F 
HETATM   18  C11 UNL     1      28.563  -0.320  53.328  1.00  0.00     0.074 A 
HETATM   19 CL1  UNL     1      30.288  -0.365  53.658  1.00  0.00    -0.081 Cl
HETATM   20  C12 UNL     1      27.837   0.874  53.435  1.00  0.00     0.056 A 
ENDBRANCH  11  13
ENDBRANCH   7  11
BRANCH  10  21
HETATM   21  O1  UNL     1      20.898   2.530  52.725  1.00  0.00    -0.349 OA
BRANCH  21  22
HETATM   22  C16 UNL     1      20.372   1.256  52.950  1.00  0.00     0.177 C 
BRANCH  22  23
HETATM   23  C17 UNL     1      20.920   0.619  54.215  1.00  0.00     0.057 C 
BRANCH  23  24
HETATM   24  C18 UNL     1      20.628  -0.853  54.115  1.00  0.00     0.273 C 
BRANCH  24  25
HETATM   25  N5  UNL     1      21.809  -1.700  54.088  1.00  0.00     0.080 N 
HETATM   26  C19 UNL     1      22.567  -1.273  52.891  1.00  0.00     0.309 C 
HETATM   27  C20 UNL     1      22.616  -1.292  55.268  1.00  0.00     0.309 C 
ENDBRANCH  24  25
ENDBRANCH  23  24
ENDBRANCH  22  23
ENDBRANCH  21  22
ENDBRANCH  10  21
BRANCH   1  28
HETATM   28  N1  UNL     1      20.508   3.099  50.111  1.00  0.00    -0.392 N 
HETATM   29  C1  UNL     1      19.624   4.242  49.954  1.00  0.00     0.146 C 
HETATM   30  H4  UNL     1      20.051   2.234  49.734  1.00  0.00     0.159 HD
ENDBRANCH   1  28
TORSDOF 8
ENDMDL
MODEL 3
REMARK VINA RESULT:      -7.5      1.745      2.424
REMARK  8 active torsions:
REMARK  status: ('A' for Active; 'I' for Inactive)
REMARK    1  A    between atoms: N1_2  and  C2_3 
REMARK    2  A    between atoms: C6_9  and  N4_10 
REMARK    3  A    between atoms: N4_10  and  C7_11 
REMARK    4  A    between atoms: C15_21  and  O1_22 
REMARK    5  A    between atoms: O1_22  and  C16_23 
REMARK    6  A    between atoms: C16_23  and  C17_24 
REMARK    7  A    between atoms: C17_24  and  C18_25 
REMARK    8  A    between atoms: C18_25  and  N5_26 
ROOT
HETATM    1  C2  UNL     1      19.939  -0.491  52.751  1.00  0.00     0.063 A 
HETATM    2  C3  UNL     1      20.494  -1.052  53.910  1.00  0.00     0.064 A 
HETATM    3  C4  UNL     1      21.841  -0.910  54.119  1.00  0.00     0.074 A 
HETATM    4  N2  UNL     1      22.436  -1.411  55.222  1.00  0.00    -0.241 NA
HETATM    5  C5  UNL     1      23.751  -1.280  55.465  1.00  0.00     0.236 A 
HETATM    6  N3  UNL     1      24.512  -0.616  54.558  1.00  0.00    -0.224 NA
HETATM    7  C6  UNL     1      24.000  -0.085  53.426  1.00  0.00     0.142 A 
HETATM    8  C13 UNL     1      22.657  -0.246  53.232  1.00  0.00     0.042 A 
HETATM    9  C14 UNL     1      22.071   0.282  52.115  1.00  0.00     0.057 A 
HETATM   10  C15 UNL     1      20.730   0.194  51.822  1.00  0.00     0.096 A 
ENDROOT
BRANCH   7  11
HETATM   11  N4  UNL     1      24.822   0.616  52.472  1.00  0.00    -0.340 N 
HETATM   12  H7  UNL     1      24.709   1.366  51.763  1.00  0.00     0.167 HD
BRANCH  11  13
HETATM   13  C7  UNL     1      26.069  -0.052  52.744  1.00  0.00     0.035 A 
HETATM   14  C8  UNL     1      26.454  -1.347  52.486  1.00  0.00     0.032 A 
HETATM   15  C9  UNL     1      27.721  -1.772  52.825  1.00  0.00     0.046 A 
HETATM   16  C10 UNL     1      28.636  -0.934  53.425  1.00  0.00     0.138 A 
HETATM   17  F1  UNL     1      29.876  -1.372  53.747  1.00  0.00    -0.204 F 
HETATM   18  C11 UNL     1      28.331   0.376  53.717  1.00  0.00     0.074 A 
HETATM   19 CL1  UNL     1      29.437   1.509  54.479  1.00  0.00    -0.081 Cl
HETATM   20  C12 UNL     1      27.034   0.764  53.354  1.00  0.00     0.056 A 
ENDBRANCH  11  13
ENDBRANCH   7  11
BRANCH  10  21
HETATM   21  O1  UNL     1      19.985   0.658  50.765  1.00  0.00    -0.349 OA
BRANCH  21  22
HETATM   22  C16 UNL     1      19.784   2.029  50.588  1.00  0.00     0.177 C 
BRANCH  22  23
HETATM   23  C17 UNL     1      18.312   2.391  50.496  1.00  0.00     0.057 C 
BRANCH  23  24
HETATM   24  C18 UNL     1      18.057   3.424  51.558  1.00  0.00     0.273 C 
BRANCH  24  25
HETATM   25  N5  UNL     1      16.999   4.369  51.237  1.00  0.00     0.080 N 
HETATM   26  C19 UNL     1      16.492   3.949  49.910  1.00  0.00     0.309 C 
HETATM   27  C20 UNL     1      15.912   4.093  52.212  1.00  0.00     0.309 C 
ENDBRANCH  24  25
ENDBRANCH  23  24
ENDBRANCH  22  23
ENDBRANCH  21  22
ENDBRANCH  10  21
BRANCH   1  28
HETATM   28  N1  UNL     1      18.541  -0.674  52.622  1.00  0.00    -0.392 N 
HETATM   29  C1  UNL     1      17.596  -1.459  53.398  1.00  0.00     0.146 C 
HETATM   30  H4  UNL     1      18.045  -0.182  51.839  1.00  0.00     0.159 HD
ENDBRANCH   1  28
TORSDOF 8
ENDMDL
MODEL 4
REMARK VINA RESULT:      -7.5      3.948      7.276
REMARK  8 active torsions:
REMARK  status: ('A' for Active; 'I' for Inactive)
REMARK    1  A    between atoms: N1_2  and  C2_3 
REMARK    2  A    between atoms: C6_9  and  N4_10 
REMARK    3  A    between atoms: N4_10  and  C7_11 
REMARK    4  A    between atoms: C15_21  and  O1_22 
REMARK    5  A    between atoms: O1_22  and  C16_23 
REMARK    6  A    between atoms: C16_23  and  C17_24 
REMARK    7  A    between atoms: C17_24  and  C18_25 
REMARK    8  A    between atoms: C18_25  and  N5_26 
ROOT
HETATM    1  C2  UNL     1      26.040   0.669  53.346  1.00  0.00     0.063 A 
HETATM    2  C3  UNL     1      26.797   1.520  52.528  1.00  0.00     0.064 A 
HETATM    3  C4  UNL     1      26.155   2.185  51.516  1.00  0.00     0.074 A 
HETATM    4  N2  UNL     1      26.820   3.032  50.702  1.00  0.00    -0.241 NA
HETATM    5  C5  UNL     1      26.221   3.710  49.708  1.00  0.00     0.236 A 
HETATM    6  N3  UNL     1      24.889   3.532  49.516  1.00  0.00    -0.224 NA
HETATM    7  C6  UNL     1      24.146   2.702  50.282  1.00  0.00     0.142 A 
HETATM    8  C13 UNL     1      24.807   2.040  51.278  1.00  0.00     0.042 A 
HETATM    9  C14 UNL     1      24.113   1.198  52.102  1.00  0.00     0.057 A 
HETATM   10  C15 UNL     1      24.667   0.492  53.143  1.00  0.00     0.096 A 
ENDROOT
BRANCH   7  11
HETATM   11  N4  UNL     1      22.734   2.522  50.064  1.00  0.00    -0.340 N 
HETATM   12  H7  UNL     1      22.088   1.757  49.787  1.00  0.00     0.167 HD
BRANCH  11  13
HETATM   13  C7  UNL     1      22.307   3.866  50.362  1.00  0.00     0.035 A 
HETATM   14  C8  UNL     1      22.378   4.578  51.536  1.00  0.00     0.032 A 
HETATM   15  C9  UNL     1      21.915   5.875  51.587  1.00  0.00     0.046 A 
HETATM   16  C10 UNL     1      21.371   6.500  50.485  1.00  0.00     0.138 A 
HETATM   17  F1  UNL     1      20.924   7.777  50.557  1.00  0.00    -0.204 F 
HETATM   18  C11 UNL     1      21.265   5.860  49.272  1.00  0.00     0.074 A 
HETATM   19 CL1  UNL     1      20.587   6.582  47.821  1.00  0.00    -0.081 Cl
HETATM   20  C12 UNL     1      21.749   4.544  49.267  1.00  0.00     0.056 A 
ENDBRANCH  11  13
ENDBRANCH   7  11
BRANCH  10  21
HETATM   21  O1  UNL     1      24.127  -0.382  54.055  1.00  0.00    -0.349 OA
BRANCH  21  22
HETATM   22  C16 UNL     1      22.907  -1.011  53.798  1.00  0.00     0.177 C 
BRANCH  22  23
HETATM   23  C17 UNL     1      21.933  -0.882  54.957  1.00  0.00     0.057 C 
BRANCH  23  24
HETATM   24  C18 UNL     1      20.921   0.154  54.553  1.00  0.00     0.273 C 
BRANCH  24  25
HETATM   25  N5  UNL     1      20.590   0.152  53.137  1.00  0.00     0.080 N 
HETATM   26  C19 UNL     1      19.253  -0.479  53.051  1.00  0.00     0.309 C 
HETATM   27  C20 UNL     1      20.408   1.581  52.771  1.00  0.00     0.309 C 
ENDBRANCH  24  25
ENDBRANCH  23  24
ENDBRANCH  22  23
ENDBRANCH  21  22
ENDBRANCH  10  21
BRANCH   1  28
HETATM   28  N1  UNL     1      26.780   0.032  54.373  1.00  0.00    -0.392 N 
HETATM   29  C1  UNL     1      28.177   0.134  54.759  1.00  0.00     0.146 C 
HETATM   30  H4  UNL     1      26.282  -0.650  54.994  1.00  0.00     0.159 HD
ENDBRANCH   1  28
TORSDOF 8
ENDMDL
MODEL 5
REMARK VINA RESULT:      -7.4      4.079      7.299
REMARK  8 active torsions:
REMARK  status: ('A' for Active; 'I' for Inactive)
REMARK    1  A    between atoms: N1_2  and  C2_3 
REMARK    2  A    between atoms: C6_9  and  N4_10 
REMARK    3  A    between atoms: N4_10  and  C7_11 
REMARK    4  A    between atoms: C15_21  and  O1_22 
REMARK    5  A    between atoms: O1_22  and  C16_23 
REMARK    6  A    between atoms: C16_23  and  C17_24 
REMARK    7  A    between atoms: C17_24  and  C18_25 
REMARK    8  A    between atoms: C18_25  and  N5_26 
ROOT
HETATM    1  C2  UNL     1      26.090   0.707  52.861  1.00  0.00     0.063 A 
HETATM    2  C3  UNL     1      26.895   1.485  52.018  1.00  0.00     0.064 A 
HETATM    3  C4  UNL     1      26.291   2.446  51.250  1.00  0.00     0.074 A 
HETATM    4  N2  UNL     1      27.010   3.241  50.429  1.00  0.00    -0.241 NA
HETATM    5  C5  UNL     1      26.453   4.202  49.672  1.00  0.00     0.236 A 
HETATM    6  N3  UNL     1      25.108   4.375  49.735  1.00  0.00    -0.224 NA
HETATM    7  C6  UNL     1      24.312   3.622  50.527  1.00  0.00     0.142 A 
HETATM    8  C13 UNL     1      24.933   2.663  51.277  1.00  0.00     0.042 A 
HETATM    9  C14 UNL     1      24.189   1.878  52.114  1.00  0.00     0.057 A 
HETATM   10  C15 UNL     1      24.704   0.893  52.922  1.00  0.00     0.096 A 
ENDROOT
BRANCH   7  11
HETATM   11  N4  UNL     1      22.886   3.818  50.582  1.00  0.00    -0.340 N 
HETATM   12  H7  UNL     1      22.169   4.063  51.293  1.00  0.00     0.167 HD
BRANCH  11  13
HETATM   13  C7  UNL     1      22.588   3.557  49.197  1.00  0.00     0.035 A 
HETATM   14  C8  UNL     1      22.593   2.373  48.498  1.00  0.00     0.032 A 
HETATM   15  C9  UNL     1      22.255   2.357  47.162  1.00  0.00     0.046 A 
HETATM   16  C10 UNL     1      21.906   3.505  46.484  1.00  0.00     0.138 A 
HETATM   17  F1  UNL     1      21.575   3.466  45.171  1.00  0.00    -0.204 F 
HETATM   18  C11 UNL     1      21.874   4.731  47.109  1.00  0.00     0.074 A 
HETATM   19 CL1  UNL     1      21.440   6.239  46.319  1.00  0.00    -0.081 Cl
HETATM   20  C12 UNL     1      22.224   4.698  48.466  1.00  0.00     0.056 A 
ENDBRANCH  11  13
ENDBRANCH   7  11
BRANCH  10  21
HETATM   21  O1  UNL     1      24.114   0.026  53.810  1.00  0.00    -0.349 OA
BRANCH  21  22
HETATM   22  C16 UNL     1      23.006  -0.734  53.426  1.00  0.00     0.177 C 
BRANCH  22  23
HETATM   23  C17 UNL     1      21.968  -0.842  54.530  1.00  0.00     0.057 C 
BRANCH  23  24
HETATM   24  C18 UNL     1      20.973   0.259  54.293  1.00  0.00     0.273 C 
BRANCH  24  25
HETATM   25  N5  UNL     1      20.640   0.477  52.894  1.00  0.00     0.080 N 
HETATM   26  C19 UNL     1      19.326  -0.176  52.701  1.00  0.00     0.309 C 
HETATM   27  C20 UNL     1      20.409   1.940  52.766  1.00  0.00     0.309 C 
ENDBRANCH  24  25
ENDBRANCH  23  24
ENDBRANCH  22  23
ENDBRANCH  21  22
ENDBRANCH  10  21
BRANCH   1  28
HETATM   28  N1  UNL     1      26.797  -0.252  53.627  1.00  0.00    -0.392 N 
HETATM   29  C1  UNL     1      27.797  -0.104  54.671  1.00  0.00     0.146 C 
HETATM   30  H4  UNL     1      26.609  -1.268  53.448  1.00  0.00     0.159 HD
ENDBRANCH   1  28
TORSDOF 8
ENDMDL
MODEL 6
REMARK VINA RESULT:      -7.4      3.748      6.753
REMARK  8 active torsions:
REMARK  status: ('A' for Active; 'I' for Inactive)
REMARK    1  A    between atoms: N1_2  and  C2_3 
REMARK    2  A    between atoms: C6_9  and  N4_10 
REMARK    3  A    between atoms: N4_10  and  C7_11 
REMARK    4  A    between atoms: C15_21  and  O1_22 
REMARK    5  A    between atoms: O1_22  and  C16_23 
REMARK    6  A    between atoms: C16_23  and  C17_24 
REMARK    7  A    between atoms: C17_24  and  C18_25 
REMARK    8  A    between atoms: C18_25  and  N5_26 
ROOT
HETATM    1  C2  UNL     1      22.820   0.051  53.123  1.00  0.00     0.063 A 
HETATM    2  C3  UNL     1      21.716   0.566  52.430  1.00  0.00     0.064 A 
HETATM    3  C4  UNL     1      21.945   1.473  51.429  1.00  0.00     0.074 A 
HETATM    4  N2  UNL     1      20.928   1.996  50.711  1.00  0.00    -0.241 NA
HETATM    5  C5  UNL     1      21.117   2.878  49.714  1.00  0.00     0.236 A 
HETATM    6  N3  UNL     1      22.386   3.259  49.421  1.00  0.00    -0.224 NA
HETATM    7  C6  UNL     1      23.462   2.788  50.090  1.00  0.00     0.142 A 
HETATM    8  C13 UNL     1      23.211   1.893  51.091  1.00  0.00     0.042 A 
HETATM    9  C14 UNL     1      24.256   1.363  51.796  1.00  0.00     0.057 A 
HETATM   10  C15 UNL     1      24.126   0.447  52.813  1.00  0.00     0.096 A 
ENDROOT
BRANCH   7  11
HETATM   11  N4  UNL     1      24.803   3.203  49.767  1.00  0.00    -0.340 N 
HETATM   12  H7  UNL     1      25.691   2.765  49.455  1.00  0.00     0.167 HD
BRANCH  11  13
HETATM   13  C7  UNL     1      24.645   4.615  50.008  1.00  0.00     0.035 A 
HETATM   14  C8  UNL     1      24.169   5.276  51.116  1.00  0.00     0.032 A 
HETATM   15  C9  UNL     1      24.121   6.654  51.131  1.00  0.00     0.046 A 
HETATM   16  C10 UNL     1      24.538   7.411  50.057  1.00  0.00     0.138 A 
HETATM   17  F1  UNL     1      24.484   8.764  50.094  1.00  0.00    -0.204 F 
HETATM   18  C11 UNL     1      25.029   6.828  48.910  1.00  0.00     0.074 A 
HETATM   19 CL1  UNL     1      25.581   7.718  47.499  1.00  0.00    -0.081 Cl
HETATM   20  C12 UNL     1      25.060   5.427  48.941  1.00  0.00     0.056 A 
ENDBRANCH  11  13
ENDBRANCH   7  11
BRANCH  10  21
HETATM   21  O1  UNL     1      25.050  -0.180  53.614  1.00  0.00    -0.349 OA
BRANCH  21  22
HETATM   22  C16 UNL     1      25.968  -1.079  53.067  1.00  0.00     0.177 C 
BRANCH  22  23
HETATM   23  C17 UNL     1      27.378  -0.515  53.026  1.00  0.00     0.057 C 
BRANCH  23  24
HETATM   24  C18 UNL     1      27.604   0.169  54.346  1.00  0.00     0.273 C 
BRANCH  24  25
HETATM   25  N5  UNL     1      28.998   0.456  54.643  1.00  0.00     0.080 N 
HETATM   26  C19 UNL     1      29.777  -0.389  53.710  1.00  0.00     0.309 C 
HETATM   27  C20 UNL     1      29.212   1.864  54.218  1.00  0.00     0.309 C 
ENDBRANCH  24  25
ENDBRANCH  23  24
ENDBRANCH  22  23
ENDBRANCH  21  22
ENDBRANCH  10  21
BRANCH   1  28
HETATM   28  N1  UNL     1      22.493  -0.889  54.132  1.00  0.00    -0.392 N 
HETATM   29  C1  UNL     1      21.252  -1.577  54.442  1.00  0.00     0.146 C 
HETATM   30  H4  UNL     1      23.242  -1.171  54.810  1.00  0.00     0.159 HD
ENDBRANCH   1  28
TORSDOF 8
ENDMDL
MODEL 7
REMARK VINA RESULT:      -7.2      6.008      9.051
REMARK  8 active torsions:
REMARK  status: ('A' for Active; 'I' for Inactive)
REMARK    1  A    between atoms: N1_2  and  C2_3 
REMARK    2  A    between atoms: C6_9  and  N4_10 
REMARK    3  A    between atoms: N4_10  and  C7_11 
REMARK    4  A    between atoms: C15_21  and  O1_22 
REMARK    5  A    between atoms: O1_22  and  C16_23 
REMARK    6  A    between atoms: C16_23  and  C17_24 
REMARK    7  A    between atoms: C17_24  and  C18_25 
REMARK    8  A    between atoms: C18_25  and  N5_26 
ROOT
HETATM    1  C2  UNL     1      27.194   7.553  49.023  1.00  0.00     0.063 A 
HETATM    2  C3  UNL     1      26.111   7.780  49.885  1.00  0.00     0.064 A 
HETATM    3  C4  UNL     1      25.364   6.703  50.284  1.00  0.00     0.074 A 
HETATM    4  N2  UNL     1      24.318   6.848  51.126  1.00  0.00    -0.241 NA
HETATM    5  C5  UNL     1      23.572   5.814  51.548  1.00  0.00     0.236 A 
HETATM    6  N3  UNL     1      23.884   4.569  51.106  1.00  0.00    -0.224 NA
HETATM    7  C6  UNL     1      24.912   4.333  50.260  1.00  0.00     0.142 A 
HETATM    8  C13 UNL     1      25.638   5.421  49.866  1.00  0.00     0.042 A 
HETATM    9  C14 UNL     1      26.703   5.250  49.025  1.00  0.00     0.057 A 
HETATM   10  C15 UNL     1      27.511   6.267  48.573  1.00  0.00     0.096 A 
ENDROOT
BRANCH   7  11
HETATM   11  N4  UNL     1      25.230   3.005  49.798  1.00  0.00    -0.340 N 
HETATM   12  H7  UNL     1      25.342   2.512  48.892  1.00  0.00     0.167 HD
BRANCH  11  13
HETATM   13  C7  UNL     1      25.392   2.374  51.083  1.00  0.00     0.035 A 
HETATM   14  C8  UNL     1      24.519   1.588  51.799  1.00  0.00     0.032 A 
HETATM   15  C9  UNL     1      24.897   1.070  53.019  1.00  0.00     0.046 A 
HETATM   16  C10 UNL     1      26.141   1.314  53.562  1.00  0.00     0.138 A 
HETATM   17  F1  UNL     1      26.492   0.793  54.762  1.00  0.00    -0.204 F 
HETATM   18  C11 UNL     1      27.073   2.088  52.911  1.00  0.00     0.074 A 
HETATM   19 CL1  UNL     1      28.677   2.447  53.531  1.00  0.00    -0.081 Cl
HETATM   20  C12 UNL     1      26.645   2.593  51.675  1.00  0.00     0.056 A 
ENDBRANCH  11  13
ENDBRANCH   7  11
BRANCH  10  21
HETATM   21  O1  UNL     1      28.604   6.275  47.741  1.00  0.00    -0.349 OA
BRANCH  21  22
HETATM   22  C16 UNL     1      29.724   5.495  48.035  1.00  0.00     0.177 C 
BRANCH  22  23
HETATM   23  C17 UNL     1      30.995   6.322  48.133  1.00  0.00     0.057 C 
BRANCH  23  24
HETATM   24  C18 UNL     1      31.877   5.887  46.995  1.00  0.00     0.273 C 
BRANCH  24  25
HETATM   25  N5  UNL     1      33.286   5.772  47.336  1.00  0.00     0.080 N 
HETATM   26  C19 UNL     1      33.938   6.937  46.696  1.00  0.00     0.309 C 
HETATM   27  C20 UNL     1      33.358   6.001  48.803  1.00  0.00     0.309 C 
ENDBRANCH  24  25
ENDBRANCH  23  24
ENDBRANCH  22  23
ENDBRANCH  21  22
ENDBRANCH  10  21
BRANCH   1  28
HETATM   28  N1  UNL     1      27.918   8.719  48.672  1.00  0.00    -0.392 N 
HETATM   29  C1  UNL     1      29.009   9.412  49.334  1.00  0.00     0.146 C 
HETATM   30  H4  UNL     1      27.658   9.217  47.786  1.00  0.00     0.159 HD
ENDBRANCH   1  28
TORSDOF 8
ENDMDL
MODEL 8
REMARK VINA RESULT:      -7.2      4.380      7.048
REMARK  8 active torsions:
REMARK  status: ('A' for Active; 'I' for Inactive)
REMARK    1  A    between atoms: N1_2  and  C2_3 
REMARK    2  A    between atoms: C6_9  and  N4_10 
REMARK    3  A    between atoms: N4_10  and  C7_11 
REMARK    4  A    between atoms: C15_21  and  O1_22 
REMARK    5  A    between atoms: O1_22  and  C16_23 
REMARK    6  A    between atoms: C16_23  and  C17_24 
REMARK    7  A    between atoms: C17_24  and  C18_25 
REMARK    8  A    between atoms: C18_25  and  N5_26 
ROOT
HETATM    1  C2  UNL     1      25.981  -0.124  52.748  1.00  0.00     0.063 A 
HETATM    2  C3  UNL     1      25.094  -0.794  53.602  1.00  0.00     0.064 A 
HETATM    3  C4  UNL     1      23.811  -0.325  53.703  1.00  0.00     0.074 A 
HETATM    4  N2  UNL     1      22.902  -0.933  54.495  1.00  0.00    -0.241 NA
HETATM    5  C5  UNL     1      21.632  -0.508  54.608  1.00  0.00     0.236 A 
HETATM    6  N3  UNL     1      21.250   0.582  53.895  1.00  0.00    -0.224 NA
HETATM    7  C6  UNL     1      22.095   1.254  53.080  1.00  0.00     0.142 A 
HETATM    8  C13 UNL     1      23.372   0.776  53.002  1.00  0.00     0.042 A 
HETATM    9  C14 UNL     1      24.274   1.396  52.183  1.00  0.00     0.057 A 
HETATM   10  C15 UNL     1      25.579   0.998  52.015  1.00  0.00     0.096 A 
ENDROOT
BRANCH   7  11
HETATM   11  N4  UNL     1      21.674   2.410  52.331  1.00  0.00    -0.340 N 
HETATM   12  H7  UNL     1      22.002   3.381  52.165  1.00  0.00     0.167 HD
BRANCH  11  13
HETATM   13  C7  UNL     1      20.481   1.853  51.746  1.00  0.00     0.035 A 
HETATM   14  C8  UNL     1      20.299   0.677  51.056  1.00  0.00     0.032 A 
HETATM   15  C9  UNL     1      19.047   0.335  50.592  1.00  0.00     0.046 A 
HETATM   16  C10 UNL     1      17.947   1.140  50.796  1.00  0.00     0.138 A 
HETATM   17  F1  UNL     1      16.725   0.783  50.334  1.00  0.00    -0.204 F 
HETATM   18  C11 UNL     1      18.043   2.333  51.478  1.00  0.00     0.074 A 
HETATM   19 CL1  UNL     1      16.693   3.416  51.781  1.00  0.00    -0.081 Cl
HETATM   20  C12 UNL     1      19.333   2.639  51.930  1.00  0.00     0.056 A 
ENDBRANCH  11  13
ENDBRANCH   7  11
BRANCH  10  21
HETATM   21  O1  UNL     1      26.603   1.496  51.245  1.00  0.00    -0.349 OA
BRANCH  21  22
HETATM   22  C16 UNL     1      26.684   2.863  50.973  1.00  0.00     0.177 C 
BRANCH  22  23
HETATM   23  C17 UNL     1      26.020   3.232  49.657  1.00  0.00     0.057 C 
BRANCH  23  24
HETATM   24  C18 UNL     1      26.581   4.567  49.253  1.00  0.00     0.273 C 
BRANCH  24  25
HETATM   25  N5  UNL     1      25.577   5.565  48.922  1.00  0.00     0.080 N 
HETATM   26  C19 UNL     1      24.280   4.857  49.007  1.00  0.00     0.309 C 
HETATM   27  C20 UNL     1      25.602   6.539  50.044  1.00  0.00     0.309 C 
ENDBRANCH  24  25
ENDBRANCH  23  24
ENDBRANCH  22  23
ENDBRANCH  21  22
ENDBRANCH  10  21
BRANCH   1  28
HETATM   28  N1  UNL     1      27.281  -0.683  52.695  1.00  0.00    -0.392 N 
HETATM   29  C1  UNL     1      28.426  -0.543  53.579  1.00  0.00     0.146 C 
HETATM   30  H4  UNL     1      27.518  -1.315  51.893  1.00  0.00     0.159 HD
ENDBRANCH   1  28
TORSDOF 8
ENDMDL
MODEL 9
REMARK VINA RESULT:      -7.1      2.914      4.512
REMARK  8 active torsions:
REMARK  status: ('A' for Active; 'I' for Inactive)
REMARK    1  A    between atoms: N1_2  and  C2_3 
REMARK    2  A    between atoms: C6_9  and  N4_10 
REMARK    3  A    between atoms: N4_10  and  C7_11 
REMARK    4  A    between atoms: C15_21  and  O1_22 
REMARK    5  A    between atoms: O1_22  and  C16_23 
REMARK    6  A    between atoms: C16_23  and  C17_24 
REMARK    7  A    between atoms: C17_24  and  C18_25 
REMARK    8  A    between atoms: C18_25  and  N5_26 
ROOT
HETATM    1  C2  UNL     1      22.880   2.528  49.427  1.00  0.00     0.063 A 
HETATM    2  C3  UNL     1      22.106   1.553  50.072  1.00  0.00     0.064 A 
HETATM    3  C4  UNL     1      22.555   1.054  51.267  1.00  0.00     0.074 A 
HETATM    4  N2  UNL     1      21.851   0.126  51.948  1.00  0.00    -0.241 NA
HETATM    5  C5  UNL     1      22.254  -0.376  53.128  1.00  0.00     0.236 A 
HETATM    6  N3  UNL     1      23.424   0.071  53.653  1.00  0.00    -0.224 NA
HETATM    7  C6  UNL     1      24.193   0.997  53.038  1.00  0.00     0.142 A 
HETATM    8  C13 UNL     1      23.733   1.473  51.843  1.00  0.00     0.042 A 
HETATM    9  C14 UNL     1      24.453   2.425  51.176  1.00  0.00     0.057 A 
HETATM   10  C15 UNL     1      24.083   2.985  49.977  1.00  0.00     0.096 A 
ENDROOT
BRANCH   7  11
HETATM   11  N4  UNL     1      25.432   1.460  53.609  1.00  0.00    -0.340 N 
HETATM   12  H7  UNL     1      25.790   2.311  54.084  1.00  0.00     0.167 HD
BRANCH  11  13
HETATM   13  C7  UNL     1      26.232   0.291  53.342  1.00  0.00     0.035 A 
HETATM   14  C8  UNL     1      25.861  -0.945  52.867  1.00  0.00     0.032 A 
HETATM   15  C9  UNL     1      26.812  -1.924  52.671  1.00  0.00     0.046 A 
HETATM   16  C10 UNL     1      28.147  -1.708  52.940  1.00  0.00     0.138 A 
HETATM   17  F1  UNL     1      29.065  -2.684  52.738  1.00  0.00    -0.204 F 
HETATM   18  C11 UNL     1      28.601  -0.500  53.417  1.00  0.00     0.074 A 
HETATM   19 CL1  UNL     1      30.282  -0.143  53.784  1.00  0.00    -0.081 Cl
HETATM   20  C12 UNL     1      27.600   0.464  53.599  1.00  0.00     0.056 A 
ENDBRANCH  11  13
ENDBRANCH   7  11
BRANCH  10  21
HETATM   21  O1  UNL     1      24.675   3.937  49.182  1.00  0.00    -0.349 OA
BRANCH  21  22
HETATM   22  C16 UNL     1      25.997   4.327  49.410  1.00  0.00     0.177 C 
BRANCH  22  23
HETATM   23  C17 UNL     1      26.256   5.764  48.991  1.00  0.00     0.057 C 
BRANCH  23  24
HETATM   24  C18 UNL     1      24.935   6.477  49.064  1.00  0.00     0.273 C 
BRANCH  24  25
HETATM   25  N5  UNL     1      25.030   7.888  49.403  1.00  0.00     0.080 N 
HETATM   26  C19 UNL     1      24.023   8.101  50.467  1.00  0.00     0.309 C 
HETATM   27  C20 UNL     1      26.362   8.052  50.043  1.00  0.00     0.309 C 
ENDBRANCH  24  25
ENDBRANCH  23  24
ENDBRANCH  22  23
ENDBRANCH  21  22
ENDBRANCH  10  21
BRANCH   1  28
HETATM   28  N1  UNL     1      22.336   2.996  48.206  1.00  0.00    -0.392 N 
HETATM   29  C1  UNL     1      21.296   3.972  47.926  1.00  0.00     0.146 C 
HETATM   30  H4  UNL     1      22.708   2.597  47.311  1.00  0.00     0.159 HD
ENDBRANCH   1  28
TORSDOF 8
ENDMDL
