MODEL 1
REMARK VINA RESULT:      -7.3      0.000      0.000
REMARK  3 active torsions:
REMARK  status: ('A' for Active; 'I' for Inactive)
REMARK    1  A    between atoms: C2_2  and  C3_3 
REMARK    2  A    between atoms: C6_8  and  N3_9 
REMARK    3  A    between atoms: N3_9  and  C7_10 
ROOT
HETATM    1  C7  UNL     1      25.629  -0.040  52.593  1.00  0.00     0.163 C 
HETATM    2  C8  UNL     1      26.436  -1.333  52.511  1.00  0.00     0.157 C 
HETATM    3  N4  UNL     1      27.499  -0.599  53.215  1.00  0.00    -0.344 N 
HETATM    4  C9  UNL     1      28.899  -0.733  53.461  1.00  0.00     0.006 C 
HETATM    5  C10 UNL     1      29.508  -2.070  53.255  1.00  0.00     0.068 C 
HETATM    6  C11 UNL     1      29.691   0.264  53.866  1.00  0.00     0.027 C 
HETATM    7  C12 UNL     1      29.370   1.660  54.145  1.00  0.00     0.036 C 
HETATM    8  C13 UNL     1      28.313   2.255  53.647  1.00  0.00     0.083 C 
HETATM    9  N5  UNL     1      27.240   1.700  53.348  1.00  0.00    -0.242 NA
HETATM   10  C14 UNL     1      26.573   0.460  53.648  1.00  0.00     0.209 C 
HETATM   11 BR1  UNL     1      26.029   0.208  55.473  1.00  0.00    -0.033 Br
ENDROOT
BRANCH   1  12
HETATM   12  N3  UNL     1      24.298  -0.379  53.062  1.00  0.00    -0.363 N 
HETATM   13  H6  UNL     1      24.203  -1.235  53.651  1.00  0.00     0.161 HD
BRANCH  12  14
HETATM   14  C6  UNL     1      23.178   0.432  52.727  1.00  0.00     0.137 A 
HETATM   15  C3  UNL     1      22.033   0.320  53.480  1.00  0.00     0.026 A 
HETATM   16  C4  UNL     1      20.970   1.099  53.150  1.00  0.00     0.133 A 
HETATM   17  N1  UNL     1      21.051   1.965  52.098  1.00  0.00    -0.253 NA
HETATM   18  C5  UNL     1      22.198   2.059  51.365  1.00  0.00     0.234 A 
HETATM   19  N2  UNL     1      23.270   1.278  51.692  1.00  0.00    -0.224 NA
BRANCH  15  20
HETATM   20  C2  UNL     1      21.905  -0.578  54.596  1.00  0.00     0.006 C 
HETATM   21  C1  UNL     1      21.194  -1.678  54.431  1.00  0.00     0.012 C 
ENDBRANCH  15  20
ENDBRANCH  12  14
ENDBRANCH   1  12
TORSDOF 3
ENDMDL
MODEL 2
REMARK VINA RESULT:      -7.1      1.687      3.071
REMARK  3 active torsions:
REMARK  status: ('A' for Active; 'I' for Inactive)
REMARK    1  A    between atoms: C2_2  and  C3_3 
REMARK    2  A    between atoms: C6_8  and  N3_9 
REMARK    3  A    between atoms: N3_9  and  C7_10 
ROOT
HETATM    1  C7  UNL     1      25.575  -0.081  54.105  1.00  0.00     0.163 C 
HETATM    2  C8  UNL     1      26.343   1.110  54.672  1.00  0.00     0.157 C 
HETATM    3  N4  UNL     1      27.540   0.498  54.075  1.00  0.00    -0.344 N 
HETATM    4  C9  UNL     1      28.959   0.605  54.191  1.00  0.00     0.006 C 
HETATM    5  C10 UNL     1      29.505   1.822  54.842  1.00  0.00     0.068 C 
HETATM    6  C11 UNL     1      29.821  -0.316  53.752  1.00  0.00     0.027 C 
HETATM    7  C12 UNL     1      29.572  -1.589  53.084  1.00  0.00     0.036 C 
HETATM    8  C13 UNL     1      28.426  -2.221  53.174  1.00  0.00     0.083 C 
HETATM    9  N5  UNL     1      27.315  -1.689  53.344  1.00  0.00    -0.242 NA
HETATM   10  C14 UNL     1      26.738  -0.377  53.204  1.00  0.00     0.209 C 
HETATM   11 BR1  UNL     1      26.638   0.319  51.416  1.00  0.00    -0.033 Br
ENDROOT
BRANCH   1  12
HETATM   12  N3  UNL     1      24.391   0.433  53.440  1.00  0.00    -0.363 N 
HETATM   13  H6  UNL     1      24.516   1.257  52.812  1.00  0.00     0.161 HD
BRANCH  12  14
HETATM   14  C6  UNL     1      23.120  -0.171  53.645  1.00  0.00     0.137 A 
HETATM   15  C3  UNL     1      22.099   0.127  52.773  1.00  0.00     0.026 A 
HETATM   16  C4  UNL     1      20.890  -0.456  52.978  1.00  0.00     0.133 A 
HETATM   17  N1  UNL     1      20.706  -1.312  54.026  1.00  0.00    -0.253 NA
HETATM   18  C5  UNL     1      21.734  -1.592  54.879  1.00  0.00     0.234 A 
HETATM   19  N2  UNL     1      22.953  -1.009  54.677  1.00  0.00    -0.224 NA
BRANCH  15  20
HETATM   20  C2  UNL     1      22.248   1.022  51.657  1.00  0.00     0.006 C 
HETATM   21  C1  UNL     1      21.539   0.785  50.569  1.00  0.00     0.012 C 
ENDBRANCH  15  20
ENDBRANCH  12  14
ENDBRANCH   1  12
TORSDOF 3
ENDMDL
MODEL 3
REMARK VINA RESULT:      -6.8      2.912      6.376
REMARK  3 active torsions:
REMARK  status: ('A' for Active; 'I' for Inactive)
REMARK    1  A    between atoms: C2_2  and  C3_3 
REMARK    2  A    between atoms: C6_8  and  N3_9 
REMARK    3  A    between atoms: N3_9  and  C7_10 
ROOT
HETATM    1  C7  UNL     1      25.533   1.823  51.517  1.00  0.00     0.163 C 
HETATM    2  C8  UNL     1      26.539   2.844  50.993  1.00  0.00     0.157 C 
HETATM    3  N4  UNL     1      25.384   3.523  50.384  1.00  0.00    -0.344 N 
HETATM    4  C9  UNL     1      25.139   4.504  49.376  1.00  0.00     0.006 C 
HETATM    5  C10 UNL     1      26.278   5.357  48.955  1.00  0.00     0.068 C 
HETATM    6  C11 UNL     1      23.954   4.702  48.792  1.00  0.00     0.027 C 
HETATM    7  C12 UNL     1      22.680   4.023  49.005  1.00  0.00     0.036 C 
HETATM    8  C13 UNL     1      22.598   2.823  49.526  1.00  0.00     0.083 C 
HETATM    9  N5  UNL     1      23.401   2.325  50.335  1.00  0.00    -0.242 NA
HETATM   10  C14 UNL     1      24.426   2.795  51.231  1.00  0.00     0.209 C 
HETATM   11 BR1  UNL     1      23.833   3.878  52.704  1.00  0.00    -0.033 Br
ENDROOT
BRANCH   1  12
HETATM   12  N3  UNL     1      25.818   1.604  52.924  1.00  0.00    -0.363 N 
HETATM   13  H6  UNL     1      25.038   1.760  53.599  1.00  0.00     0.161 HD
BRANCH  12  14
HETATM   14  C6  UNL     1      27.111   1.192  53.350  1.00  0.00     0.137 A 
HETATM   15  C3  UNL     1      27.485  -0.116  53.153  1.00  0.00     0.026 A 
HETATM   16  C4  UNL     1      28.722  -0.498  53.565  1.00  0.00     0.133 A 
HETATM   17  N1  UNL     1      29.560   0.403  54.155  1.00  0.00    -0.253 NA
HETATM   18  C5  UNL     1      29.167   1.696  54.341  1.00  0.00     0.234 A 
HETATM   19  N2  UNL     1      27.924   2.086  53.929  1.00  0.00    -0.224 NA
BRANCH  15  20
HETATM   20  C2  UNL     1      26.635  -1.098  52.536  1.00  0.00     0.006 C 
HETATM   21  C1  UNL     1      27.091  -2.331  52.416  1.00  0.00     0.012 C 
ENDBRANCH  15  20
ENDBRANCH  12  14
ENDBRANCH   1  12
TORSDOF 3
ENDMDL
MODEL 4
REMARK VINA RESULT:      -6.8      2.385      6.511
REMARK  3 active torsions:
REMARK  status: ('A' for Active; 'I' for Inactive)
REMARK    1  A    between atoms: C2_2  and  C3_3 
REMARK    2  A    between atoms: C6_8  and  N3_9 
REMARK    3  A    between atoms: N3_9  and  C7_10 
ROOT
HETATM    1  C7  UNL     1      24.731   2.427  52.667  1.00  0.00     0.163 C 
HETATM    2  C8  UNL     1      23.569   1.480  52.955  1.00  0.00     0.157 C 
HETATM    3  N4  UNL     1      22.710   2.503  52.338  1.00  0.00    -0.344 N 
HETATM    4  C9  UNL     1      21.323   2.835  52.285  1.00  0.00     0.006 C 
HETATM    5  C10 UNL     1      20.350   1.785  52.674  1.00  0.00     0.068 C 
HETATM    6  C11 UNL     1      20.848   4.025  51.906  1.00  0.00     0.027 C 
HETATM    7  C12 UNL     1      21.560   5.224  51.477  1.00  0.00     0.036 C 
HETATM    8  C13 UNL     1      22.815   5.448  51.786  1.00  0.00     0.083 C 
HETATM    9  N5  UNL     1      23.681   4.578  51.988  1.00  0.00    -0.242 NA
HETATM   10  C14 UNL     1      23.856   3.177  51.706  1.00  0.00     0.209 C 
HETATM   11 BR1  UNL     1      24.012   2.698  49.852  1.00  0.00    -0.033 Br
ENDROOT
BRANCH   1  12
HETATM   12  N3  UNL     1      25.795   1.648  52.060  1.00  0.00    -0.363 N 
HETATM   13  H6  UNL     1      25.647   1.320  51.080  1.00  0.00     0.161 HD
BRANCH  12  14
HETATM   14  C6  UNL     1      26.985   1.352  52.781  1.00  0.00     0.137 A 
HETATM   15  C3  UNL     1      27.253   0.043  53.104  1.00  0.00     0.026 A 
HETATM   16  C4  UNL     1      28.392  -0.227  53.793  1.00  0.00     0.133 A 
HETATM   17  N1  UNL     1      29.239   0.783  54.148  1.00  0.00    -0.253 NA
HETATM   18  C5  UNL     1      28.951   2.075  53.816  1.00  0.00     0.234 A 
HETATM   19  N2  UNL     1      27.808   2.353  53.123  1.00  0.00    -0.224 NA
BRANCH  15  20
HETATM   20  C2  UNL     1      26.389  -1.052  52.750  1.00  0.00     0.006 C 
HETATM   21  C1  UNL     1      26.946  -2.190  52.380  1.00  0.00     0.012 C 
ENDBRANCH  15  20
ENDBRANCH  12  14
ENDBRANCH   1  12
TORSDOF 3
ENDMDL
MODEL 5
REMARK VINA RESULT:      -6.7      2.645      6.350
REMARK  3 active torsions:
REMARK  status: ('A' for Active; 'I' for Inactive)
REMARK    1  A    between atoms: C2_2  and  C3_3 
REMARK    2  A    between atoms: C6_8  and  N3_9 
REMARK    3  A    between atoms: N3_9  and  C7_10 
ROOT
HETATM    1  C7  UNL     1      25.547   1.086  51.570  1.00  0.00     0.163 C 
HETATM    2  C8  UNL     1      26.588   2.050  51.008  1.00  0.00     0.157 C 
HETATM    3  N4  UNL     1      25.450   2.889  50.603  1.00  0.00    -0.344 N 
HETATM    4  C9  UNL     1      25.195   3.978  49.715  1.00  0.00     0.006 C 
HETATM    5  C10 UNL     1      26.362   4.753  49.225  1.00  0.00     0.068 C 
HETATM    6  C11 UNL     1      23.978   4.342  49.301  1.00  0.00     0.027 C 
HETATM    7  C12 UNL     1      22.673   3.771  49.616  1.00  0.00     0.036 C 
HETATM    8  C13 UNL     1      22.524   2.541  50.045  1.00  0.00     0.083 C 
HETATM    9  N5  UNL     1      23.358   1.897  50.706  1.00  0.00    -0.242 NA
HETATM   10  C14 UNL     1      24.524   2.182  51.502  1.00  0.00     0.209 C 
HETATM   11 BR1  UNL     1      24.224   3.176  53.119  1.00  0.00    -0.033 Br
ENDROOT
BRANCH   1  12
HETATM   12  N3  UNL     1      25.968   0.712  52.908  1.00  0.00    -0.363 N 
HETATM   13  H6  UNL     1      25.466   1.156  53.708  1.00  0.00     0.161 HD
BRANCH  12  14
HETATM   14  C6  UNL     1      27.022  -0.222  53.107  1.00  0.00     0.137 A 
HETATM   15  C3  UNL     1      28.130   0.174  53.818  1.00  0.00     0.026 A 
HETATM   16  C4  UNL     1      29.130  -0.727  54.001  1.00  0.00     0.133 A 
HETATM   17  N1  UNL     1      29.024  -1.988  53.487  1.00  0.00    -0.253 NA
HETATM   18  C5  UNL     1      27.915  -2.358  52.784  1.00  0.00     0.234 A 
HETATM   19  N2  UNL     1      26.906  -1.457  52.597  1.00  0.00    -0.224 NA
BRANCH  15  20
HETATM   20  C2  UNL     1      28.282   1.490  54.377  1.00  0.00     0.006 C 
HETATM   21  C1  UNL     1      28.976   2.381  53.692  1.00  0.00     0.012 C 
ENDBRANCH  15  20
ENDBRANCH  12  14
ENDBRANCH   1  12
TORSDOF 3
ENDMDL
MODEL 6
REMARK VINA RESULT:      -6.6      4.204      7.090
REMARK  3 active torsions:
REMARK  status: ('A' for Active; 'I' for Inactive)
REMARK    1  A    between atoms: C2_2  and  C3_3 
REMARK    2  A    between atoms: C6_8  and  N3_9 
REMARK    3  A    between atoms: N3_9  and  C7_10 
ROOT
HETATM    1  C7  UNL     1      24.012   3.697  52.199  1.00  0.00     0.163 C 
HETATM    2  C8  UNL     1      24.527   2.390  52.796  1.00  0.00     0.157 C 
HETATM    3  N4  UNL     1      23.149   1.895  52.653  1.00  0.00    -0.344 N 
HETATM    4  C9  UNL     1      22.347   0.826  53.154  1.00  0.00     0.006 C 
HETATM    5  C10 UNL     1      23.047  -0.332  53.764  1.00  0.00     0.068 C 
HETATM    6  C11 UNL     1      21.012   0.801  53.106  1.00  0.00     0.027 C 
HETATM    7  C12 UNL     1      20.076   1.784  52.572  1.00  0.00     0.036 C 
HETATM    8  C13 UNL     1      20.391   3.047  52.416  1.00  0.00     0.083 C 
HETATM    9  N5  UNL     1      21.532   3.488  52.188  1.00  0.00    -0.242 NA
HETATM   10  C14 UNL     1      22.790   2.972  51.715  1.00  0.00     0.209 C 
HETATM   11 BR1  UNL     1      22.823   2.354  49.896  1.00  0.00    -0.033 Br
ENDROOT
BRANCH   1  12
HETATM   12  N3  UNL     1      24.941   4.106  51.161  1.00  0.00    -0.363 N 
HETATM   13  H6  UNL     1      25.602   3.383  50.801  1.00  0.00     0.161 HD
BRANCH  12  14
HETATM   14  C6  UNL     1      24.940   5.438  50.664  1.00  0.00     0.137 A 
HETATM   15  C3  UNL     1      25.790   5.759  49.633  1.00  0.00     0.026 A 
HETATM   16  C4  UNL     1      25.781   7.035  49.167  1.00  0.00     0.133 A 
HETATM   17  N1  UNL     1      24.944   7.963  49.717  1.00  0.00    -0.253 NA
HETATM   18  C5  UNL     1      24.109   7.621  50.741  1.00  0.00     0.234 A 
HETATM   19  N2  UNL     1      24.114   6.340  51.213  1.00  0.00    -0.224 NA
BRANCH  15  20
HETATM   20  C2  UNL     1      26.688   4.814  49.024  1.00  0.00     0.006 C 
HETATM   21  C1  UNL     1      27.818   5.267  48.515  1.00  0.00     0.012 C 
ENDBRANCH  15  20
ENDBRANCH  12  14
ENDBRANCH   1  12
TORSDOF 3
ENDMDL
MODEL 7
REMARK VINA RESULT:      -6.5      2.947      6.367
REMARK  3 active torsions:
REMARK  status: ('A' for Active; 'I' for Inactive)
REMARK    1  A    between atoms: C2_2  and  C3_3 
REMARK    2  A    between atoms: C6_8  and  N3_9 
REMARK    3  A    between atoms: N3_9  and  C7_10 
ROOT
HETATM    1  C7  UNL     1      23.104   2.653  52.446  1.00  0.00     0.163 C 
HETATM    2  C8  UNL     1      21.620   2.521  52.115  1.00  0.00     0.157 C 
HETATM    3  N4  UNL     1      21.767   3.795  51.394  1.00  0.00    -0.344 N 
HETATM    4  C9  UNL     1      20.926   4.825  50.875  1.00  0.00     0.006 C 
HETATM    5  C10 UNL     1      19.487   4.511  50.692  1.00  0.00     0.068 C 
HETATM    6  C11 UNL     1      21.351   6.048  50.545  1.00  0.00     0.027 C 
HETATM    7  C12 UNL     1      22.689   6.625  50.617  1.00  0.00     0.036 C 
HETATM    8  C13 UNL     1      23.620   6.152  51.410  1.00  0.00     0.083 C 
HETATM    9  N5  UNL     1      23.727   4.969  51.779  1.00  0.00    -0.242 NA
HETATM   10  C14 UNL     1      23.234   3.682  51.361  1.00  0.00     0.209 C 
HETATM   11 BR1  UNL     1      23.848   3.054  49.652  1.00  0.00    -0.033 Br
ENDROOT
BRANCH   1  12
HETATM   12  N3  UNL     1      23.734   1.376  52.168  1.00  0.00    -0.363 N 
HETATM   13  H6  UNL     1      23.552   0.946  51.234  1.00  0.00     0.161 HD
BRANCH  12  14
HETATM   14  C6  UNL     1      24.565   0.746  53.136  1.00  0.00     0.137 A 
HETATM   15  C3  UNL     1      24.064  -0.324  53.839  1.00  0.00     0.026 A 
HETATM   16  C4  UNL     1      24.866  -0.917  54.762  1.00  0.00     0.133 A 
HETATM   17  N1  UNL     1      26.132  -0.452  54.974  1.00  0.00    -0.253 NA
HETATM   18  C5  UNL     1      26.607   0.612  54.265  1.00  0.00     0.234 A 
HETATM   19  N2  UNL     1      25.805   1.212  53.336  1.00  0.00    -0.224 NA
BRANCH  15  20
HETATM   20  C2  UNL     1      22.738  -0.846  53.647  1.00  0.00     0.006 C 
HETATM   21  C1  UNL     1      21.853  -0.667  54.610  1.00  0.00     0.012 C 
ENDBRANCH  15  20
ENDBRANCH  12  14
ENDBRANCH   1  12
TORSDOF 3
ENDMDL
MODEL 8
REMARK VINA RESULT:      -6.4      2.958      6.772
REMARK  3 active torsions:
REMARK  status: ('A' for Active; 'I' for Inactive)
REMARK    1  A    between atoms: C2_2  and  C3_3 
REMARK    2  A    between atoms: C6_8  and  N3_9 
REMARK    3  A    between atoms: N3_9  and  C7_10 
ROOT
HETATM    1  C7  UNL     1      25.238   2.792  51.046  1.00  0.00     0.163 C 
HETATM    2  C8  UNL     1      25.632   4.127  50.419  1.00  0.00     0.157 C 
HETATM    3  N4  UNL     1      24.288   4.134  49.823  1.00  0.00    -0.344 N 
HETATM    4  C9  UNL     1      23.595   4.806  48.772  1.00  0.00     0.006 C 
HETATM    5  C10 UNL     1      24.187   6.063  48.252  1.00  0.00     0.068 C 
HETATM    6  C11 UNL     1      22.450   4.378  48.231  1.00  0.00     0.027 C 
HETATM    7  C12 UNL     1      21.654   3.195  48.539  1.00  0.00     0.036 C 
HETATM    8  C13 UNL     1      22.158   2.140  49.131  1.00  0.00     0.083 C 
HETATM    9  N5  UNL     1      23.110   2.141  49.932  1.00  0.00    -0.242 NA
HETATM   10  C14 UNL     1      23.799   3.102  50.753  1.00  0.00     0.209 C 
HETATM   11 BR1  UNL     1      22.781   3.879  52.185  1.00  0.00    -0.033 Br
ENDROOT
BRANCH   1  12
HETATM   12  N3  UNL     1      25.609   2.836  52.449  1.00  0.00    -0.363 N 
HETATM   13  H6  UNL     1      25.691   3.777  52.892  1.00  0.00     0.161 HD
BRANCH  12  14
HETATM   14  C6  UNL     1      25.847   1.638  53.177  1.00  0.00     0.137 A 
HETATM   15  C3  UNL     1      27.109   1.407  53.672  1.00  0.00     0.026 A 
HETATM   16  C4  UNL     1      27.325   0.259  54.366  1.00  0.00     0.133 A 
HETATM   17  N1  UNL     1      26.308  -0.631  54.560  1.00  0.00    -0.253 NA
HETATM   18  C5  UNL     1      25.064  -0.380  54.058  1.00  0.00     0.234 A 
HETATM   19  N2  UNL     1      24.841   0.772  53.360  1.00  0.00    -0.224 NA
BRANCH  15  20
HETATM   20  C2  UNL     1      28.209   2.316  53.492  1.00  0.00     0.006 C 
HETATM   21  C1  UNL     1      29.295   2.131  54.218  1.00  0.00     0.012 C 
ENDBRANCH  15  20
ENDBRANCH  12  14
ENDBRANCH   1  12
TORSDOF 3
ENDMDL
MODEL 9
REMARK VINA RESULT:      -6.4      8.534     10.112
REMARK  3 active torsions:
REMARK  status: ('A' for Active; 'I' for Inactive)
REMARK    1  A    between atoms: C2_2  and  C3_3 
REMARK    2  A    between atoms: C6_8  and  N3_9 
REMARK    3  A    between atoms: N3_9  and  C7_10 
ROOT
HETATM    1  C7  UNL     1      31.372   6.344  48.559  1.00  0.00     0.163 C 
HETATM    2  C8  UNL     1      32.638   7.066  49.010  1.00  0.00     0.157 C 
HETATM    3  N4  UNL     1      33.374   5.930  48.435  1.00  0.00    -0.344 N 
HETATM    4  C9  UNL     1      34.684   5.366  48.508  1.00  0.00     0.006 C 
HETATM    5  C10 UNL     1      35.771   6.220  49.046  1.00  0.00     0.068 C 
HETATM    6  C11 UNL     1      34.990   4.124  48.123  1.00  0.00     0.027 C 
HETATM    7  C12 UNL     1      34.137   3.079  47.565  1.00  0.00     0.036 C 
HETATM    8  C13 UNL     1      32.837   3.065  47.733  1.00  0.00     0.083 C 
HETATM    9  N5  UNL     1      32.113   4.065  47.886  1.00  0.00    -0.242 NA
HETATM   10  C14 UNL     1      32.208   5.483  47.656  1.00  0.00     0.209 C 
HETATM   11 BR1  UNL     1      32.338   6.038  45.822  1.00  0.00    -0.033 Br
ENDROOT
BRANCH   1  12
HETATM   12  N3  UNL     1      30.527   7.313  47.884  1.00  0.00    -0.363 N 
HETATM   13  H6  UNL     1      30.764   7.545  46.894  1.00  0.00     0.161 HD
BRANCH  12  14
HETATM   14  C6  UNL     1      29.425   7.912  48.555  1.00  0.00     0.137 A 
HETATM   15  C3  UNL     1      28.219   7.253  48.561  1.00  0.00     0.026 A 
HETATM   16  C4  UNL     1      27.173   7.835  49.204  1.00  0.00     0.133 A 
HETATM   17  N1  UNL     1      27.331   9.041  49.824  1.00  0.00    -0.253 NA
HETATM   18  C5  UNL     1      28.539   9.677  49.804  1.00  0.00     0.234 A 
HETATM   19  N2  UNL     1      29.593   9.096  49.159  1.00  0.00    -0.224 NA
BRANCH  15  20
HETATM   20  C2  UNL     1      28.008   5.982  47.922  1.00  0.00     0.006 C 
HETATM   21  C1  UNL     1      27.675   4.952  48.677  1.00  0.00     0.012 C 
ENDBRANCH  15  20
ENDBRANCH  12  14
ENDBRANCH   1  12
TORSDOF 3
ENDMDL
