MODEL 1
REMARK VINA RESULT:      -8.2      0.000      0.000
REMARK  8 active torsions:
REMARK  status: ('A' for Active; 'I' for Inactive)
REMARK    1  A    between atoms: O1_1  and  C1_2 
REMARK    2  A    between atoms: C1_2  and  C2_3 
REMARK    3  A    between atoms: C2_3  and  C3_4 
REMARK    4  A    between atoms: C5_8  and  C6_9 
REMARK    5  A    between atoms: C6_9  and  N3_10 
REMARK    6  A    between atoms: N3_10  and  C7_11 
REMARK    7  A    between atoms: C16_23  and  O3_24 
REMARK    8  A    between atoms: C17_25  and  N4_26 
ROOT
HETATM    1  C3  UNL     1      23.637   3.471  50.804  1.00  0.00     0.062 C 
HETATM    2  N1  UNL     1      24.420   2.875  51.627  1.00  0.00    -0.244 NA
HETATM    3  C4  UNL     1      24.200   2.677  53.015  1.00  0.00     0.233 C 
HETATM    4  N2  UNL     1      23.823   1.577  52.511  1.00  0.00    -0.245 NA
HETATM    5  C5  UNL     1      23.330   0.519  53.280  1.00  0.00     0.051 C 
HETATM    6  C13 UNL     1      22.027   0.547  53.462  1.00  0.00     0.028 C 
HETATM    7  C14 UNL     1      21.028   1.519  52.984  1.00  0.00     0.197 C 
HETATM    8  O2  UNL     1      21.619   2.520  52.261  1.00  0.00    -0.385 OA
HETATM    9  C15 UNL     1      20.781   3.468  51.740  1.00  0.00     0.202 C 
HETATM   10  C16 UNL     1      21.489   4.584  51.052  1.00  0.00     0.170 C 
HETATM   11  C17 UNL     1      22.545   4.209  50.066  1.00  0.00     0.162 C 
ENDROOT
BRANCH   5  12
HETATM   12  C6  UNL     1      24.329  -0.427  53.747  1.00  0.00     0.178 C 
BRANCH  12  13
HETATM   13  N3  UNL     1      25.234  -0.861  52.708  1.00  0.00    -0.384 N 
HETATM   14  H7  UNL     1      25.074  -1.325  51.769  1.00  0.00     0.160 HD
BRANCH  13  15
HETATM   15  C7  UNL     1      26.633  -0.627  52.973  1.00  0.00     0.030 A 
HETATM   16  C8  UNL     1      27.588  -1.622  53.010  1.00  0.00     0.032 A 
HETATM   17  C9  UNL     1      28.917  -1.410  53.261  1.00  0.00     0.046 A 
HETATM   18  C10 UNL     1      29.354  -0.138  53.494  1.00  0.00     0.138 A 
HETATM   19  F1  UNL     1      30.661   0.136  53.749  1.00  0.00    -0.204 F 
HETATM   20  C11 UNL     1      28.469   0.912  53.475  1.00  0.00     0.074 A 
HETATM   21 CL1  UNL     1      29.013   2.545  53.772  1.00  0.00    -0.081 Cl
HETATM   22  C12 UNL     1      27.149   0.635  53.218  1.00  0.00     0.056 A 
ENDBRANCH  13  15
ENDBRANCH  12  13
ENDBRANCH   5  12
BRANCH   1  23
HETATM   23  C2  UNL     1      24.712   3.126  49.843  1.00  0.00     0.053 C 
BRANCH  23  24
HETATM   24  C1  UNL     1      25.975   3.369  50.156  1.00  0.00     0.133 C 
BRANCH  24  25
HETATM   25  O1  UNL     1      27.165   3.594  50.831  1.00  0.00    -0.373 OA
HETATM   26  H1  UNL     1      27.632   2.924  51.433  1.00  0.00     0.216 HD
ENDBRANCH  24  25
ENDBRANCH  23  24
ENDBRANCH   1  23
BRANCH  11  27
HETATM   27  N4  UNL     1      22.146   3.581  48.890  1.00  0.00    -0.396 N 
HETATM   28  C18 UNL     1      22.092   4.293  47.697  1.00  0.00     0.144 C 
HETATM   29  C19 UNL     1      20.672   4.398  47.189  1.00  0.00     0.187 C 
HETATM   30  O4  UNL     1      20.163   3.111  47.080  1.00  0.00    -0.388 OA
HETATM   31  C20 UNL     1      20.101   2.497  48.304  1.00  0.00     0.187 C 
HETATM   32  C21 UNL     1      21.471   2.342  48.959  1.00  0.00     0.144 C 
ENDBRANCH  11  27
BRANCH  10  33
HETATM   33  O3  UNL     1      20.580   5.476  50.502  1.00  0.00    -0.391 OA
HETATM   34  H17 UNL     1      20.996   5.940  49.733  1.00  0.00     0.210 HD
ENDBRANCH  10  33
TORSDOF 8
ENDMDL
MODEL 2
REMARK VINA RESULT:      -7.7      2.206      2.862
REMARK  8 active torsions:
REMARK  status: ('A' for Active; 'I' for Inactive)
REMARK    1  A    between atoms: O1_1  and  C1_2 
REMARK    2  A    between atoms: C1_2  and  C2_3 
REMARK    3  A    between atoms: C2_3  and  C3_4 
REMARK    4  A    between atoms: C5_8  and  C6_9 
REMARK    5  A    between atoms: C6_9  and  N3_10 
REMARK    6  A    between atoms: N3_10  and  C7_11 
REMARK    7  A    between atoms: C16_23  and  O3_24 
REMARK    8  A    between atoms: C17_25  and  N4_26 
ROOT
HETATM    1  C3  UNL     1      21.932   4.986  51.326  1.00  0.00     0.062 C 
HETATM    2  N1  UNL     1      23.150   4.993  51.729  1.00  0.00    -0.244 NA
HETATM    3  C4  UNL     1      23.721   4.149  52.716  1.00  0.00     0.233 C 
HETATM    4  N2  UNL     1      24.039   3.570  51.635  1.00  0.00    -0.245 NA
HETATM    5  C5  UNL     1      24.778   2.385  51.597  1.00  0.00     0.051 C 
HETATM    6  C13 UNL     1      24.046   1.292  51.627  1.00  0.00     0.028 C 
HETATM    7  C14 UNL     1      22.582   1.138  51.698  1.00  0.00     0.197 C 
HETATM    8  O2  UNL     1      21.959   2.356  51.750  1.00  0.00    -0.385 OA
HETATM    9  C15 UNL     1      20.591   2.336  51.788  1.00  0.00     0.202 C 
HETATM   10  C16 UNL     1      19.975   3.683  51.948  1.00  0.00     0.170 C 
HETATM   11  C17 UNL     1      20.466   4.763  51.041  1.00  0.00     0.162 C 
ENDROOT
BRANCH   5  12
HETATM   12  C6  UNL     1      26.219   2.555  51.532  1.00  0.00     0.178 C 
BRANCH  12  13
HETATM   13  N3  UNL     1      26.858   2.516  52.827  1.00  0.00    -0.384 N 
HETATM   14  H7  UNL     1      26.843   3.183  53.651  1.00  0.00     0.160 HD
BRANCH  13  15
HETATM   15  C7  UNL     1      27.681   1.357  53.073  1.00  0.00     0.030 A 
HETATM   16  C8  UNL     1      28.955   1.413  53.602  1.00  0.00     0.032 A 
HETATM   17  C9  UNL     1      29.743   0.320  53.838  1.00  0.00     0.046 A 
HETATM   18  C10 UNL     1      29.261  -0.922  53.542  1.00  0.00     0.138 A 
HETATM   19  F1  UNL     1      29.996  -2.047  53.754  1.00  0.00    -0.204 F 
HETATM   20  C11 UNL     1      28.003  -1.069  53.013  1.00  0.00     0.074 A 
HETATM   21 CL1  UNL     1      27.373  -2.652  52.627  1.00  0.00    -0.081 Cl
HETATM   22  C12 UNL     1      27.261   0.066  52.798  1.00  0.00     0.056 A 
ENDBRANCH  13  15
ENDBRANCH  12  13
ENDBRANCH   5  12
BRANCH   1  23
HETATM   23  C2  UNL     1      22.424   6.083  50.458  1.00  0.00     0.053 C 
BRANCH  23  24
HETATM   24  C1  UNL     1      23.075   7.103  50.995  1.00  0.00     0.133 C 
BRANCH  24  25
HETATM   25  O1  UNL     1      24.024   8.060  51.321  1.00  0.00    -0.373 OA
HETATM   26  H1  UNL     1      24.565   8.080  52.179  1.00  0.00     0.216 HD
ENDBRANCH  24  25
ENDBRANCH  23  24
ENDBRANCH   1  23
BRANCH  11  27
HETATM   27  N4  UNL     1      20.172   4.659  49.684  1.00  0.00    -0.396 N 
HETATM   28  C18 UNL     1      19.167   5.439  49.122  1.00  0.00     0.144 C 
HETATM   29  C19 UNL     1      18.026   4.582  48.626  1.00  0.00     0.187 C 
HETATM   30  O4  UNL     1      18.549   3.646  47.744  1.00  0.00    -0.388 OA
HETATM   31  C20 UNL     1      19.428   2.806  48.376  1.00  0.00     0.187 C 
HETATM   32  C21 UNL     1      20.634   3.540  48.957  1.00  0.00     0.144 C 
ENDBRANCH  11  27
BRANCH  10  33
HETATM   33  O3  UNL     1      18.591   3.596  51.924  1.00  0.00    -0.391 OA
HETATM   34  H17 UNL     1      18.319   2.645  51.972  1.00  0.00     0.210 HD
ENDBRANCH  10  33
TORSDOF 8
ENDMDL
MODEL 3
REMARK VINA RESULT:      -7.7      2.187      2.529
REMARK  8 active torsions:
REMARK  status: ('A' for Active; 'I' for Inactive)
REMARK    1  A    between atoms: O1_1  and  C1_2 
REMARK    2  A    between atoms: C1_2  and  C2_3 
REMARK    3  A    between atoms: C2_3  and  C3_4 
REMARK    4  A    between atoms: C5_8  and  C6_9 
REMARK    5  A    between atoms: C6_9  and  N3_10 
REMARK    6  A    between atoms: N3_10  and  C7_11 
REMARK    7  A    between atoms: C16_23  and  O3_24 
REMARK    8  A    between atoms: C17_25  and  N4_26 
ROOT
HETATM    1  C3  UNL     1      23.352   5.671  50.167  1.00  0.00     0.062 C 
HETATM    2  N1  UNL     1      24.060   5.479  51.219  1.00  0.00    -0.244 NA
HETATM    3  C4  UNL     1      23.589   5.082  52.497  1.00  0.00     0.233 C 
HETATM    4  N2  UNL     1      23.973   3.987  51.988  1.00  0.00    -0.245 NA
HETATM    5  C5  UNL     1      23.882   2.765  52.659  1.00  0.00     0.051 C 
HETATM    6  C13 UNL     1      22.750   2.124  52.459  1.00  0.00     0.028 C 
HETATM    7  C14 UNL     1      21.580   2.505  51.648  1.00  0.00     0.197 C 
HETATM    8  O2  UNL     1      21.766   3.723  51.053  1.00  0.00    -0.385 OA
HETATM    9  C15 UNL     1      20.752   4.166  50.249  1.00  0.00     0.202 C 
HETATM   10  C16 UNL     1      20.967   5.540  49.712  1.00  0.00     0.170 C 
HETATM   11  C17 UNL     1      22.297   5.825  49.097  1.00  0.00     0.162 C 
ENDROOT
BRANCH   5  12
HETATM   12  C6  UNL     1      25.042   2.407  53.457  1.00  0.00     0.178 C 
BRANCH  12  13
HETATM   13  N3  UNL     1      26.286   2.503  52.731  1.00  0.00    -0.384 N 
HETATM   14  H7  UNL     1      26.641   3.195  52.009  1.00  0.00     0.160 HD
BRANCH  13  15
HETATM   15  C7  UNL     1      27.253   1.474  53.026  1.00  0.00     0.030 A 
HETATM   16  C8  UNL     1      28.486   1.712  53.598  1.00  0.00     0.032 A 
HETATM   17  C9  UNL     1      29.408   0.742  53.880  1.00  0.00     0.046 A 
HETATM   18  C10 UNL     1      29.116  -0.558  53.587  1.00  0.00     0.138 A 
HETATM   19  F1  UNL     1      29.991  -1.566  53.844  1.00  0.00    -0.204 F 
HETATM   20  C11 UNL     1      27.910  -0.885  53.016  1.00  0.00     0.074 A 
HETATM   21 CL1  UNL     1      27.521  -2.544  52.635  1.00  0.00    -0.081 Cl
HETATM   22  C12 UNL     1      27.027   0.134  52.756  1.00  0.00     0.056 A 
ENDBRANCH  13  15
ENDBRANCH  12  13
ENDBRANCH   5  12
BRANCH   1  23
HETATM   23  C2  UNL     1      24.675   5.990  49.578  1.00  0.00     0.053 C 
BRANCH  23  24
HETATM   24  C1  UNL     1      25.419   6.945  50.114  1.00  0.00     0.133 C 
BRANCH  24  25
HETATM   25  O1  UNL     1      26.294   7.671  50.908  1.00  0.00    -0.373 OA
HETATM   26  H1  UNL     1      27.089   7.285  51.406  1.00  0.00     0.216 HD
ENDBRANCH  24  25
ENDBRANCH  23  24
ENDBRANCH   1  23
BRANCH  11  27
HETATM   27  N4  UNL     1      22.615   5.182  47.905  1.00  0.00    -0.396 N 
HETATM   28  C18 UNL     1      22.532   5.864  46.696  1.00  0.00     0.144 C 
HETATM   29  C19 UNL     1      21.461   5.271  45.809  1.00  0.00     0.187 C 
HETATM   30  O4  UNL     1      21.737   3.920  45.655  1.00  0.00    -0.388 OA
HETATM   31  C20 UNL     1      21.666   3.259  46.855  1.00  0.00     0.187 C 
HETATM   32  C21 UNL     1      22.682   3.772  47.872  1.00  0.00     0.144 C 
ENDBRANCH  11  27
BRANCH  10  33
HETATM   33  O3  UNL     1      19.931   5.902  48.864  1.00  0.00    -0.391 OA
HETATM   34  H17 UNL     1      19.191   6.292  49.393  1.00  0.00     0.210 HD
ENDBRANCH  10  33
TORSDOF 8
ENDMDL
MODEL 4
REMARK VINA RESULT:      -7.6      3.268      4.768
REMARK  8 active torsions:
REMARK  status: ('A' for Active; 'I' for Inactive)
REMARK    1  A    between atoms: O1_1  and  C1_2 
REMARK    2  A    between atoms: C1_2  and  C2_3 
REMARK    3  A    between atoms: C2_3  and  C3_4 
REMARK    4  A    between atoms: C5_8  and  C6_9 
REMARK    5  A    between atoms: C6_9  and  N3_10 
REMARK    6  A    between atoms: N3_10  and  C7_11 
REMARK    7  A    between atoms: C16_23  and  O3_24 
REMARK    8  A    between atoms: C17_25  and  N4_26 
ROOT
HETATM    1  C3  UNL     1      24.612   4.780  50.816  1.00  0.00     0.062 C 
HETATM    2  N1  UNL     1      24.073   3.764  51.386  1.00  0.00    -0.244 NA
HETATM    3  C4  UNL     1      23.006   3.782  52.319  1.00  0.00     0.233 C 
HETATM    4  N2  UNL     1      22.416   3.535  51.225  1.00  0.00    -0.245 NA
HETATM    5  C5  UNL     1      21.034   3.352  51.132  1.00  0.00     0.051 C 
HETATM    6  C13 UNL     1      20.359   4.459  50.909  1.00  0.00     0.028 C 
HETATM    7  C14 UNL     1      20.839   5.843  50.750  1.00  0.00     0.197 C 
HETATM    8  O2  UNL     1      22.200   5.911  50.879  1.00  0.00    -0.385 OA
HETATM    9  C15 UNL     1      22.763   7.148  50.720  1.00  0.00     0.202 C 
HETATM   10  C16 UNL     1      24.232   7.177  50.972  1.00  0.00     0.170 C 
HETATM   11  C17 UNL     1      25.054   6.128  50.299  1.00  0.00     0.162 C 
ENDROOT
BRANCH   5  12
HETATM   12  C6  UNL     1      20.577   1.983  51.295  1.00  0.00     0.178 C 
BRANCH  12  13
HETATM   13  N3  UNL     1      21.630   1.007  51.144  1.00  0.00    -0.384 N 
HETATM   14  H7  UNL     1      22.216   0.711  50.312  1.00  0.00     0.160 HD
BRANCH  13  15
HETATM   15  C7  UNL     1      21.974   0.281  52.343  1.00  0.00     0.030 A 
HETATM   16  C8  UNL     1      21.052  -0.334  53.165  1.00  0.00     0.032 A 
HETATM   17  C9  UNL     1      21.368  -1.023  54.303  1.00  0.00     0.046 A 
HETATM   18  C10 UNL     1      22.677  -1.128  54.674  1.00  0.00     0.138 A 
HETATM   19  F1  UNL     1      23.054  -1.801  55.794  1.00  0.00    -0.204 F 
HETATM   20  C11 UNL     1      23.661  -0.547  53.912  1.00  0.00     0.074 A 
HETATM   21 CL1  UNL     1      25.341  -0.671  54.374  1.00  0.00    -0.081 Cl
HETATM   22  C12 UNL     1      23.279   0.133  52.782  1.00  0.00     0.056 A 
ENDBRANCH  13  15
ENDBRANCH  12  13
ENDBRANCH   5  12
BRANCH   1  23
HETATM   23  C2  UNL     1      25.448   3.731  50.184  1.00  0.00     0.053 C 
BRANCH  23  24
HETATM   24  C1  UNL     1      26.401   3.139  50.887  1.00  0.00     0.133 C 
BRANCH  24  25
HETATM   25  O1  UNL     1      27.502   2.873  51.686  1.00  0.00    -0.373 OA
HETATM   26  H1  UNL     1      27.662   3.260  52.610  1.00  0.00     0.216 HD
ENDBRANCH  24  25
ENDBRANCH  23  24
ENDBRANCH   1  23
BRANCH  11  27
HETATM   27  N4  UNL     1      25.172   6.181  48.913  1.00  0.00    -0.396 N 
HETATM   28  C18 UNL     1      26.360   6.599  48.325  1.00  0.00     0.144 C 
HETATM   29  C19 UNL     1      26.168   7.892  47.566  1.00  0.00     0.187 C 
HETATM   30  O4  UNL     1      25.144   7.698  46.649  1.00  0.00    -0.388 OA
HETATM   31  C20 UNL     1      23.957   7.430  47.281  1.00  0.00     0.187 C 
HETATM   32  C21 UNL     1      24.007   6.153  48.116  1.00  0.00     0.144 C 
ENDBRANCH  11  27
BRANCH  10  33
HETATM   33  O3  UNL     1      24.744   8.445  50.741  1.00  0.00    -0.391 OA
HETATM   34  H17 UNL     1      24.001   9.075  50.569  1.00  0.00     0.210 HD
ENDBRANCH  10  33
TORSDOF 8
ENDMDL
MODEL 5
REMARK VINA RESULT:      -7.4      8.478     11.532
REMARK  8 active torsions:
REMARK  status: ('A' for Active; 'I' for Inactive)
REMARK    1  A    between atoms: O1_1  and  C1_2 
REMARK    2  A    between atoms: C1_2  and  C2_3 
REMARK    3  A    between atoms: C2_3  and  C3_4 
REMARK    4  A    between atoms: C5_8  and  C6_9 
REMARK    5  A    between atoms: C6_9  and  N3_10 
REMARK    6  A    between atoms: N3_10  and  C7_11 
REMARK    7  A    between atoms: C16_23  and  O3_24 
REMARK    8  A    between atoms: C17_25  and  N4_26 
ROOT
HETATM    1  C3  UNL     1      32.770   7.257  47.343  1.00  0.00     0.062 C 
HETATM    2  N1  UNL     1      31.900   7.188  48.284  1.00  0.00    -0.244 NA
HETATM    3  C4  UNL     1      31.735   8.104  49.355  1.00  0.00     0.233 C 
HETATM    4  N2  UNL     1      30.864   8.490  48.520  1.00  0.00    -0.245 NA
HETATM    5  C5  UNL     1      30.020   9.580  48.753  1.00  0.00     0.051 C 
HETATM    6  C13 UNL     1      30.503  10.732  48.339  1.00  0.00     0.028 C 
HETATM    7  C14 UNL     1      31.786  11.037  47.682  1.00  0.00     0.197 C 
HETATM    8  O2  UNL     1      32.540   9.906  47.521  1.00  0.00    -0.385 OA
HETATM    9  C15 UNL     1      33.745  10.064  46.893  1.00  0.00     0.202 C 
HETATM   10  C16 UNL     1      34.563   8.820  46.839  1.00  0.00     0.170 C 
HETATM   11  C17 UNL     1      33.878   7.580  46.369  1.00  0.00     0.162 C 
ENDROOT
BRANCH   5  12
HETATM   12  C6  UNL     1      28.762   9.262  49.405  1.00  0.00     0.178 C 
BRANCH  12  13
HETATM   13  N3  UNL     1      27.775   8.712  48.506  1.00  0.00    -0.384 N 
HETATM   14  H7  UNL     1      27.198   9.143  47.728  1.00  0.00     0.160 HD
BRANCH  13  15
HETATM   15  C7  UNL     1      27.504   7.305  48.675  1.00  0.00     0.030 A 
HETATM   16  C8  UNL     1      28.359   6.299  48.271  1.00  0.00     0.032 A 
HETATM   17  C9  UNL     1      28.110   4.963  48.427  1.00  0.00     0.046 A 
HETATM   18  C10 UNL     1      26.946   4.569  49.019  1.00  0.00     0.138 A 
HETATM   19  F1  UNL     1      26.641   3.256  49.201  1.00  0.00    -0.204 F 
HETATM   20  C11 UNL     1      26.038   5.504  49.451  1.00  0.00     0.074 A 
HETATM   21 CL1  UNL     1      24.542   5.016  50.210  1.00  0.00    -0.081 Cl
HETATM   22  C12 UNL     1      26.345   6.830  49.266  1.00  0.00     0.056 A 
ENDBRANCH  13  15
ENDBRANCH  12  13
ENDBRANCH   5  12
BRANCH   1  23
HETATM   23  C2  UNL     1      32.105   6.005  46.909  1.00  0.00     0.053 C 
BRANCH  23  24
HETATM   24  C1  UNL     1      32.245   4.903  47.629  1.00  0.00     0.133 C 
BRANCH  24  25
HETATM   25  O1  UNL     1      32.429   3.996  48.661  1.00  0.00    -0.373 OA
HETATM   26  H1  UNL     1      31.693   3.459  49.107  1.00  0.00     0.216 HD
ENDBRANCH  24  25
ENDBRANCH  23  24
ENDBRANCH   1  23
BRANCH  11  27
HETATM   27  N4  UNL     1      33.482   7.518  45.036  1.00  0.00    -0.396 N 
HETATM   28  C18 UNL     1      34.191   6.738  44.129  1.00  0.00     0.144 C 
HETATM   29  C19 UNL     1      34.848   7.594  43.071  1.00  0.00     0.187 C 
HETATM   30  O4  UNL     1      33.861   8.365  42.473  1.00  0.00    -0.388 OA
HETATM   31  C20 UNL     1      33.287   9.223  43.375  1.00  0.00     0.187 C 
HETATM   32  C21 UNL     1      32.599   8.496  44.528  1.00  0.00     0.144 C 
ENDBRANCH  11  27
BRANCH  10  33
HETATM   33  O3  UNL     1      35.743   9.039  46.142  1.00  0.00    -0.391 OA
HETATM   34  H17 UNL     1      35.562   9.010  45.170  1.00  0.00     0.210 HD
ENDBRANCH  10  33
TORSDOF 8
ENDMDL
MODEL 6
REMARK VINA RESULT:      -7.2      2.094      3.443
REMARK  8 active torsions:
REMARK  status: ('A' for Active; 'I' for Inactive)
REMARK    1  A    between atoms: O1_1  and  C1_2 
REMARK    2  A    between atoms: C1_2  and  C2_3 
REMARK    3  A    between atoms: C2_3  and  C3_4 
REMARK    4  A    between atoms: C5_8  and  C6_9 
REMARK    5  A    between atoms: C6_9  and  N3_10 
REMARK    6  A    between atoms: N3_10  and  C7_11 
REMARK    7  A    between atoms: C16_23  and  O3_24 
REMARK    8  A    between atoms: C17_25  and  N4_26 
ROOT
HETATM    1  C3  UNL     1      21.319   2.048  49.880  1.00  0.00     0.062 C 
HETATM    2  N1  UNL     1      22.503   1.747  50.273  1.00  0.00    -0.244 NA
HETATM    3  C4  UNL     1      23.622   2.617  50.336  1.00  0.00     0.233 C 
HETATM    4  N2  UNL     1      23.185   2.635  51.526  1.00  0.00    -0.245 NA
HETATM    5  C5  UNL     1      23.780   3.388  52.542  1.00  0.00     0.051 C 
HETATM    6  C13 UNL     1      23.301   4.608  52.658  1.00  0.00     0.028 C 
HETATM    7  C14 UNL     1      22.248   5.287  51.882  1.00  0.00     0.197 C 
HETATM    8  O2  UNL     1      21.750   4.469  50.904  1.00  0.00    -0.385 OA
HETATM    9  C15 UNL     1      20.742   4.986  50.137  1.00  0.00     0.202 C 
HETATM   10  C16 UNL     1      20.312   4.090  49.026  1.00  0.00     0.170 C 
HETATM   11  C17 UNL     1      20.036   2.665  49.376  1.00  0.00     0.162 C 
ENDROOT
BRANCH   5  12
HETATM   12  C6  UNL     1      24.819   2.706  53.294  1.00  0.00     0.178 C 
BRANCH  12  13
HETATM   13  N3  UNL     1      24.590   1.286  53.424  1.00  0.00    -0.384 N 
HETATM   14  H7  UNL     1      23.711   0.716  53.590  1.00  0.00     0.160 HD
BRANCH  13  15
HETATM   15  C7  UNL     1      25.766   0.459  53.309  1.00  0.00     0.030 A 
HETATM   16  C8  UNL     1      25.752  -0.846  52.861  1.00  0.00     0.032 A 
HETATM   17  C9  UNL     1      26.862  -1.638  52.749  1.00  0.00     0.046 A 
HETATM   18  C10 UNL     1      28.079  -1.128  53.096  1.00  0.00     0.138 A 
HETATM   19  F1  UNL     1      29.219  -1.865  53.007  1.00  0.00    -0.204 F 
HETATM   20  C11 UNL     1      28.184   0.163  53.552  1.00  0.00     0.074 A 
HETATM   21 CL1  UNL     1      29.735   0.830  54.001  1.00  0.00    -0.081 Cl
HETATM   22  C12 UNL     1      27.034   0.907  53.642  1.00  0.00     0.056 A 
ENDBRANCH  13  15
ENDBRANCH  12  13
ENDBRANCH   5  12
BRANCH   1  23
HETATM   23  C2  UNL     1      21.069   0.620  50.194  1.00  0.00     0.053 C 
BRANCH  23  24
HETATM   24  C1  UNL     1      21.377   0.149  51.392  1.00  0.00     0.133 C 
BRANCH  24  25
HETATM   25  O1  UNL     1      22.013  -0.152  52.587  1.00  0.00    -0.373 OA
HETATM   26  H1  UNL     1      21.561  -0.207  53.493  1.00  0.00     0.216 HD
ENDBRANCH  24  25
ENDBRANCH  23  24
ENDBRANCH   1  23
BRANCH  11  27
HETATM   27  N4  UNL     1      18.934   2.392  50.181  1.00  0.00    -0.396 N 
HETATM   28  C18 UNL     1      17.805   1.785  49.643  1.00  0.00     0.144 C 
HETATM   29  C19 UNL     1      16.613   2.713  49.690  1.00  0.00     0.187 C 
HETATM   30  O4  UNL     1      16.440   3.117  51.006  1.00  0.00    -0.388 OA
HETATM   31  C20 UNL     1      17.519   3.838  51.450  1.00  0.00     0.187 C 
HETATM   32  C21 UNL     1      18.815   3.030  51.435  1.00  0.00     0.144 C 
ENDBRANCH  11  27
BRANCH  10  33
HETATM   33  O3  UNL     1      19.254   4.650  48.326  1.00  0.00    -0.391 OA
HETATM   34  H17 UNL     1      19.426   4.579  47.354  1.00  0.00     0.210 HD
ENDBRANCH  10  33
TORSDOF 8
ENDMDL
MODEL 7
REMARK VINA RESULT:      -7.2      2.087      3.817
REMARK  8 active torsions:
REMARK  status: ('A' for Active; 'I' for Inactive)
REMARK    1  A    between atoms: O1_1  and  C1_2 
REMARK    2  A    between atoms: C1_2  and  C2_3 
REMARK    3  A    between atoms: C2_3  and  C3_4 
REMARK    4  A    between atoms: C5_8  and  C6_9 
REMARK    5  A    between atoms: C6_9  and  N3_10 
REMARK    6  A    between atoms: N3_10  and  C7_11 
REMARK    7  A    between atoms: C16_23  and  O3_24 
REMARK    8  A    between atoms: C17_25  and  N4_26 
ROOT
HETATM    1  C3  UNL     1      21.075   2.449  50.748  1.00  0.00     0.062 C 
HETATM    2  N1  UNL     1      21.791   1.789  51.584  1.00  0.00    -0.244 NA
HETATM    3  C4  UNL     1      23.095   1.276  51.364  1.00  0.00     0.233 C 
HETATM    4  N2  UNL     1      23.321   2.367  51.967  1.00  0.00    -0.245 NA
HETATM    5  C5  UNL     1      24.611   2.816  52.267  1.00  0.00     0.051 C 
HETATM    6  C13 UNL     1      25.153   3.561  51.328  1.00  0.00     0.028 C 
HETATM    7  C14 UNL     1      24.610   3.980  50.023  1.00  0.00     0.197 C 
HETATM    8  O2  UNL     1      23.356   3.471  49.824  1.00  0.00    -0.385 OA
HETATM    9  C15 UNL     1      22.739   3.820  48.654  1.00  0.00     0.202 C 
HETATM   10  C16 UNL     1      21.421   3.155  48.447  1.00  0.00     0.170 C 
HETATM   11  C17 UNL     1      20.458   3.193  49.587  1.00  0.00     0.162 C 
ENDROOT
BRANCH   5  12
HETATM   12  C6  UNL     1      25.132   2.390  53.554  1.00  0.00     0.178 C 
BRANCH  12  13
HETATM   13  N3  UNL     1      26.553   2.608  53.695  1.00  0.00    -0.384 N 
HETATM   14  H7  UNL     1      27.130   3.484  53.847  1.00  0.00     0.160 HD
BRANCH  13  15
HETATM   15  C7  UNL     1      27.368   1.420  53.619  1.00  0.00     0.030 A 
HETATM   16  C8  UNL     1      28.678   1.353  54.049  1.00  0.00     0.032 A 
HETATM   17  C9  UNL     1      29.459   0.232  53.980  1.00  0.00     0.046 A 
HETATM   18  C10 UNL     1      28.933  -0.913  53.457  1.00  0.00     0.138 A 
HETATM   19  F1  UNL     1      29.658  -2.059  53.363  1.00  0.00    -0.204 F 
HETATM   20  C11 UNL     1      27.636  -0.935  53.006  1.00  0.00     0.074 A 
HETATM   21 CL1  UNL     1      26.948  -2.393  52.333  1.00  0.00    -0.081 Cl
HETATM   22  C12 UNL     1      26.903   0.222  53.101  1.00  0.00     0.056 A 
ENDBRANCH  13  15
ENDBRANCH  12  13
ENDBRANCH   5  12
BRANCH   1  23
HETATM   23  C2  UNL     1      20.113   2.445  51.876  1.00  0.00     0.053 C 
BRANCH  23  24
HETATM   24  C1  UNL     1      19.646   1.294  52.336  1.00  0.00     0.133 C 
BRANCH  24  25
HETATM   25  O1  UNL     1      19.468  -0.042  52.658  1.00  0.00    -0.373 OA
HETATM   26  H1  UNL     1      18.575  -0.484  52.848  1.00  0.00     0.216 HD
ENDBRANCH  24  25
ENDBRANCH  23  24
ENDBRANCH   1  23
BRANCH  11  27
HETATM   27  N4  UNL     1      19.914   4.423  49.941  1.00  0.00    -0.396 N 
HETATM   28  C18 UNL     1      18.628   4.765  49.537  1.00  0.00     0.144 C 
HETATM   29  C19 UNL     1      18.650   5.939  48.586  1.00  0.00     0.187 C 
HETATM   30  O4  UNL     1      19.319   6.981  49.213  1.00  0.00    -0.388 OA
HETATM   31  C20 UNL     1      20.626   6.652  49.464  1.00  0.00     0.187 C 
HETATM   32  C21 UNL     1      20.765   5.453  50.399  1.00  0.00     0.144 C 
ENDBRANCH  11  27
BRANCH  10  33
HETATM   33  O3  UNL     1      20.829   3.595  47.273  1.00  0.00    -0.391 OA
HETATM   34  H17 UNL     1      21.249   3.142  46.500  1.00  0.00     0.210 HD
ENDBRANCH  10  33
TORSDOF 8
ENDMDL
MODEL 8
REMARK VINA RESULT:      -7.2      3.841      6.258
REMARK  8 active torsions:
REMARK  status: ('A' for Active; 'I' for Inactive)
REMARK    1  A    between atoms: O1_1  and  C1_2 
REMARK    2  A    between atoms: C1_2  and  C2_3 
REMARK    3  A    between atoms: C2_3  and  C3_4 
REMARK    4  A    between atoms: C5_8  and  C6_9 
REMARK    5  A    between atoms: C6_9  and  N3_10 
REMARK    6  A    between atoms: N3_10  and  C7_11 
REMARK    7  A    between atoms: C16_23  and  O3_24 
REMARK    8  A    between atoms: C17_25  and  N4_26 
ROOT
HETATM    1  C3  UNL     1      23.921   2.779  51.479  1.00  0.00     0.062 C 
HETATM    2  N1  UNL     1      25.008   3.442  51.316  1.00  0.00    -0.244 NA
HETATM    3  C4  UNL     1      25.657   3.716  50.085  1.00  0.00     0.233 C 
HETATM    4  N2  UNL     1      24.992   4.775  50.292  1.00  0.00    -0.245 NA
HETATM    5  C5  UNL     1      25.004   5.862  49.415  1.00  0.00     0.051 C 
HETATM    6  C13 UNL     1      24.078   5.812  48.482  1.00  0.00     0.028 C 
HETATM    7  C14 UNL     1      23.048   4.788  48.228  1.00  0.00     0.197 C 
HETATM    8  O2  UNL     1      23.139   3.762  49.129  1.00  0.00    -0.385 OA
HETATM    9  C15 UNL     1      22.211   2.764  49.007  1.00  0.00     0.202 C 
HETATM   10  C16 UNL     1      22.422   1.628  49.948  1.00  0.00     0.170 C 
HETATM   11  C17 UNL     1      22.648   1.972  51.384  1.00  0.00     0.162 C 
ENDROOT
BRANCH   5  12
HETATM   12  C6  UNL     1      26.028   6.859  49.676  1.00  0.00     0.178 C 
BRANCH  12  13
HETATM   13  N3  UNL     1      26.655   7.362  48.477  1.00  0.00    -0.384 N 
HETATM   14  H7  UNL     1      26.260   7.743  47.569  1.00  0.00     0.160 HD
BRANCH  13  15
HETATM   15  C7  UNL     1      28.098   7.359  48.488  1.00  0.00     0.030 A 
HETATM   16  C8  UNL     1      28.870   8.434  48.876  1.00  0.00     0.032 A 
HETATM   17  C9  UNL     1      30.238   8.440  48.889  1.00  0.00     0.046 A 
HETATM   18  C10 UNL     1      30.911   7.319  48.498  1.00  0.00     0.138 A 
HETATM   19  F1  UNL     1      32.269   7.263  48.489  1.00  0.00    -0.204 F 
HETATM   20  C11 UNL     1      30.220   6.202  48.097  1.00  0.00     0.074 A 
HETATM   21 CL1  UNL     1      31.066   4.760  47.592  1.00  0.00    -0.081 Cl
HETATM   22  C12 UNL     1      28.848   6.259  48.105  1.00  0.00     0.056 A 
ENDBRANCH  13  15
ENDBRANCH  12  13
ENDBRANCH   5  12
BRANCH   1  23
HETATM   23  C2  UNL     1      24.178   3.095  52.904  1.00  0.00     0.053 C 
BRANCH  23  24
HETATM   24  C1  UNL     1      25.285   2.657  53.484  1.00  0.00     0.133 C 
BRANCH  24  25
HETATM   25  O1  UNL     1      26.570   2.534  53.990  1.00  0.00    -0.373 OA
HETATM   26  H1  UNL     1      27.131   3.296  54.355  1.00  0.00     0.216 HD
ENDBRANCH  24  25
ENDBRANCH  23  24
ENDBRANCH   1  23
BRANCH  11  27
HETATM   27  N4  UNL     1      21.587   2.520  52.098  1.00  0.00    -0.396 N 
HETATM   28  C18 UNL     1      20.669   1.693  52.736  1.00  0.00     0.144 C 
HETATM   29  C19 UNL     1      19.294   1.830  52.125  1.00  0.00     0.187 C 
HETATM   30  O4  UNL     1      18.941   3.172  52.168  1.00  0.00    -0.388 OA
HETATM   31  C20 UNL     1      19.791   3.933  51.406  1.00  0.00     0.187 C 
HETATM   32  C21 UNL     1      21.236   3.873  51.893  1.00  0.00     0.144 C 
ENDBRANCH  11  27
BRANCH  10  33
HETATM   33  O3  UNL     1      21.417   0.683  49.809  1.00  0.00    -0.391 OA
HETATM   34  H17 UNL     1      20.726   1.023  49.188  1.00  0.00     0.210 HD
ENDBRANCH  10  33
TORSDOF 8
ENDMDL
MODEL 9
REMARK VINA RESULT:      -7.1      2.755      3.649
REMARK  8 active torsions:
REMARK  status: ('A' for Active; 'I' for Inactive)
REMARK    1  A    between atoms: O1_1  and  C1_2 
REMARK    2  A    between atoms: C1_2  and  C2_3 
REMARK    3  A    between atoms: C2_3  and  C3_4 
REMARK    4  A    between atoms: C5_8  and  C6_9 
REMARK    5  A    between atoms: C6_9  and  N3_10 
REMARK    6  A    between atoms: N3_10  and  C7_11 
REMARK    7  A    between atoms: C16_23  and  O3_24 
REMARK    8  A    between atoms: C17_25  and  N4_26 
ROOT
HETATM    1  C3  UNL     1      22.970   6.670  50.821  1.00  0.00     0.062 C 
HETATM    2  N1  UNL     1      23.883   6.067  51.491  1.00  0.00    -0.244 NA
HETATM    3  C4  UNL     1      23.812   4.758  52.034  1.00  0.00     0.233 C 
HETATM    4  N2  UNL     1      24.433   4.576  50.944  1.00  0.00    -0.245 NA
HETATM    5  C5  UNL     1      24.873   3.318  50.522  1.00  0.00     0.051 C 
HETATM    6  C13 UNL     1      23.997   2.657  49.796  1.00  0.00     0.028 C 
HETATM    7  C14 UNL     1      22.638   3.042  49.373  1.00  0.00     0.197 C 
HETATM    8  O2  UNL     1      22.302   4.278  49.856  1.00  0.00    -0.385 OA
HETATM    9  C15 UNL     1      21.069   4.752  49.501  1.00  0.00     0.202 C 
HETATM   10  C16 UNL     1      20.719   6.053  50.138  1.00  0.00     0.170 C 
HETATM   11  C17 UNL     1      21.745   7.136  50.071  1.00  0.00     0.162 C 
ENDROOT
BRANCH   5  12
HETATM   12  C6  UNL     1      26.212   2.953  50.951  1.00  0.00     0.178 C 
BRANCH  12  13
HETATM   13  N3  UNL     1      26.310   2.711  52.371  1.00  0.00    -0.384 N 
HETATM   14  H7  UNL     1      25.865   3.183  53.210  1.00  0.00     0.160 HD
BRANCH  13  15
HETATM   15  C7  UNL     1      27.173   1.619  52.751  1.00  0.00     0.030 A 
HETATM   16  C8  UNL     1      28.389   1.779  53.382  1.00  0.00     0.032 A 
HETATM   17  C9  UNL     1      29.215   0.750  53.746  1.00  0.00     0.046 A 
HETATM   18  C10 UNL     1      28.833  -0.532  53.479  1.00  0.00     0.138 A 
HETATM   19  F1  UNL     1      29.609  -1.597  53.816  1.00  0.00    -0.204 F 
HETATM   20  C11 UNL     1      27.636  -0.783  52.854  1.00  0.00     0.074 A 
HETATM   21 CL1  UNL     1      27.134  -2.419  52.505  1.00  0.00    -0.081 Cl
HETATM   22  C12 UNL     1      26.853   0.292  52.513  1.00  0.00     0.056 A 
ENDBRANCH  13  15
ENDBRANCH  12  13
ENDBRANCH   5  12
BRANCH   1  23
HETATM   23  C2  UNL     1      23.983   7.752  50.796  1.00  0.00     0.053 C 
BRANCH  23  24
HETATM   24  C1  UNL     1      25.221   7.484  50.408  1.00  0.00     0.133 C 
BRANCH  24  25
HETATM   25  O1  UNL     1      26.391   6.852  50.018  1.00  0.00    -0.373 OA
HETATM   26  H1  UNL     1      27.305   7.006  50.430  1.00  0.00     0.216 HD
ENDBRANCH  24  25
ENDBRANCH  23  24
ENDBRANCH   1  23
BRANCH  11  27
HETATM   27  N4  UNL     1      22.031   7.688  48.826  1.00  0.00    -0.396 N 
HETATM   28  C18 UNL     1      21.535   8.941  48.484  1.00  0.00     0.144 C 
HETATM   29  C19 UNL     1      20.558   8.846  47.335  1.00  0.00     0.187 C 
HETATM   30  O4  UNL     1      21.199   8.206  46.283  1.00  0.00    -0.388 OA
HETATM   31  C20 UNL     1      21.542   6.922  46.619  1.00  0.00     0.187 C 
HETATM   32  C21 UNL     1      22.516   6.857  47.793  1.00  0.00     0.144 C 
ENDBRANCH  11  27
BRANCH  10  33
HETATM   33  O3  UNL     1      19.484   6.501  49.692  1.00  0.00    -0.391 OA
HETATM   34  H17 UNL     1      19.453   7.489  49.742  1.00  0.00     0.210 HD
ENDBRANCH  10  33
TORSDOF 8
ENDMDL
