MODEL 1
REMARK VINA RESULT:      -8.7      0.000      0.000
REMARK  6 active torsions:
REMARK  status: ('A' for Active; 'I' for Inactive)
REMARK    1  A    between atoms: C3_3  and  C4_4 
REMARK    2  A    between atoms: C5_5  and  C6_7 
REMARK    3  A    between atoms: C9_10  and  N1_11 
REMARK    4  A    between atoms: C10_12  and  N2_13 
REMARK    5  A    between atoms: N4_16  and  N5_17 
REMARK    6  A    between atoms: N5_17  and  C12_18 
ROOT
HETATM    1  C6  UNL     1      25.315   0.915  53.109  1.00  0.00     0.159 C 
HETATM    2  C7  UNL     1      25.842  -0.464  52.913  1.00  0.00     0.068 C 
HETATM    3  C8  UNL     1      27.027  -0.988  52.650  1.00  0.00     0.006 C 
HETATM    4  C9  UNL     1      28.028  -0.358  53.242  1.00  0.00     0.248 C 
HETATM    5  C10 UNL     1      28.762   0.873  53.620  1.00  0.00     0.381 C 
HETATM    6  N3  UNL     1      28.421   1.983  52.736  1.00  0.00    -0.245 NA
HETATM    7  C11 UNL     1      27.285   2.317  52.185  1.00  0.00     0.223 C 
HETATM    8  N4  UNL     1      25.941   1.833  52.159  1.00  0.00    -0.275 N 
ENDROOT
BRANCH   8   9
HETATM    9  N5  UNL     1      25.264   2.369  51.060  1.00  0.00    -0.297 N 
HETATM   10  H15 UNL     1      24.476   1.745  50.779  1.00  0.00     0.187 HD
BRANCH   9  11
HETATM   11  C12 UNL     1      25.592   3.589  50.410  1.00  0.00     0.049 A 
HETATM   12  C13 UNL     1      26.612   3.566  49.484  1.00  0.00     0.031 A 
HETATM   13  C14 UNL     1      26.855   4.816  48.902  1.00  0.00     0.004 A 
HETATM   14  C15 UNL     1      26.147   5.961  49.221  1.00  0.00     0.019 A 
HETATM   15  C16 UNL     1      25.154   5.884  50.150  1.00  0.00     0.013 A 
HETATM   16 BR1  UNL     1      24.129   7.427  50.644  1.00  0.00    -0.051 Br
HETATM   17  C17 UNL     1      24.854   4.693  50.767  1.00  0.00     0.050 A 
ENDBRANCH   9  11
ENDBRANCH   8   9
BRANCH   1  18
HETATM   18  C5  UNL     1      23.848   0.855  52.909  1.00  0.00     0.037 C 
HETATM   19  C4  UNL     1      23.185  -0.279  52.819  1.00  0.00     0.021 C 
HETATM   20 CL1  UNL     1      22.868   2.302  52.778  1.00  0.00    -0.087 Cl
BRANCH  19  21
HETATM   21  C3  UNL     1      21.744  -0.186  52.623  1.00  0.00    -0.003 C 
HETATM   22  C2  UNL     1      20.873  -0.667  53.469  1.00  0.00    -0.031 C 
HETATM   23  C1  UNL     1      19.406  -0.648  53.406  1.00  0.00     0.036 C 
ENDBRANCH  19  21
ENDBRANCH   1  18
BRANCH   5  24
HETATM   24  N2  UNL     1      28.571   1.296  54.968  1.00  0.00     0.105 N 
HETATM   25  H12 UNL     1      28.438   0.527  55.656  1.00  0.00     0.315 HD
HETATM   26  H13 UNL     1      29.249   2.025  55.291  1.00  0.00     0.315 HD
ENDBRANCH   5  24
BRANCH   4  27
HETATM   27  N1  UNL     1      28.755  -1.452  53.789  1.00  0.00     0.095 NA
HETATM   28  H9  UNL     1      28.698  -2.390  54.249  1.00  0.00     0.314 HD
HETATM   29  H10 UNL     1      28.316  -2.291  54.195  1.00  0.00     0.314 HD
ENDBRANCH   4  27
TORSDOF 6
ENDMDL
MODEL 2
REMARK VINA RESULT:      -8.5      3.055      6.570
REMARK  6 active torsions:
REMARK  status: ('A' for Active; 'I' for Inactive)
REMARK    1  A    between atoms: C3_3  and  C4_4 
REMARK    2  A    between atoms: C5_5  and  C6_7 
REMARK    3  A    between atoms: C9_10  and  N1_11 
REMARK    4  A    between atoms: C10_12  and  N2_13 
REMARK    5  A    between atoms: N4_16  and  N5_17 
REMARK    6  A    between atoms: N5_17  and  C12_18 
ROOT
HETATM    1  C6  UNL     1      25.543   2.359  52.427  1.00  0.00     0.159 C 
HETATM    2  C7  UNL     1      26.293   2.856  51.239  1.00  0.00     0.068 C 
HETATM    3  C8  UNL     1      26.003   3.617  50.198  1.00  0.00     0.006 C 
HETATM    4  C9  UNL     1      25.183   4.615  50.483  1.00  0.00     0.248 C 
HETATM    5  C10 UNL     1      23.956   5.166  51.105  1.00  0.00     0.381 C 
HETATM    6  N3  UNL     1      22.966   4.119  51.338  1.00  0.00    -0.245 NA
HETATM    7  C11 UNL     1      23.110   2.876  51.710  1.00  0.00     0.223 C 
HETATM    8  N4  UNL     1      24.181   1.991  52.045  1.00  0.00    -0.275 N 
ENDROOT
BRANCH   8   9
HETATM    9  N5  UNL     1      23.746   0.666  51.959  1.00  0.00    -0.297 N 
HETATM   10  H15 UNL     1      24.208   0.183  51.156  1.00  0.00     0.187 HD
BRANCH   9  11
HETATM   11  C12 UNL     1      22.811   0.050  52.832  1.00  0.00     0.049 A 
HETATM   12  C13 UNL     1      23.294  -0.502  53.999  1.00  0.00     0.031 A 
HETATM   13  C14 UNL     1      22.293  -1.082  54.788  1.00  0.00     0.004 A 
HETATM   14  C15 UNL     1      20.955  -1.102  54.437  1.00  0.00     0.019 A 
HETATM   15  C16 UNL     1      20.573  -0.529  53.262  1.00  0.00     0.013 A 
HETATM   16 BR1  UNL     1      18.739  -0.517  52.708  1.00  0.00    -0.051 Br
HETATM   17  C17 UNL     1      21.496   0.061  52.431  1.00  0.00     0.050 A 
ENDBRANCH   9  11
ENDBRANCH   8   9
BRANCH   1  18
HETATM   18  C5  UNL     1      26.287   1.191  52.955  1.00  0.00     0.037 C 
HETATM   19  C4  UNL     1      26.895   0.319  52.178  1.00  0.00     0.021 C 
HETATM   20 CL1  UNL     1      26.417   0.873  54.673  1.00  0.00    -0.087 Cl
BRANCH  19  21
HETATM   21  C3  UNL     1      27.587  -0.780  52.836  1.00  0.00    -0.003 C 
HETATM   22  C2  UNL     1      28.870  -0.775  53.082  1.00  0.00    -0.031 C 
HETATM   23  C1  UNL     1      29.697  -1.800  53.732  1.00  0.00     0.036 C 
ENDBRANCH  19  21
ENDBRANCH   1  18
BRANCH   5  24
HETATM   24  N2  UNL     1      24.167   5.866  52.330  1.00  0.00     0.105 N 
HETATM   25  H12 UNL     1      23.517   5.611  53.101  1.00  0.00     0.315 HD
HETATM   26  H13 UNL     1      25.168   5.913  52.633  1.00  0.00     0.315 HD
ENDBRANCH   5  24
BRANCH   4  27
HETATM   27  N1  UNL     1      25.848   5.705  49.856  1.00  0.00     0.095 NA
HETATM   28  H9  UNL     1      26.041   6.204  48.957  1.00  0.00     0.314 HD
HETATM   29  H10 UNL     1      25.804   5.904  48.845  1.00  0.00     0.314 HD
ENDBRANCH   4  27
TORSDOF 6
ENDMDL
MODEL 3
REMARK VINA RESULT:      -8.4      3.303      6.332
REMARK  6 active torsions:
REMARK  status: ('A' for Active; 'I' for Inactive)
REMARK    1  A    between atoms: C3_3  and  C4_4 
REMARK    2  A    between atoms: C5_5  and  C6_7 
REMARK    3  A    between atoms: C9_10  and  N1_11 
REMARK    4  A    between atoms: C10_12  and  N2_13 
REMARK    5  A    between atoms: N4_16  and  N5_17 
REMARK    6  A    between atoms: N5_17  and  C12_18 
ROOT
HETATM    1  C6  UNL     1      22.949   1.887  52.320  1.00  0.00     0.159 C 
HETATM    2  C7  UNL     1      21.807   1.435  51.478  1.00  0.00     0.068 C 
HETATM    3  C8  UNL     1      21.043   0.358  51.432  1.00  0.00     0.006 C 
HETATM    4  C9  UNL     1      20.762  -0.143  52.624  1.00  0.00     0.248 C 
HETATM    5  C10 UNL     1      21.151  -0.594  53.981  1.00  0.00     0.381 C 
HETATM    6  N3  UNL     1      22.575  -0.908  54.045  1.00  0.00    -0.245 NA
HETATM    7  C11 UNL     1      23.602  -0.336  53.476  1.00  0.00     0.223 C 
HETATM    8  N4  UNL     1      23.845   0.765  52.598  1.00  0.00    -0.275 N 
ENDROOT
BRANCH   8   9
HETATM    9  N5  UNL     1      25.104   0.633  52.007  1.00  0.00    -0.297 N 
HETATM   10  H15 UNL     1      25.009   0.333  51.012  1.00  0.00     0.187 HD
BRANCH   9  11
HETATM   11  C12 UNL     1      26.344   0.870  52.657  1.00  0.00     0.049 A 
HETATM   12  C13 UNL     1      26.580   2.139  53.140  1.00  0.00     0.031 A 
HETATM   13  C14 UNL     1      27.829   2.268  53.762  1.00  0.00     0.004 A 
HETATM   14  C15 UNL     1      28.736   1.230  53.882  1.00  0.00     0.019 A 
HETATM   15  C16 UNL     1      28.412   0.009  53.373  1.00  0.00     0.013 A 
HETATM   16 BR1  UNL     1      29.617  -1.476  53.500  1.00  0.00    -0.051 Br
HETATM   17  C17 UNL     1      27.206  -0.198  52.747  1.00  0.00     0.050 A 
ENDBRANCH   9  11
ENDBRANCH   8   9
BRANCH   1  18
HETATM   18  C5  UNL     1      23.648   2.958  51.571  1.00  0.00     0.037 C 
HETATM   19  C4  UNL     1      24.087   2.801  50.341  1.00  0.00     0.021 C 
HETATM   20 CL1  UNL     1      23.946   4.537  52.271  1.00  0.00    -0.087 Cl
BRANCH  19  21
HETATM   21  C3  UNL     1      24.756   3.941  49.729  1.00  0.00    -0.003 C 
HETATM   22  C2  UNL     1      26.039   3.975  49.486  1.00  0.00    -0.031 C 
HETATM   23  C1  UNL     1      26.844   5.043  48.880  1.00  0.00     0.036 C 
ENDBRANCH  19  21
ENDBRANCH   1  18
BRANCH   5  24
HETATM   24  N2  UNL     1      20.846   0.324  55.029  1.00  0.00     0.105 N 
HETATM   25  H12 UNL     1      20.000   0.909  54.870  1.00  0.00     0.315 HD
HETATM   26  H13 UNL     1      20.887  -0.089  55.990  1.00  0.00     0.315 HD
ENDBRANCH   5  24
BRANCH   4  27
HETATM   27  N1  UNL     1      19.357  -0.339  52.516  1.00  0.00     0.095 NA
HETATM   28  H9  UNL     1      18.591  -0.940  52.133  1.00  0.00     0.314 HD
HETATM   29  H10 UNL     1      18.921  -1.124  52.009  1.00  0.00     0.314 HD
ENDBRANCH   4  27
TORSDOF 6
ENDMDL
MODEL 4
REMARK VINA RESULT:      -8.1      3.431      7.329
REMARK  6 active torsions:
REMARK  status: ('A' for Active; 'I' for Inactive)
REMARK    1  A    between atoms: C3_3  and  C4_4 
REMARK    2  A    between atoms: C5_5  and  C6_7 
REMARK    3  A    between atoms: C9_10  and  N1_11 
REMARK    4  A    between atoms: C10_12  and  N2_13 
REMARK    5  A    between atoms: N4_16  and  N5_17 
REMARK    6  A    between atoms: N5_17  and  C12_18 
ROOT
HETATM    1  C6  UNL     1      24.000   3.970  50.085  1.00  0.00     0.159 C 
HETATM    2  C7  UNL     1      23.324   2.825  49.414  1.00  0.00     0.068 C 
HETATM    3  C8  UNL     1      22.204   2.151  49.610  1.00  0.00     0.006 C 
HETATM    4  C9  UNL     1      21.197   2.905  50.020  1.00  0.00     0.248 C 
HETATM    5  C10 UNL     1      20.611   3.946  50.898  1.00  0.00     0.381 C 
HETATM    6  N3  UNL     1      21.397   4.111  52.116  1.00  0.00    -0.245 NA
HETATM    7  C11 UNL     1      22.687   4.065  52.313  1.00  0.00     0.223 C 
HETATM    8  N4  UNL     1      23.867   3.855  51.536  1.00  0.00    -0.275 N 
ENDROOT
BRANCH   8   9
HETATM    9  N5  UNL     1      24.931   3.506  52.372  1.00  0.00    -0.297 N 
HETATM   10  H15 UNL     1      25.511   4.347  52.592  1.00  0.00     0.187 HD
BRANCH   9  11
HETATM   11  C12 UNL     1      25.197   2.200  52.860  1.00  0.00     0.049 A 
HETATM   12  C13 UNL     1      24.193   1.262  52.755  1.00  0.00     0.031 A 
HETATM   13  C14 UNL     1      24.555   0.008  53.265  1.00  0.00     0.004 A 
HETATM   14  C15 UNL     1      25.794  -0.265  53.818  1.00  0.00     0.019 A 
HETATM   15  C16 UNL     1      26.723   0.729  53.878  1.00  0.00     0.013 A 
HETATM   16 BR1  UNL     1      28.459   0.427  54.631  1.00  0.00    -0.051 Br
HETATM   17  C17 UNL     1      26.444   1.987  53.399  1.00  0.00     0.050 A 
ENDBRANCH   9  11
ENDBRANCH   8   9
BRANCH   1  18
HETATM   18  C5  UNL     1      25.423   3.940  49.672  1.00  0.00     0.037 C 
HETATM   19  C4  UNL     1      26.083   5.016  49.299  1.00  0.00     0.021 C 
HETATM   20 CL1  UNL     1      26.351   2.453  49.648  1.00  0.00    -0.087 Cl
BRANCH  19  21
HETATM   21  C3  UNL     1      27.477   4.835  48.919  1.00  0.00    -0.003 C 
HETATM   22  C2  UNL     1      28.189   5.765  48.340  1.00  0.00    -0.031 C 
HETATM   23  C1  UNL     1      29.591   5.729  47.904  1.00  0.00     0.036 C 
ENDBRANCH  19  21
ENDBRANCH   1  18
BRANCH   5  24
HETATM   24  N2  UNL     1      20.452   5.225  50.288  1.00  0.00     0.105 N 
HETATM   25  H12 UNL     1      21.338   5.741  50.109  1.00  0.00     0.315 HD
HETATM   26  H13 UNL     1      19.797   5.235  49.471  1.00  0.00     0.315 HD
ENDBRANCH   5  24
BRANCH   4  27
HETATM   27  N1  UNL     1      20.156   2.468  49.154  1.00  0.00     0.095 NA
HETATM   28  H9  UNL     1      19.335   1.831  49.035  1.00  0.00     0.314 HD
HETATM   29  H10 UNL     1      19.461   1.749  49.403  1.00  0.00     0.314 HD
ENDBRANCH   4  27
TORSDOF 6
ENDMDL
MODEL 5
REMARK VINA RESULT:      -8.1      3.920      5.523
REMARK  6 active torsions:
REMARK  status: ('A' for Active; 'I' for Inactive)
REMARK    1  A    between atoms: C3_3  and  C4_4 
REMARK    2  A    between atoms: C5_5  and  C6_7 
REMARK    3  A    between atoms: C9_10  and  N1_11 
REMARK    4  A    between atoms: C10_12  and  N2_13 
REMARK    5  A    between atoms: N4_16  and  N5_17 
REMARK    6  A    between atoms: N5_17  and  C12_18 
ROOT
HETATM    1  C6  UNL     1      24.777   4.831  50.848  1.00  0.00     0.159 C 
HETATM    2  C7  UNL     1      25.818   3.943  50.258  1.00  0.00     0.068 C 
HETATM    3  C8  UNL     1      26.573   3.975  49.174  1.00  0.00     0.006 C 
HETATM    4  C9  UNL     1      26.987   5.189  48.852  1.00  0.00     0.248 C 
HETATM    5  C10 UNL     1      26.754   6.634  48.615  1.00  0.00     0.381 C 
HETATM    6  N3  UNL     1      25.346   6.902  48.336  1.00  0.00    -0.245 NA
HETATM    7  C11 UNL     1      24.262   6.372  48.833  1.00  0.00     0.223 C 
HETATM    8  N4  UNL     1      23.920   5.372  49.795  1.00  0.00    -0.275 N 
ENDROOT
BRANCH   8   9
HETATM    9  N5  UNL     1      22.602   4.952  49.596  1.00  0.00    -0.297 N 
HETATM   10  H15 UNL     1      21.939   5.741  49.766  1.00  0.00     0.187 HD
BRANCH   9  11
HETATM   11  C12 UNL     1      22.207   3.642  49.216  1.00  0.00     0.049 A 
HETATM   12  C13 UNL     1      22.896   3.040  48.184  1.00  0.00     0.031 A 
HETATM   13  C14 UNL     1      22.429   1.754  47.888  1.00  0.00     0.004 A 
HETATM   14  C15 UNL     1      21.383   1.144  48.559  1.00  0.00     0.019 A 
HETATM   15  C16 UNL     1      20.764   1.819  49.566  1.00  0.00     0.013 A 
HETATM   16 BR1  UNL     1      19.309   1.040  50.541  1.00  0.00    -0.051 Br
HETATM   17  C17 UNL     1      21.163   3.087  49.917  1.00  0.00     0.050 A 
ENDBRANCH   9  11
ENDBRANCH   8   9
BRANCH   1  18
HETATM   18  C5  UNL     1      23.998   4.012  51.807  1.00  0.00     0.037 C 
HETATM   19  C4  UNL     1      24.196   2.721  51.972  1.00  0.00     0.021 C 
HETATM   20 CL1  UNL     1      22.738   4.704  52.808  1.00  0.00    -0.087 Cl
BRANCH  19  21
HETATM   21  C3  UNL     1      23.355   2.045  52.950  1.00  0.00    -0.003 C 
HETATM   22  C2  UNL     1      22.640   0.988  52.671  1.00  0.00    -0.031 C 
HETATM   23  C1  UNL     1      21.755   0.207  53.544  1.00  0.00     0.036 C 
ENDBRANCH  19  21
ENDBRANCH   1  18
BRANCH   5  24
HETATM   24  N2  UNL     1      27.174   7.491  49.674  1.00  0.00     0.105 N 
HETATM   25  H12 UNL     1      27.554   7.003  50.511  1.00  0.00     0.315 HD
HETATM   26  H13 UNL     1      27.763   8.300  49.366  1.00  0.00     0.315 HD
ENDBRANCH   5  24
BRANCH   4  27
HETATM   27  N1  UNL     1      28.371   4.956  48.619  1.00  0.00     0.095 NA
HETATM   28  H9  UNL     1      29.350   5.254  48.834  1.00  0.00     0.314 HD
HETATM   29  H10 UNL     1      29.129   5.506  49.049  1.00  0.00     0.314 HD
ENDBRANCH   4  27
TORSDOF 6
ENDMDL
MODEL 6
REMARK VINA RESULT:      -8.0      2.328      3.722
REMARK  6 active torsions:
REMARK  status: ('A' for Active; 'I' for Inactive)
REMARK    1  A    between atoms: C3_3  and  C4_4 
REMARK    2  A    between atoms: C5_5  and  C6_7 
REMARK    3  A    between atoms: C9_10  and  N1_11 
REMARK    4  A    between atoms: C10_12  and  N2_13 
REMARK    5  A    between atoms: N4_16  and  N5_17 
REMARK    6  A    between atoms: N5_17  and  C12_18 
ROOT
HETATM    1  C6  UNL     1      24.451   2.817  52.247  1.00  0.00     0.159 C 
HETATM    2  C7  UNL     1      23.937   1.454  52.561  1.00  0.00     0.068 C 
HETATM    3  C8  UNL     1      24.477   0.254  52.685  1.00  0.00     0.006 C 
HETATM    4  C9  UNL     1      25.675   0.267  53.245  1.00  0.00     0.248 C 
HETATM    5  C10 UNL     1      27.054   0.795  53.380  1.00  0.00     0.381 C 
HETATM    6  N3  UNL     1      27.475   1.485  52.165  1.00  0.00    -0.245 NA
HETATM    7  C11 UNL     1      26.807   2.245  51.340  1.00  0.00     0.223 C 
HETATM    8  N4  UNL     1      25.474   2.742  51.206  1.00  0.00    -0.275 N 
ENDROOT
BRANCH   8   9
HETATM    9  N5  UNL     1      25.256   3.169  49.893  1.00  0.00    -0.297 N 
HETATM   10  H15 UNL     1      24.670   2.475  49.378  1.00  0.00     0.187 HD
BRANCH   9  11
HETATM   11  C12 UNL     1      25.754   4.373  49.328  1.00  0.00     0.049 A 
HETATM   12  C13 UNL     1      24.852   5.386  49.086  1.00  0.00     0.031 A 
HETATM   13  C14 UNL     1      25.443   6.528  48.530  1.00  0.00     0.004 A 
HETATM   14  C15 UNL     1      26.794   6.632  48.249  1.00  0.00     0.019 A 
HETATM   15  C16 UNL     1      27.608   5.576  48.525  1.00  0.00     0.013 A 
HETATM   16 BR1  UNL     1      29.489   5.645  48.165  1.00  0.00    -0.051 Br
HETATM   17  C17 UNL     1      27.104   4.419  49.072  1.00  0.00     0.050 A 
ENDBRANCH   9  11
ENDBRANCH   8   9
BRANCH   1  18
HETATM   18  C5  UNL     1      23.292   3.628  51.805  1.00  0.00     0.037 C 
HETATM   19  C4  UNL     1      23.129   4.888  52.149  1.00  0.00     0.021 C 
HETATM   20 CL1  UNL     1      22.035   2.969  50.778  1.00  0.00    -0.087 Cl
BRANCH  19  21
HETATM   21  C3  UNL     1      21.942   5.562  51.640  1.00  0.00    -0.003 C 
HETATM   22  C2  UNL     1      21.989   6.632  50.892  1.00  0.00    -0.031 C 
HETATM   23  C1  UNL     1      20.889   7.411  50.310  1.00  0.00     0.036 C 
ENDBRANCH  19  21
ENDBRANCH   1  18
BRANCH   5  24
HETATM   24  N2  UNL     1      27.256   1.670  54.488  1.00  0.00     0.105 N 
HETATM   25  H12 UNL     1      26.511   1.640  55.214  1.00  0.00     0.315 HD
HETATM   26  H13 UNL     1      28.222   1.643  54.888  1.00  0.00     0.315 HD
ENDBRANCH   5  24
BRANCH   4  27
HETATM   27  N1  UNL     1      25.539  -0.769  54.211  1.00  0.00     0.095 NA
HETATM   28  H9  UNL     1      25.635  -1.792  54.406  1.00  0.00     0.314 HD
HETATM   29  H10 UNL     1      25.748  -1.762  54.026  1.00  0.00     0.314 HD
ENDBRANCH   4  27
TORSDOF 6
ENDMDL
MODEL 7
REMARK VINA RESULT:      -7.9      2.310      2.663
REMARK  6 active torsions:
REMARK  status: ('A' for Active; 'I' for Inactive)
REMARK    1  A    between atoms: C3_3  and  C4_4 
REMARK    2  A    between atoms: C5_5  and  C6_7 
REMARK    3  A    between atoms: C9_10  and  N1_11 
REMARK    4  A    between atoms: C10_12  and  N2_13 
REMARK    5  A    between atoms: N4_16  and  N5_17 
REMARK    6  A    between atoms: N5_17  and  C12_18 
ROOT
HETATM    1  C6  UNL     1      24.823  -0.226  53.901  1.00  0.00     0.159 C 
HETATM    2  C7  UNL     1      25.650  -0.998  52.931  1.00  0.00     0.068 C 
HETATM    3  C8  UNL     1      26.847  -0.848  52.392  1.00  0.00     0.006 C 
HETATM    4  C9  UNL     1      27.743  -0.339  53.223  1.00  0.00     0.248 C 
HETATM    5  C10 UNL     1      28.179   0.655  54.232  1.00  0.00     0.381 C 
HETATM    6  N3  UNL     1      27.367   1.867  54.163  1.00  0.00    -0.245 NA
HETATM    7  C11 UNL     1      26.093   2.029  53.928  1.00  0.00     0.223 C 
HETATM    8  N4  UNL     1      24.958   1.207  53.650  1.00  0.00    -0.275 N 
ENDROOT
BRANCH   8   9
HETATM    9  N5  UNL     1      23.942   1.978  53.079  1.00  0.00    -0.297 N 
HETATM   10  H15 UNL     1      23.272   2.298  53.813  1.00  0.00     0.187 HD
BRANCH   9  11
HETATM   11  C12 UNL     1      23.826   2.290  51.698  1.00  0.00     0.049 A 
HETATM   12  C13 UNL     1      24.820   3.059  51.131  1.00  0.00     0.031 A 
HETATM   13  C14 UNL     1      24.612   3.309  49.769  1.00  0.00     0.004 A 
HETATM   14  C15 UNL     1      23.522   2.836  49.060  1.00  0.00     0.019 A 
HETATM   15  C16 UNL     1      22.591   2.082  49.708  1.00  0.00     0.013 A 
HETATM   16 BR1  UNL     1      21.055   1.391  48.794  1.00  0.00    -0.051 Br
HETATM   17  C17 UNL     1      22.723   1.793  51.046  1.00  0.00     0.050 A 
ENDBRANCH   9  11
ENDBRANCH   8   9
BRANCH   1  18
HETATM   18  C5  UNL     1      23.420  -0.672  53.729  1.00  0.00     0.037 C 
HETATM   19  C4  UNL     1      22.504  -0.527  54.663  1.00  0.00     0.021 C 
HETATM   20 CL1  UNL     1      22.863  -1.436  52.254  1.00  0.00    -0.087 Cl
BRANCH  19  21
HETATM   21  C3  UNL     1      21.166  -1.012  54.355  1.00  0.00    -0.003 C 
HETATM   22  C2  UNL     1      20.286  -0.315  53.686  1.00  0.00    -0.031 C 
HETATM   23  C1  UNL     1      18.914  -0.670  53.303  1.00  0.00     0.036 C 
ENDBRANCH  19  21
ENDBRANCH   1  18
BRANCH   5  24
HETATM   24  N2  UNL     1      28.173   0.186  55.578  1.00  0.00     0.105 N 
HETATM   25  H12 UNL     1      27.783  -0.770  55.710  1.00  0.00     0.315 HD
HETATM   26  H13 UNL     1      29.071   0.339  56.092  1.00  0.00     0.315 HD
ENDBRANCH   5  24
BRANCH   4  27
HETATM   27  N1  UNL     1      28.839  -1.223  53.020  1.00  0.00     0.095 NA
HETATM   28  H9  UNL     1      29.502  -1.900  53.463  1.00  0.00     0.314 HD
HETATM   29  H10 UNL     1      29.275  -1.783  53.767  1.00  0.00     0.314 HD
ENDBRANCH   4  27
TORSDOF 6
ENDMDL
MODEL 8
REMARK VINA RESULT:      -7.9      3.459      7.393
REMARK  6 active torsions:
REMARK  status: ('A' for Active; 'I' for Inactive)
REMARK    1  A    between atoms: C3_3  and  C4_4 
REMARK    2  A    between atoms: C5_5  and  C6_7 
REMARK    3  A    between atoms: C9_10  and  N1_11 
REMARK    4  A    between atoms: C10_12  and  N2_13 
REMARK    5  A    between atoms: N4_16  and  N5_17 
REMARK    6  A    between atoms: N5_17  and  C12_18 
ROOT
HETATM    1  C6  UNL     1      23.932   4.111  49.938  1.00  0.00     0.159 C 
HETATM    2  C7  UNL     1      23.269   2.952  49.277  1.00  0.00     0.068 C 
HETATM    3  C8  UNL     1      22.124   2.311  49.436  1.00  0.00     0.006 C 
HETATM    4  C9  UNL     1      21.113   3.103  49.754  1.00  0.00     0.248 C 
HETATM    5  C10 UNL     1      20.502   4.193  50.551  1.00  0.00     0.381 C 
HETATM    6  N3  UNL     1      21.221   4.395  51.806  1.00  0.00    -0.245 NA
HETATM    7  C11 UNL     1      22.496   4.330  52.079  1.00  0.00     0.223 C 
HETATM    8  N4  UNL     1      23.713   4.061  51.382  1.00  0.00    -0.275 N 
ENDROOT
BRANCH   8   9
HETATM    9  N5  UNL     1      24.719   3.727  52.293  1.00  0.00    -0.297 N 
HETATM   10  H15 UNL     1      25.332   4.552  52.476  1.00  0.00     0.187 HD
BRANCH   9  11
HETATM   11  C12 UNL     1      24.893   2.451  52.891  1.00  0.00     0.049 A 
HETATM   12  C13 UNL     1      26.081   2.209  53.546  1.00  0.00     0.031 A 
HETATM   13  C14 UNL     1      26.152   0.924  54.100  1.00  0.00     0.004 A 
HETATM   14  C15 UNL     1      25.136  -0.010  54.002  1.00  0.00     0.019 A 
HETATM   15  C16 UNL     1      23.997   0.323  53.334  1.00  0.00     0.013 A 
HETATM   16 BR1  UNL     1      22.546  -0.918  53.157  1.00  0.00    -0.051 Br
HETATM   17  C17 UNL     1      23.850   1.564  52.762  1.00  0.00     0.050 A 
ENDBRANCH   9  11
ENDBRANCH   8   9
BRANCH   1  18
HETATM   18  C5  UNL     1      25.376   4.032  49.610  1.00  0.00     0.037 C 
HETATM   19  C4  UNL     1      26.074   5.071  49.202  1.00  0.00     0.021 C 
HETATM   20 CL1  UNL     1      26.277   2.536  49.743  1.00  0.00    -0.087 Cl
BRANCH  19  21
HETATM   21  C3  UNL     1      27.484   4.845  48.916  1.00  0.00    -0.003 C 
HETATM   22  C2  UNL     1      28.247   5.727  48.326  1.00  0.00    -0.031 C 
HETATM   23  C1  UNL     1      29.670   5.642  47.977  1.00  0.00     0.036 C 
ENDBRANCH  19  21
ENDBRANCH   1  18
BRANCH   5  24
HETATM   24  N2  UNL     1      20.409   5.448  49.880  1.00  0.00     0.105 N 
HETATM   25  H12 UNL     1      20.370   6.279  50.504  1.00  0.00     0.315 HD
HETATM   26  H13 UNL     1      21.078   5.561  49.083  1.00  0.00     0.315 HD
ENDBRANCH   5  24
BRANCH   4  27
HETATM   27  N1  UNL     1      20.114   2.651  48.847  1.00  0.00     0.095 NA
HETATM   28  H9  UNL     1      19.536   1.841  48.525  1.00  0.00     0.314 HD
HETATM   29  H10 UNL     1      19.755   1.685  48.818  1.00  0.00     0.314 HD
ENDBRANCH   4  27
TORSDOF 6
ENDMDL
MODEL 9
REMARK VINA RESULT:      -7.9      3.079      5.608
REMARK  6 active torsions:
REMARK  status: ('A' for Active; 'I' for Inactive)
REMARK    1  A    between atoms: C3_3  and  C4_4 
REMARK    2  A    between atoms: C5_5  and  C6_7 
REMARK    3  A    between atoms: C9_10  and  N1_11 
REMARK    4  A    between atoms: C10_12  and  N2_13 
REMARK    5  A    between atoms: N4_16  and  N5_17 
REMARK    6  A    between atoms: N5_17  and  C12_18 
ROOT
HETATM    1  C6  UNL     1      23.040   3.014  50.989  1.00  0.00     0.159 C 
HETATM    2  C7  UNL     1      22.974   4.068  52.040  1.00  0.00     0.068 C 
HETATM    3  C8  UNL     1      23.699   5.128  52.352  1.00  0.00     0.006 C 
HETATM    4  C9  UNL     1      24.175   5.773  51.299  1.00  0.00     0.248 C 
HETATM    5  C10 UNL     1      24.858   5.812  49.984  1.00  0.00     0.381 C 
HETATM    6  N3  UNL     1      25.663   4.614  49.772  1.00  0.00    -0.245 NA
HETATM    7  C11 UNL     1      25.445   3.369  50.101  1.00  0.00     0.223 C 
HETATM    8  N4  UNL     1      24.427   2.614  50.761  1.00  0.00    -0.275 N 
ENDROOT
BRANCH   8   9
HETATM    9  N5  UNL     1      24.945   1.388  51.185  1.00  0.00    -0.297 N 
HETATM   10  H15 UNL     1      24.615   0.619  50.561  1.00  0.00     0.187 HD
BRANCH   9  11
HETATM   11  C12 UNL     1      25.799   1.200  52.304  1.00  0.00     0.049 A 
HETATM   12  C13 UNL     1      25.636   2.044  53.381  1.00  0.00     0.031 A 
HETATM   13  C14 UNL     1      26.526   1.776  54.429  1.00  0.00     0.004 A 
HETATM   14  C15 UNL     1      27.473   0.769  54.392  1.00  0.00     0.019 A 
HETATM   15  C16 UNL     1      27.559  -0.015  53.282  1.00  0.00     0.013 A 
HETATM   16 BR1  UNL     1      28.846  -1.430  53.156  1.00  0.00    -0.051 Br
HETATM   17  C17 UNL     1      26.721   0.184  52.210  1.00  0.00     0.050 A 
ENDBRANCH   9  11
ENDBRANCH   8   9
BRANCH   1  18
HETATM   18  C5  UNL     1      22.223   1.872  51.465  1.00  0.00     0.037 C 
HETATM   19  C4  UNL     1      21.914   1.692  52.731  1.00  0.00     0.021 C 
HETATM   20 CL1  UNL     1      21.598   0.657  50.367  1.00  0.00    -0.087 Cl
BRANCH  19  21
HETATM   21  C3  UNL     1      21.104   0.525  53.053  1.00  0.00    -0.003 C 
HETATM   22  C2  UNL     1      21.504  -0.426  53.855  1.00  0.00    -0.031 C 
HETATM   23  C1  UNL     1      20.805  -1.649  54.269  1.00  0.00     0.036 C 
ENDBRANCH  19  21
ENDBRANCH   1  18
BRANCH   5  24
HETATM   24  N2  UNL     1      23.992   5.977  48.863  1.00  0.00     0.105 N 
HETATM   25  H12 UNL     1      23.079   6.429  49.074  1.00  0.00     0.315 HD
HETATM   26  H13 UNL     1      24.458   6.367  48.012  1.00  0.00     0.315 HD
ENDBRANCH   5  24
BRANCH   4  27
HETATM   27  N1  UNL     1      23.846   7.117  51.629  1.00  0.00     0.095 NA
HETATM   28  H9  UNL     1      24.161   8.115  51.624  1.00  0.00     0.314 HD
HETATM   29  H10 UNL     1      24.467   7.922  51.459  1.00  0.00     0.314 HD
ENDBRANCH   4  27
TORSDOF 6
ENDMDL
