MODEL 1
REMARK VINA RESULT:      -7.2      0.000      0.000
REMARK  4 active torsions:
REMARK  status: ('A' for Active; 'I' for Inactive)
REMARK    1  A    between atoms: C3_3  and  C4_4 
REMARK       I    between atoms: C4_4  and  N1_6 
REMARK    2  A    between atoms: N1_6  and  C5_7 
REMARK    3  A    between atoms: C14_18  and  N4_19 
REMARK    4  A    between atoms: N4_19  and  C15_20 
ROOT
HETATM    1  C1  UNL     1      20.641   3.925  44.001  1.00  0.00     0.112 C 
HETATM    2  C2  UNL     1      21.340   4.047  45.300  1.00  0.00    -0.101 C 
HETATM    3  C3  UNL     1      21.917   4.125  46.369  1.00  0.00    -0.006 C 
ENDROOT
BRANCH   3   4
HETATM    4  C4  UNL     1      22.580   4.204  47.631  1.00  0.00     0.297 C 
HETATM    5  O1  UNL     1      22.777   3.134  48.213  1.00  0.00    -0.258 OA
HETATM    6  N1  UNL     1      22.941   5.489  48.079  1.00  0.00    -0.326 N 
HETATM    7  H4  UNL     1      22.713   6.329  47.466  1.00  0.00     0.165 HD
BRANCH   6   8
HETATM    8  C5  UNL     1      23.685   5.776  49.461  1.00  0.00     0.146 A 
HETATM    9  C6  UNL     1      22.608   5.474  50.367  1.00  0.00    -0.043 A 
HETATM   10  C7  UNL     1      21.861   4.329  50.975  1.00  0.00     0.047 C 
HETATM   11  C8  UNL     1      22.127   6.659  50.818  1.00  0.00     0.008 A 
HETATM   12  C9  UNL     1      22.868   7.811  50.254  1.00  0.00     0.031 A 
HETATM   13  C10 UNL     1      23.796   7.233  49.467  1.00  0.00     0.073 A 
HETATM   14  N2  UNL     1      24.906   7.991  48.925  1.00  0.00    -0.261 NA
HETATM   15  C11 UNL     1      26.009   7.295  48.672  1.00  0.00     0.141 C 
HETATM   16  C12 UNL     1      25.920   5.837  48.923  1.00  0.00     0.087 C 
HETATM   17  C13 UNL     1      27.235   5.229  48.719  1.00  0.00     0.103 C 
HETATM   18  C14 UNL     1      24.904   5.033  49.314  1.00  0.00     0.071 C 
HETATM   19  N3  UNL     1      28.291   4.722  48.564  1.00  0.00    -0.191 NA
BRANCH  18  20
HETATM   20  N4  UNL     1      25.224   3.663  49.464  1.00  0.00    -0.356 N 
HETATM   21  H11 UNL     1      25.319   3.331  48.453  1.00  0.00     0.166 HD
BRANCH  20  22
HETATM   22  C15 UNL     1      25.393   2.870  50.649  1.00  0.00     0.033 A 
HETATM   23  C16 UNL     1      24.438   2.043  51.192  1.00  0.00     0.029 A 
HETATM   24  C17 UNL     1      24.578   1.263  52.320  1.00  0.00     0.004 A 
HETATM   25  C18 UNL     1      25.783   1.297  52.987  1.00  0.00     0.019 A 
HETATM   26  C19 UNL     1      26.794   2.104  52.503  1.00  0.00     0.013 A 
HETATM   27 BR1  UNL     1      28.430   2.095  53.473  1.00  0.00    -0.051 Br
HETATM   28  C20 UNL     1      26.567   2.850  51.369  1.00  0.00     0.048 A 
ENDBRANCH  20  22
ENDBRANCH  18  20
ENDBRANCH   6   8
ENDBRANCH   3   4
TORSDOF 4
ENDMDL
MODEL 2
REMARK VINA RESULT:      -6.3      2.534      3.014
REMARK  4 active torsions:
REMARK  status: ('A' for Active; 'I' for Inactive)
REMARK    1  A    between atoms: C3_3  and  C4_4 
REMARK       I    between atoms: C4_4  and  N1_6 
REMARK    2  A    between atoms: N1_6  and  C5_7 
REMARK    3  A    between atoms: C14_18  and  N4_19 
REMARK    4  A    between atoms: N4_19  and  C15_20 
ROOT
HETATM    1  C1  UNL     1      22.914   8.116  42.850  1.00  0.00     0.112 C 
HETATM    2  C2  UNL     1      22.800   7.428  44.155  1.00  0.00    -0.101 C 
HETATM    3  C3  UNL     1      22.726   6.868  45.234  1.00  0.00    -0.006 C 
ENDROOT
BRANCH   3   4
HETATM    4  C4  UNL     1      22.656   6.201  46.494  1.00  0.00     0.297 C 
HETATM    5  O1  UNL     1      22.280   5.025  46.470  1.00  0.00    -0.258 OA
HETATM    6  N1  UNL     1      23.022   6.948  47.629  1.00  0.00    -0.326 N 
HETATM    7  H4  UNL     1      23.335   7.958  47.501  1.00  0.00     0.165 HD
BRANCH   6   8
HETATM    8  C5  UNL     1      23.006   6.374  49.119  1.00  0.00     0.146 A 
HETATM    9  C6  UNL     1      21.583   6.281  49.312  1.00  0.00    -0.043 A 
HETATM   10  C7  UNL     1      20.393   5.449  48.948  1.00  0.00     0.047 C 
HETATM   11  C8  UNL     1      21.223   7.314  50.112  1.00  0.00     0.008 A 
HETATM   12  C9  UNL     1      22.387   8.140  50.511  1.00  0.00     0.031 A 
HETATM   13  C10 UNL     1      23.426   7.530  49.909  1.00  0.00     0.073 A 
HETATM   14  N2  UNL     1      24.797   7.858  50.249  1.00  0.00    -0.261 NA
HETATM   15  C11 UNL     1      25.684   6.886  50.066  1.00  0.00     0.141 C 
HETATM   16  C12 UNL     1      25.151   5.632  49.485  1.00  0.00     0.087 C 
HETATM   17  C13 UNL     1      26.210   4.623  49.458  1.00  0.00     0.103 C 
HETATM   18  C14 UNL     1      23.925   5.276  49.035  1.00  0.00     0.071 C 
HETATM   19  N3  UNL     1      27.052   3.793  49.435  1.00  0.00    -0.191 NA
BRANCH  18  20
HETATM   20  N4  UNL     1      23.804   3.949  48.558  1.00  0.00    -0.356 N 
HETATM   21  H11 UNL     1      24.455   3.943  47.711  1.00  0.00     0.166 HD
BRANCH  20  22
HETATM   22  C15 UNL     1      23.023   2.850  49.050  1.00  0.00     0.033 A 
HETATM   23  C16 UNL     1      22.142   2.105  48.301  1.00  0.00     0.029 A 
HETATM   24  C17 UNL     1      21.390   1.039  48.745  1.00  0.00     0.004 A 
HETATM   25  C18 UNL     1      21.514   0.662  50.064  1.00  0.00     0.019 A 
HETATM   26  C19 UNL     1      22.379   1.361  50.882  1.00  0.00     0.013 A 
HETATM   27 BR1  UNL     1      22.502   0.779  52.689  1.00  0.00    -0.051 Br
HETATM   28  C20 UNL     1      23.092   2.414  50.354  1.00  0.00     0.048 A 
ENDBRANCH  20  22
ENDBRANCH  18  20
ENDBRANCH   6   8
ENDBRANCH   3   4
TORSDOF 4
ENDMDL
MODEL 3
REMARK VINA RESULT:      -6.3      7.682     10.798
REMARK  4 active torsions:
REMARK  status: ('A' for Active; 'I' for Inactive)
REMARK    1  A    between atoms: C3_3  and  C4_4 
REMARK       I    between atoms: C4_4  and  N1_6 
REMARK    2  A    between atoms: N1_6  and  C5_7 
REMARK    3  A    between atoms: C14_18  and  N4_19 
REMARK    4  A    between atoms: N4_19  and  C15_20 
ROOT
HETATM    1  C1  UNL     1      34.491   6.125  41.005  1.00  0.00     0.112 C 
HETATM    2  C2  UNL     1      34.135   6.599  42.361  1.00  0.00    -0.101 C 
HETATM    3  C3  UNL     1      33.820   6.984  43.473  1.00  0.00    -0.006 C 
ENDROOT
BRANCH   3   4
HETATM    4  C4  UNL     1      33.440   7.450  44.767  1.00  0.00     0.297 C 
HETATM    5  O1  UNL     1      32.679   8.422  44.797  1.00  0.00    -0.258 OA
HETATM    6  N1  UNL     1      33.968   6.756  45.872  1.00  0.00    -0.326 N 
HETATM    7  H4  UNL     1      34.611   5.925  45.698  1.00  0.00     0.165 HD
BRANCH   6   8
HETATM    8  C5  UNL     1      33.658   7.130  47.392  1.00  0.00     0.146 A 
HETATM    9  C6  UNL     1      34.396   8.362  47.479  1.00  0.00    -0.043 A 
HETATM   10  C7  UNL     1      34.339   9.805  47.083  1.00  0.00     0.047 C 
HETATM   11  C8  UNL     1      35.529   8.097  48.174  1.00  0.00     0.008 A 
HETATM   12  C9  UNL     1      35.599   6.681  48.603  1.00  0.00     0.031 A 
HETATM   13  C10 UNL     1      34.454   6.152  48.130  1.00  0.00     0.073 A 
HETATM   14  N2  UNL     1      33.994   4.844  48.552  1.00  0.00    -0.261 NA
HETATM   15  C11 UNL     1      32.680   4.655  48.509  1.00  0.00     0.141 C 
HETATM   16  C12 UNL     1      31.885   5.787  47.978  1.00  0.00     0.087 C 
HETATM   17  C13 UNL     1      30.460   5.482  48.106  1.00  0.00     0.103 C 
HETATM   18  C14 UNL     1      32.231   6.989  47.459  1.00  0.00     0.071 C 
HETATM   19  N3  UNL     1      29.304   5.254  48.208  1.00  0.00    -0.191 NA
BRANCH  18  20
HETATM   20  N4  UNL     1      31.158   7.825  47.069  1.00  0.00    -0.356 N 
HETATM   21  H11 UNL     1      30.682   7.254  46.302  1.00  0.00     0.166 HD
BRANCH  20  22
HETATM   22  C15 UNL     1      30.763   9.118  47.550  1.00  0.00     0.033 A 
HETATM   23  C16 UNL     1      30.902   9.559  48.845  1.00  0.00     0.029 A 
HETATM   24  C17 UNL     1      30.542  10.798  49.330  1.00  0.00     0.004 A 
HETATM   25  C18 UNL     1      29.986  11.702  48.452  1.00  0.00     0.019 A 
HETATM   26  C19 UNL     1      29.813  11.334  47.132  1.00  0.00     0.013 A 
HETATM   27 BR1  UNL     1      29.045  12.636  45.977  1.00  0.00    -0.051 Br
HETATM   28  C20 UNL     1      30.202  10.075  46.734  1.00  0.00     0.048 A 
ENDBRANCH  20  22
ENDBRANCH  18  20
ENDBRANCH   6   8
ENDBRANCH   3   4
TORSDOF 4
ENDMDL
MODEL 4
REMARK VINA RESULT:      -6.2      4.811      7.101
REMARK  4 active torsions:
REMARK  status: ('A' for Active; 'I' for Inactive)
REMARK    1  A    between atoms: C3_3  and  C4_4 
REMARK       I    between atoms: C4_4  and  N1_6 
REMARK    2  A    between atoms: N1_6  and  C5_7 
REMARK    3  A    between atoms: C14_18  and  N4_19 
REMARK    4  A    between atoms: N4_19  and  C15_20 
ROOT
HETATM    1  C1  UNL     1      29.619  10.665  41.508  1.00  0.00     0.112 C 
HETATM    2  C2  UNL     1      29.325  10.164  42.869  1.00  0.00    -0.101 C 
HETATM    3  C3  UNL     1      29.102   9.761  43.996  1.00  0.00    -0.006 C 
ENDROOT
BRANCH   3   4
HETATM    4  C4  UNL     1      28.858   9.279  45.317  1.00  0.00     0.297 C 
HETATM    5  O1  UNL     1      27.827   8.618  45.477  1.00  0.00    -0.258 OA
HETATM    6  N1  UNL     1      29.813   9.606  46.298  1.00  0.00    -0.326 N 
HETATM    7  H4  UNL     1      30.663  10.182  46.016  1.00  0.00     0.165 HD
BRANCH   6   8
HETATM    8  C5  UNL     1      29.711   9.159  47.827  1.00  0.00     0.146 A 
HETATM    9  C6  UNL     1      28.619  10.000  48.238  1.00  0.00    -0.043 A 
HETATM   10  C7  UNL     1      27.130  10.133  48.148  1.00  0.00     0.047 C 
HETATM   11  C8  UNL     1      29.150  11.013  48.966  1.00  0.00     0.008 A 
HETATM   12  C9  UNL     1      30.621  10.891  49.095  1.00  0.00     0.031 A 
HETATM   13  C10 UNL     1      30.904   9.763  48.415  1.00  0.00     0.073 A 
HETATM   14  N2  UNL     1      32.205   9.129  48.510  1.00  0.00    -0.261 NA
HETATM   15  C11 UNL     1      32.221   7.817  48.304  1.00  0.00     0.141 C 
HETATM   16  C12 UNL     1      30.919   7.206  47.950  1.00  0.00     0.087 C 
HETATM   17  C13 UNL     1      31.069   5.753  47.876  1.00  0.00     0.103 C 
HETATM   18  C14 UNL     1      29.690   7.727  47.728  1.00  0.00     0.071 C 
HETATM   19  N3  UNL     1      31.171   4.576  47.819  1.00  0.00    -0.191 NA
BRANCH  18  20
HETATM   20  N4  UNL     1      28.670   6.795  47.422  1.00  0.00    -0.356 N 
HETATM   21  H11 UNL     1      28.803   6.636  46.374  1.00  0.00     0.166 HD
BRANCH  20  22
HETATM   22  C15 UNL     1      27.682   6.184  48.266  1.00  0.00     0.033 A 
HETATM   23  C16 UNL     1      27.627   4.847  48.580  1.00  0.00     0.029 A 
HETATM   24  C17 UNL     1      26.698   4.237  49.396  1.00  0.00     0.004 A 
HETATM   25  C18 UNL     1      25.719   5.021  49.964  1.00  0.00     0.019 A 
HETATM   26  C19 UNL     1      25.706   6.376  49.696  1.00  0.00     0.013 A 
HETATM   27 BR1  UNL     1      24.327   7.395  50.519  1.00  0.00    -0.051 Br
HETATM   28  C20 UNL     1      26.673   6.901  48.869  1.00  0.00     0.048 A 
ENDBRANCH  20  22
ENDBRANCH  18  20
ENDBRANCH   6   8
ENDBRANCH   3   4
TORSDOF 4
ENDMDL
MODEL 5
REMARK VINA RESULT:      -6.2      5.548      7.076
REMARK  4 active torsions:
REMARK  status: ('A' for Active; 'I' for Inactive)
REMARK    1  A    between atoms: C3_3  and  C4_4 
REMARK       I    between atoms: C4_4  and  N1_6 
REMARK    2  A    between atoms: N1_6  and  C5_7 
REMARK    3  A    between atoms: C14_18  and  N4_19 
REMARK    4  A    between atoms: N4_19  and  C15_20 
ROOT
HETATM    1  C1  UNL     1      25.148   9.464  42.451  1.00  0.00     0.112 C 
HETATM    2  C2  UNL     1      26.030   9.190  43.607  1.00  0.00    -0.101 C 
HETATM    3  C3  UNL     1      26.753   8.943  44.555  1.00  0.00    -0.006 C 
ENDROOT
BRANCH   3   4
HETATM    4  C4  UNL     1      27.584   8.644  45.677  1.00  0.00     0.297 C 
HETATM    5  O1  UNL     1      28.507   7.850  45.477  1.00  0.00    -0.258 OA
HETATM    6  N1  UNL     1      27.267   9.284  46.889  1.00  0.00    -0.326 N 
HETATM    7  H4  UNL     1      26.440   9.955  46.916  1.00  0.00     0.165 HD
BRANCH   6   8
HETATM    8  C5  UNL     1      28.078   9.074  48.248  1.00  0.00     0.146 A 
HETATM    9  C6  UNL     1      27.579   7.775  48.613  1.00  0.00    -0.043 A 
HETATM   10  C7  UNL     1      27.710   6.322  48.278  1.00  0.00     0.047 C 
HETATM   11  C8  UNL     1      26.690   7.961  49.619  1.00  0.00     0.008 A 
HETATM   12  C9  UNL     1      26.561   9.389  49.991  1.00  0.00     0.031 A 
HETATM   13  C10 UNL     1      27.420  10.009  49.159  1.00  0.00     0.073 A 
HETATM   14  N2  UNL     1      27.803  11.392  49.361  1.00  0.00    -0.261 NA
HETATM   15  C11 UNL     1      29.001  11.731  48.897  1.00  0.00     0.141 C 
HETATM   16  C12 UNL     1      29.741  10.661  48.189  1.00  0.00     0.087 C 
HETATM   17  C13 UNL     1      31.080  11.143  47.848  1.00  0.00     0.103 C 
HETATM   18  C14 UNL     1      29.422   9.389  47.855  1.00  0.00     0.071 C 
HETATM   19  N3  UNL     1      32.168  11.513  47.570  1.00  0.00    -0.191 NA
BRANCH  18  20
HETATM   20  N4  UNL     1      30.427   8.657  47.180  1.00  0.00    -0.356 N 
HETATM   21  H11 UNL     1      30.549   9.206  46.272  1.00  0.00     0.166 HD
BRANCH  20  22
HETATM   22  C15 UNL     1      31.138   7.472  47.571  1.00  0.00     0.033 A 
HETATM   23  C16 UNL     1      31.402   7.098  48.868  1.00  0.00     0.029 A 
HETATM   24  C17 UNL     1      32.071   5.963  49.271  1.00  0.00     0.004 A 
HETATM   25  C18 UNL     1      32.531   5.101  48.299  1.00  0.00     0.019 A 
HETATM   26  C19 UNL     1      32.305   5.407  46.972  1.00  0.00     0.013 A 
HETATM   27 BR1  UNL     1      32.965   4.169  45.687  1.00  0.00    -0.051 Br
HETATM   28  C20 UNL     1      31.627   6.564  46.659  1.00  0.00     0.048 A 
ENDBRANCH  20  22
ENDBRANCH  18  20
ENDBRANCH   6   8
ENDBRANCH   3   4
TORSDOF 4
ENDMDL
MODEL 6
REMARK VINA RESULT:      -6.1      2.964      5.264
REMARK  4 active torsions:
REMARK  status: ('A' for Active; 'I' for Inactive)
REMARK    1  A    between atoms: C3_3  and  C4_4 
REMARK       I    between atoms: C4_4  and  N1_6 
REMARK    2  A    between atoms: N1_6  and  C5_7 
REMARK    3  A    between atoms: C14_18  and  N4_19 
REMARK    4  A    between atoms: N4_19  and  C15_20 
ROOT
HETATM    1  C1  UNL     1      18.273  10.335  49.770  1.00  0.00     0.112 C 
HETATM    2  C2  UNL     1      19.289   9.272  49.600  1.00  0.00    -0.101 C 
HETATM    3  C3  UNL     1      20.109   8.383  49.454  1.00  0.00    -0.006 C 
ENDROOT
BRANCH   3   4
HETATM    4  C4  UNL     1      21.059   7.330  49.296  1.00  0.00     0.297 C 
HETATM    5  O1  UNL     1      22.219   7.673  49.051  1.00  0.00    -0.258 OA
HETATM    6  N1  UNL     1      20.579   6.015  49.436  1.00  0.00    -0.326 N 
HETATM    7  H4  UNL     1      19.547   5.865  49.656  1.00  0.00     0.165 HD
BRANCH   6   8
HETATM    8  C5  UNL     1      21.489   4.712  49.292  1.00  0.00     0.146 A 
HETATM    9  C6  UNL     1      21.694   4.732  47.869  1.00  0.00    -0.043 A 
HETATM   10  C7  UNL     1      22.472   5.429  46.796  1.00  0.00     0.047 C 
HETATM   11  C8  UNL     1      20.898   3.770  47.340  1.00  0.00     0.008 A 
HETATM   12  C9  UNL     1      20.136   3.045  48.382  1.00  0.00     0.031 A 
HETATM   13  C10 UNL     1      20.535   3.630  49.528  1.00  0.00     0.073 A 
HETATM   14  N2  UNL     1      20.230   3.048  50.820  1.00  0.00    -0.261 NA
HETATM   15  C11 UNL     1      21.087   3.332  51.795  1.00  0.00     0.141 C 
HETATM   16  C12 UNL     1      22.192   4.249  51.432  1.00  0.00     0.087 C 
HETATM   17  C13 UNL     1      23.114   4.368  52.562  1.00  0.00     0.103 C 
HETATM   18  C14 UNL     1      22.490   4.924  50.298  1.00  0.00     0.071 C 
HETATM   19  N3  UNL     1      23.873   4.471  53.463  1.00  0.00    -0.191 NA
BRANCH  18  20
HETATM   20  N4  UNL     1      23.671   5.704  50.335  1.00  0.00    -0.356 N 
HETATM   21  H11 UNL     1      23.371   6.557  50.904  1.00  0.00     0.166 HD
BRANCH  20  22
HETATM   22  C15 UNL     1      24.968   5.459  49.773  1.00  0.00     0.033 A 
HETATM   23  C16 UNL     1      25.647   4.264  49.836  1.00  0.00     0.029 A 
HETATM   24  C17 UNL     1      26.885   3.998  49.296  1.00  0.00     0.004 A 
HETATM   25  C18 UNL     1      27.530   5.011  48.620  1.00  0.00     0.019 A 
HETATM   26  C19 UNL     1      26.913   6.242  48.512  1.00  0.00     0.013 A 
HETATM   27 BR1  UNL     1      27.861   7.590  47.561  1.00  0.00    -0.051 Br
HETATM   28  C20 UNL     1      25.673   6.419  49.084  1.00  0.00     0.048 A 
ENDBRANCH  20  22
ENDBRANCH  18  20
ENDBRANCH   6   8
ENDBRANCH   3   4
TORSDOF 4
ENDMDL
MODEL 7
REMARK VINA RESULT:      -6.0      7.378      9.734
REMARK  4 active torsions:
REMARK  status: ('A' for Active; 'I' for Inactive)
REMARK    1  A    between atoms: C3_3  and  C4_4 
REMARK       I    between atoms: C4_4  and  N1_6 
REMARK    2  A    between atoms: N1_6  and  C5_7 
REMARK    3  A    between atoms: C14_18  and  N4_19 
REMARK    4  A    between atoms: N4_19  and  C15_20 
ROOT
HETATM    1  C1  UNL     1      12.693   4.325  54.162  1.00  0.00     0.112 C 
HETATM    2  C2  UNL     1      13.666   3.546  53.365  1.00  0.00    -0.101 C 
HETATM    3  C3  UNL     1      14.482   2.919  52.713  1.00  0.00    -0.006 C 
ENDROOT
BRANCH   3   4
HETATM    4  C4  UNL     1      15.441   2.201  51.938  1.00  0.00     0.297 C 
HETATM    5  O1  UNL     1      16.283   2.881  51.343  1.00  0.00    -0.258 OA
HETATM    6  N1  UNL     1      15.330   0.798  51.931  1.00  0.00    -0.326 N 
HETATM    7  H4  UNL     1      14.553   0.341  52.499  1.00  0.00     0.165 HD
BRANCH   6   8
HETATM    8  C5  UNL     1      16.308  -0.171  51.123  1.00  0.00     0.146 A 
HETATM    9  C6  UNL     1      15.862   0.118  49.786  1.00  0.00    -0.043 A 
HETATM   10  C7  UNL     1      15.951   1.153  48.708  1.00  0.00     0.047 C 
HETATM   11  C8  UNL     1      15.107  -0.934  49.384  1.00  0.00     0.008 A 
HETATM   12  C9  UNL     1      15.024  -1.987  50.423  1.00  0.00     0.031 A 
HETATM   13  C10 UNL     1      15.769  -1.495  51.431  1.00  0.00     0.073 A 
HETATM   14  N2  UNL     1      16.173  -2.325  52.549  1.00  0.00    -0.261 NA
HETATM   15  C11 UNL     1      17.301  -1.968  53.152  1.00  0.00     0.141 C 
HETATM   16  C12 UNL     1      17.948  -0.741  52.631  1.00  0.00     0.087 C 
HETATM   17  C13 UNL     1      19.231  -0.546  53.305  1.00  0.00     0.103 C 
HETATM   18  C14 UNL     1      17.590   0.153  51.680  1.00  0.00     0.071 C 
HETATM   19  N3  UNL     1      20.275  -0.377  53.836  1.00  0.00    -0.191 NA
BRANCH  18  20
HETATM   20  N4  UNL     1      18.503   1.210  51.451  1.00  0.00    -0.356 N 
HETATM   21  H11 UNL     1      18.324   1.859  52.280  1.00  0.00     0.166 HD
BRANCH  20  22
HETATM   22  C15 UNL     1      19.452   1.409  50.393  1.00  0.00     0.033 A 
HETATM   23  C16 UNL     1      20.626   0.708  50.239  1.00  0.00     0.029 A 
HETATM   24  C17 UNL     1      21.548   0.870  49.228  1.00  0.00     0.004 A 
HETATM   25  C18 UNL     1      21.294   1.820  48.264  1.00  0.00     0.019 A 
HETATM   26  C19 UNL     1      20.135   2.567  48.349  1.00  0.00     0.013 A 
HETATM   27 BR1  UNL     1      19.849   3.857  46.980  1.00  0.00    -0.051 Br
HETATM   28  C20 UNL     1      19.269   2.338  49.394  1.00  0.00     0.048 A 
ENDBRANCH  20  22
ENDBRANCH  18  20
ENDBRANCH   6   8
ENDBRANCH   3   4
TORSDOF 4
ENDMDL
MODEL 8
REMARK VINA RESULT:      -5.9      5.920      8.838
REMARK  4 active torsions:
REMARK  status: ('A' for Active; 'I' for Inactive)
REMARK    1  A    between atoms: C3_3  and  C4_4 
REMARK       I    between atoms: C4_4  and  N1_6 
REMARK    2  A    between atoms: N1_6  and  C5_7 
REMARK    3  A    between atoms: C14_18  and  N4_19 
REMARK    4  A    between atoms: N4_19  and  C15_20 
ROOT
HETATM    1  C1  UNL     1      26.047   3.907  49.524  1.00  0.00     0.112 C 
HETATM    2  C2  UNL     1      27.162   4.719  48.986  1.00  0.00    -0.101 C 
HETATM    3  C3  UNL     1      28.086   5.389  48.564  1.00  0.00    -0.006 C 
ENDROOT
BRANCH   3   4
HETATM    4  C4  UNL     1      29.163   6.192  48.081  1.00  0.00     0.297 C 
HETATM    5  O1  UNL     1      30.048   5.600  47.455  1.00  0.00    -0.258 OA
HETATM    6  N1  UNL     1      29.107   7.569  48.366  1.00  0.00    -0.326 N 
HETATM    7  H4  UNL     1      28.274   7.946  48.914  1.00  0.00     0.165 HD
BRANCH   6   8
HETATM    8  C5  UNL     1      30.217   8.621  47.911  1.00  0.00     0.146 A 
HETATM    9  C6  UNL     1      31.333   8.113  48.662  1.00  0.00    -0.043 A 
HETATM   10  C7  UNL     1      32.345   7.010  48.676  1.00  0.00     0.047 C 
HETATM   11  C8  UNL     1      31.517   8.950  49.713  1.00  0.00     0.008 A 
HETATM   12  C9  UNL     1      30.546  10.069  49.709  1.00  0.00     0.031 A 
HETATM   13  C10 UNL     1      29.806   9.839  48.607  1.00  0.00     0.073 A 
HETATM   14  N2  UNL     1      28.904  10.843  48.079  1.00  0.00    -0.261 NA
HETATM   15  C11 UNL     1      28.673  10.778  46.772  1.00  0.00     0.141 C 
HETATM   16  C12 UNL     1      29.324   9.653  46.060  1.00  0.00     0.087 C 
HETATM   17  C13 UNL     1      29.081   9.784  44.623  1.00  0.00     0.103 C 
HETATM   18  C14 UNL     1      30.080   8.613  46.482  1.00  0.00     0.071 C 
HETATM   19  N3  UNL     1      28.900   9.878  43.458  1.00  0.00    -0.191 NA
BRANCH  18  20
HETATM   20  N4  UNL     1      30.544   7.737  45.472  1.00  0.00    -0.356 N 
HETATM   21  H11 UNL     1      29.647   7.255  45.149  1.00  0.00     0.166 HD
BRANCH  20  22
HETATM   22  C15 UNL     1      31.870   7.515  44.969  1.00  0.00     0.033 A 
HETATM   23  C16 UNL     1      32.642   8.456  44.328  1.00  0.00     0.029 A 
HETATM   24  C17 UNL     1      33.920   8.273  43.846  1.00  0.00     0.004 A 
HETATM   25  C18 UNL     1      34.504   7.036  44.008  1.00  0.00     0.019 A 
HETATM   26  C19 UNL     1      33.792   6.037  44.642  1.00  0.00     0.013 A 
HETATM   27 BR1  UNL     1      34.665   4.357  44.834  1.00  0.00    -0.051 Br
HETATM   28  C20 UNL     1      32.519   6.308  45.093  1.00  0.00     0.048 A 
ENDBRANCH  20  22
ENDBRANCH  18  20
ENDBRANCH   6   8
ENDBRANCH   3   4
TORSDOF 4
ENDMDL
MODEL 9
REMARK VINA RESULT:      -5.8      6.290      8.666
REMARK  4 active torsions:
REMARK  status: ('A' for Active; 'I' for Inactive)
REMARK    1  A    between atoms: C3_3  and  C4_4 
REMARK       I    between atoms: C4_4  and  N1_6 
REMARK    2  A    between atoms: N1_6  and  C5_7 
REMARK    3  A    between atoms: C14_18  and  N4_19 
REMARK    4  A    between atoms: N4_19  and  C15_20 
ROOT
HETATM    1  C1  UNL     1      12.351   4.483  54.369  1.00  0.00     0.112 C 
HETATM    2  C2  UNL     1      13.534   4.133  53.552  1.00  0.00    -0.101 C 
HETATM    3  C3  UNL     1      14.520   3.854  52.895  1.00  0.00    -0.006 C 
ENDROOT
BRANCH   3   4
HETATM    4  C4  UNL     1      15.682   3.547  52.124  1.00  0.00     0.297 C 
HETATM    5  O1  UNL     1      16.679   4.243  52.338  1.00  0.00    -0.258 OA
HETATM    6  N1  UNL     1      15.572   2.488  51.205  1.00  0.00    -0.326 N 
HETATM    7  H4  UNL     1      14.646   1.966  51.130  1.00  0.00     0.165 HD
BRANCH   6   8
HETATM    8  C5  UNL     1      16.760   2.001  50.257  1.00  0.00     0.146 A 
HETATM    9  C6  UNL     1      16.762   3.090  49.317  1.00  0.00    -0.043 A 
HETATM   10  C7  UNL     1      17.186   4.517  49.162  1.00  0.00     0.047 C 
HETATM   11  C8  UNL     1      16.179   2.634  48.181  1.00  0.00     0.008 A 
HETATM   12  C9  UNL     1      15.775   1.213  48.296  1.00  0.00     0.031 A 
HETATM   13  C10 UNL     1      16.158   0.877  49.543  1.00  0.00     0.073 A 
HETATM   14  N2  UNL     1      16.188  -0.505  49.978  1.00  0.00    -0.261 NA
HETATM   15  C11 UNL     1      17.063  -0.788  50.936  1.00  0.00     0.141 C 
HETATM   16  C12 UNL     1      17.837   0.363  51.459  1.00  0.00     0.087 C 
HETATM   17  C13 UNL     1      18.838  -0.119  52.411  1.00  0.00     0.103 C 
HETATM   18  C14 UNL     1      17.797   1.690  51.199  1.00  0.00     0.071 C 
HETATM   19  N3  UNL     1      19.657  -0.491  53.178  1.00  0.00    -0.191 NA
BRANCH  18  20
HETATM   20  N4  UNL     1      18.730   2.486  51.905  1.00  0.00    -0.356 N 
HETATM   21  H11 UNL     1      18.241   2.648  52.841  1.00  0.00     0.166 HD
BRANCH  20  22
HETATM   22  C15 UNL     1      20.022   2.976  51.514  1.00  0.00     0.033 A 
HETATM   23  C16 UNL     1      20.847   3.748  52.297  1.00  0.00     0.029 A 
HETATM   24  C17 UNL     1      22.094   4.222  51.951  1.00  0.00     0.004 A 
HETATM   25  C18 UNL     1      22.585   3.905  50.704  1.00  0.00     0.019 A 
HETATM   26  C19 UNL     1      21.815   3.133  49.857  1.00  0.00     0.013 A 
HETATM   27 BR1  UNL     1      22.560   2.733  48.153  1.00  0.00    -0.051 Br
HETATM   28  C20 UNL     1      20.579   2.703  50.285  1.00  0.00     0.048 A 
ENDBRANCH  20  22
ENDBRANCH  18  20
ENDBRANCH   6   8
ENDBRANCH   3   4
TORSDOF 4
ENDMDL
