MODEL 1
REMARK VINA RESULT:      -8.8      0.000      0.000
REMARK  3 active torsions:
REMARK  status: ('A' for Active; 'I' for Inactive)
REMARK    1  A    between atoms: C6_8  and  C7_9 
REMARK    2  A    between atoms: C10_13  and  C11_14 
REMARK    3  A    between atoms: C11_14  and  N3_15 
ROOT
HETATM    1  N1  UNL     1      28.209   2.263  53.786  1.00  0.00    -0.191 NA
HETATM    2  C1  UNL     1      28.238   1.110  53.592  1.00  0.00     0.100 C 
HETATM    3  C2  UNL     1      28.260  -0.327  53.340  1.00  0.00     0.057 A 
HETATM    4  C3  UNL     1      29.420  -0.947  53.681  1.00  0.00     0.042 A 
HETATM    5  C4  UNL     1      29.341  -2.318  53.401  1.00  0.00     0.118 A 
HETATM    6  N2  UNL     1      28.276  -2.920  52.874  1.00  0.00    -0.272 NA
HETATM    7  C5  UNL     1      27.163  -2.216  52.568  1.00  0.00     0.129 A 
HETATM    8  C6  UNL     1      27.104  -0.830  52.795  1.00  0.00     0.004 A 
ENDROOT
BRANCH   8   9
HETATM    9  C7  UNL     1      25.936  -0.041  52.521  1.00  0.00     0.041 C 
HETATM   10  C8  UNL     1      24.798   0.183  53.134  1.00  0.00     0.037 C 
HETATM   11  C9  UNL     1      23.889   1.118  52.411  1.00  0.00     0.232 C 
HETATM   12  N4  UNL     1      24.533  -0.478  54.361  1.00  0.00    -0.325 N 
HETATM   13  O1  UNL     1      22.665   1.329  53.044  1.00  0.00    -0.348 OA
HETATM   14  C10 UNL     1      21.671   0.559  53.602  1.00  0.00     0.080 C 
HETATM   15  C16 UNL     1      21.945  -0.487  54.405  1.00  0.00     0.108 C 
HETATM   16  C17 UNL     1      23.268  -0.951  54.796  1.00  0.00     0.247 C 
HETATM   17  O3  UNL     1      23.302  -1.902  55.631  1.00  0.00    -0.268 OA
HETATM   18  H18 UNL     1      25.349  -0.622  54.978  1.00  0.00     0.169 HD
BRANCH  14  19
HETATM   19  C11 UNL     1      20.231   0.836  53.355  1.00  0.00     0.337 C 
BRANCH  19  20
HETATM   20  N3  UNL     1      20.009   1.344  52.013  1.00  0.00     0.098 N 
HETATM   21  C12 UNL     1      18.954   0.653  51.308  1.00  0.00     0.299 C 
HETATM   22  C13 UNL     1      18.913   1.282  49.913  1.00  0.00     0.198 C 
HETATM   23  O2  UNL     1      18.420   2.572  49.983  1.00  0.00    -0.388 OA
HETATM   24  C14 UNL     1      18.456   3.114  51.248  1.00  0.00     0.198 C 
HETATM   25  C15 UNL     1      19.648   2.746  52.053  1.00  0.00     0.299 C 
ENDBRANCH  19  20
ENDBRANCH  14  19
ENDBRANCH   8   9
TORSDOF 3
ENDMDL
MODEL 2
REMARK VINA RESULT:      -8.1      1.066      1.308
REMARK  3 active torsions:
REMARK  status: ('A' for Active; 'I' for Inactive)
REMARK    1  A    between atoms: C6_8  and  C7_9 
REMARK    2  A    between atoms: C10_13  and  C11_14 
REMARK    3  A    between atoms: C11_14  and  N3_15 
ROOT
HETATM    1  N1  UNL     1      28.646   2.343  53.804  1.00  0.00    -0.191 NA
HETATM    2  C1  UNL     1      28.454   1.213  53.570  1.00  0.00     0.100 C 
HETATM    3  C2  UNL     1      28.202  -0.191  53.266  1.00  0.00     0.057 A 
HETATM    4  C3  UNL     1      29.179  -1.045  53.670  1.00  0.00     0.042 A 
HETATM    5  C4  UNL     1      28.844  -2.363  53.333  1.00  0.00     0.118 A 
HETATM    6  N2  UNL     1      27.726  -2.721  52.705  1.00  0.00    -0.272 NA
HETATM    7  C5  UNL     1      26.809  -1.796  52.341  1.00  0.00     0.129 A 
HETATM    8  C6  UNL     1      27.017  -0.433  52.616  1.00  0.00     0.004 A 
ENDROOT
BRANCH   8   9
HETATM    9  C7  UNL     1      26.062   0.587  52.283  1.00  0.00     0.041 C 
HETATM   10  C8  UNL     1      24.851   0.895  52.684  1.00  0.00     0.037 C 
HETATM   11  C9  UNL     1      24.270   2.090  52.007  1.00  0.00     0.232 C 
HETATM   12  N4  UNL     1      24.219   0.083  53.660  1.00  0.00    -0.325 N 
HETATM   13  O1  UNL     1      22.970   2.398  52.406  1.00  0.00    -0.348 OA
HETATM   14  C10 UNL     1      21.779   1.729  52.571  1.00  0.00     0.080 C 
HETATM   15  C16 UNL     1      21.715   0.525  53.170  1.00  0.00     0.108 C 
HETATM   16  C17 UNL     1      22.835  -0.229  53.715  1.00  0.00     0.247 C 
HETATM   17  O3  UNL     1      22.545  -1.304  54.317  1.00  0.00    -0.268 OA
HETATM   18  H18 UNL     1      24.840  -0.311  54.386  1.00  0.00     0.169 HD
BRANCH  14  19
HETATM   19  C11 UNL     1      20.488   2.295  52.099  1.00  0.00     0.337 C 
BRANCH  19  20
HETATM   20  N3  UNL     1      19.722   1.318  51.346  1.00  0.00     0.098 N 
HETATM   21  C12 UNL     1      18.424   1.047  51.919  1.00  0.00     0.299 C 
HETATM   22  C13 UNL     1      17.802  -0.035  51.031  1.00  0.00     0.198 C 
HETATM   23  O2  UNL     1      17.471   0.492  49.797  1.00  0.00    -0.388 OA
HETATM   24  C14 UNL     1      18.100   1.683  49.511  1.00  0.00     0.198 C 
HETATM   25  C15 UNL     1      19.501   1.781  49.991  1.00  0.00     0.299 C 
ENDBRANCH  19  20
ENDBRANCH  14  19
ENDBRANCH   8   9
TORSDOF 3
ENDMDL
MODEL 3
REMARK VINA RESULT:      -8.0      3.168      4.104
REMARK  3 active torsions:
REMARK  status: ('A' for Active; 'I' for Inactive)
REMARK    1  A    between atoms: C6_8  and  C7_9 
REMARK    2  A    between atoms: C10_13  and  C11_14 
REMARK    3  A    between atoms: C11_14  and  N3_15 
ROOT
HETATM    1  N1  UNL     1      28.799   2.522  54.196  1.00  0.00    -0.191 NA
HETATM    2  C1  UNL     1      28.597   1.407  53.905  1.00  0.00     0.100 C 
HETATM    3  C2  UNL     1      28.328   0.022  53.536  1.00  0.00     0.057 A 
HETATM    4  C3  UNL     1      29.421  -0.786  53.523  1.00  0.00     0.042 A 
HETATM    5  C4  UNL     1      29.059  -2.089  53.158  1.00  0.00     0.118 A 
HETATM    6  N2  UNL     1      27.819  -2.475  52.865  1.00  0.00    -0.272 NA
HETATM    7  C5  UNL     1      26.792  -1.595  52.906  1.00  0.00     0.129 A 
HETATM    8  C6  UNL     1      27.011  -0.252  53.257  1.00  0.00     0.004 A 
ENDROOT
BRANCH   8   9
HETATM    9  C7  UNL     1      25.954   0.715  53.349  1.00  0.00     0.041 C 
HETATM   10  C8  UNL     1      25.415   1.588  52.531  1.00  0.00     0.037 C 
HETATM   11  C9  UNL     1      24.302   2.380  53.128  1.00  0.00     0.232 C 
HETATM   12  N4  UNL     1      25.937   1.716  51.218  1.00  0.00    -0.325 N 
HETATM   13  O1  UNL     1      23.753   3.332  52.271  1.00  0.00    -0.348 OA
HETATM   14  C10 UNL     1      24.213   4.328  51.441  1.00  0.00     0.080 C 
HETATM   15  C16 UNL     1      25.263   4.143  50.619  1.00  0.00     0.108 C 
HETATM   16  C17 UNL     1      26.043   2.923  50.478  1.00  0.00     0.247 C 
HETATM   17  O3  UNL     1      26.938   2.932  49.581  1.00  0.00    -0.268 OA
HETATM   18  H18 UNL     1      26.267   0.841  50.779  1.00  0.00     0.169 HD
BRANCH  14  19
HETATM   19  C11 UNL     1      23.577   5.671  51.399  1.00  0.00     0.337 C 
BRANCH  19  20
HETATM   20  N3  UNL     1      22.449   5.698  50.484  1.00  0.00     0.098 N 
HETATM   21  C12 UNL     1      21.204   5.306  51.102  1.00  0.00     0.299 C 
HETATM   22  C13 UNL     1      20.162   5.339  49.980  1.00  0.00     0.198 C 
HETATM   23  O2  UNL     1      19.903   6.645  49.606  1.00  0.00    -0.388 OA
HETATM   24  C14 UNL     1      20.866   7.542  50.008  1.00  0.00     0.198 C 
HETATM   25  C15 UNL     1      22.260   7.032  49.951  1.00  0.00     0.299 C 
ENDBRANCH  19  20
ENDBRANCH  14  19
ENDBRANCH   8   9
TORSDOF 3
ENDMDL
MODEL 4
REMARK VINA RESULT:      -7.5      4.916      6.971
REMARK  3 active torsions:
REMARK  status: ('A' for Active; 'I' for Inactive)
REMARK    1  A    between atoms: C6_8  and  C7_9 
REMARK    2  A    between atoms: C10_13  and  C11_14 
REMARK    3  A    between atoms: C11_14  and  N3_15 
ROOT
HETATM    1  N1  UNL     1      26.808  -0.249  54.540  1.00  0.00    -0.191 NA
HETATM    2  C1  UNL     1      25.651  -0.345  54.399  1.00  0.00     0.100 C 
HETATM    3  C2  UNL     1      24.210  -0.460  54.205  1.00  0.00     0.057 A 
HETATM    4  C3  UNL     1      23.567  -1.202  55.144  1.00  0.00     0.042 A 
HETATM    5  C4  UNL     1      22.194  -1.251  54.870  1.00  0.00     0.118 A 
HETATM    6  N2  UNL     1      21.609  -0.654  53.834  1.00  0.00    -0.272 NA
HETATM    7  C5  UNL     1      22.335   0.066  52.948  1.00  0.00     0.129 A 
HETATM    8  C6  UNL     1      23.726   0.199  53.101  1.00  0.00     0.004 A 
ENDROOT
BRANCH   8   9
HETATM    9  C7  UNL     1      24.540   0.979  52.212  1.00  0.00     0.041 C 
HETATM   10  C8  UNL     1      24.659   2.257  51.938  1.00  0.00     0.037 C 
HETATM   11  C9  UNL     1      25.687   2.567  50.903  1.00  0.00     0.232 C 
HETATM   12  N4  UNL     1      23.815   3.186  52.599  1.00  0.00    -0.325 N 
HETATM   13  O1  UNL     1      25.790   3.920  50.586  1.00  0.00    -0.348 OA
HETATM   14  C10 UNL     1      24.936   4.947  50.256  1.00  0.00     0.080 C 
HETATM   15  C16 UNL     1      23.781   5.154  50.917  1.00  0.00     0.108 C 
HETATM   16  C17 UNL     1      23.272   4.368  52.031  1.00  0.00     0.247 C 
HETATM   17  O3  UNL     1      22.204   4.787  52.568  1.00  0.00    -0.268 OA
HETATM   18  H18 UNL     1      23.584   2.963  53.580  1.00  0.00     0.169 HD
BRANCH  14  19
HETATM   19  C11 UNL     1      25.237   5.895  49.150  1.00  0.00     0.337 C 
BRANCH  19  20
HETATM   20  N3  UNL     1      26.465   6.629  49.398  1.00  0.00     0.098 N 
HETATM   21  C12 UNL     1      27.166   6.994  48.189  1.00  0.00     0.299 C 
HETATM   22  C13 UNL     1      28.445   7.697  48.652  1.00  0.00     0.198 C 
HETATM   23  O2  UNL     1      28.142   8.931  49.196  1.00  0.00    -0.388 OA
HETATM   24  C14 UNL     1      26.820   9.075  49.551  1.00  0.00     0.198 C 
HETATM   25  C15 UNL     1      26.187   7.856  50.116  1.00  0.00     0.299 C 
ENDBRANCH  19  20
ENDBRANCH  14  19
ENDBRANCH   8   9
TORSDOF 3
ENDMDL
MODEL 5
REMARK VINA RESULT:      -7.3      2.152      2.840
REMARK  3 active torsions:
REMARK  status: ('A' for Active; 'I' for Inactive)
REMARK    1  A    between atoms: C6_8  and  C7_9 
REMARK    2  A    between atoms: C10_13  and  C11_14 
REMARK    3  A    between atoms: C11_14  and  N3_15 
ROOT
HETATM    1  N1  UNL     1      26.776   2.699  50.658  1.00  0.00    -0.191 NA
HETATM    2  C1  UNL     1      26.760   2.002  51.598  1.00  0.00     0.100 C 
HETATM    3  C2  UNL     1      26.724   1.126  52.763  1.00  0.00     0.057 A 
HETATM    4  C3  UNL     1      27.917   0.971  53.396  1.00  0.00     0.042 A 
HETATM    5  C4  UNL     1      27.777   0.115  54.497  1.00  0.00     0.118 A 
HETATM    6  N2  UNL     1      26.635  -0.461  54.865  1.00  0.00    -0.272 NA
HETATM    7  C5  UNL     1      25.494  -0.246  54.170  1.00  0.00     0.129 A 
HETATM    8  C6  UNL     1      25.489   0.591  53.040  1.00  0.00     0.004 A 
ENDROOT
BRANCH   8   9
HETATM    9  C7  UNL     1      24.302   0.882  52.288  1.00  0.00     0.041 C 
HETATM   10  C8  UNL     1      23.012   0.808  52.517  1.00  0.00     0.037 C 
HETATM   11  C9  UNL     1      22.162   1.246  51.373  1.00  0.00     0.232 C 
HETATM   12  N4  UNL     1      22.561   0.312  53.767  1.00  0.00    -0.325 N 
HETATM   13  O1  UNL     1      20.792   1.134  51.602  1.00  0.00    -0.348 OA
HETATM   14  C10 UNL     1      19.922   0.179  52.074  1.00  0.00     0.080 C 
HETATM   15  C16 UNL     1      20.200  -0.563  53.163  1.00  0.00     0.108 C 
HETATM   16  C17 UNL     1      21.402  -0.481  53.979  1.00  0.00     0.247 C 
HETATM   17  O3  UNL     1      21.426  -1.210  55.014  1.00  0.00    -0.268 OA
HETATM   18  H18 UNL     1      23.143   0.557  54.584  1.00  0.00     0.169 HD
BRANCH  14  19
HETATM   19  C11 UNL     1      18.618  -0.093  51.412  1.00  0.00     0.337 C 
BRANCH  19  20
HETATM   20  N3  UNL     1      17.561   0.739  51.958  1.00  0.00     0.098 N 
HETATM   21  C12 UNL     1      17.060   1.716  51.019  1.00  0.00     0.299 C 
HETATM   22  C13 UNL     1      16.010   2.523  51.788  1.00  0.00     0.198 C 
HETATM   23  O2  UNL     1      14.890   1.747  52.026  1.00  0.00    -0.388 OA
HETATM   24  C14 UNL     1      15.109   0.395  51.890  1.00  0.00     0.198 C 
HETATM   25  C15 UNL     1      16.435  -0.075  52.367  1.00  0.00     0.299 C 
ENDBRANCH  19  20
ENDBRANCH  14  19
ENDBRANCH   8   9
TORSDOF 3
ENDMDL
MODEL 6
REMARK VINA RESULT:      -7.2      4.504      6.895
REMARK  3 active torsions:
REMARK  status: ('A' for Active; 'I' for Inactive)
REMARK    1  A    between atoms: C6_8  and  C7_9 
REMARK    2  A    between atoms: C10_13  and  C11_14 
REMARK    3  A    between atoms: C11_14  and  N3_15 
ROOT
HETATM    1  N1  UNL     1      19.656   0.450  52.296  1.00  0.00    -0.191 NA
HETATM    2  C1  UNL     1      20.628   0.132  52.864  1.00  0.00     0.100 C 
HETATM    3  C2  UNL     1      21.849  -0.251  53.565  1.00  0.00     0.057 A 
HETATM    4  C3  UNL     1      21.669  -1.140  54.577  1.00  0.00     0.042 A 
HETATM    5  C4  UNL     1      22.894  -1.442  55.185  1.00  0.00     0.118 A 
HETATM    6  N2  UNL     1      24.066  -0.926  54.818  1.00  0.00    -0.272 NA
HETATM    7  C5  UNL     1      24.146  -0.046  53.794  1.00  0.00     0.129 A 
HETATM    8  C6  UNL     1      22.991   0.348  53.094  1.00  0.00     0.004 A 
ENDROOT
BRANCH   8   9
HETATM    9  C7  UNL     1      23.023   1.252  51.979  1.00  0.00     0.041 C 
HETATM   10  C8  UNL     1      23.964   1.766  51.223  1.00  0.00     0.037 C 
HETATM   11  C9  UNL     1      23.461   2.680  50.158  1.00  0.00     0.232 C 
HETATM   12  N4  UNL     1      25.319   1.443  51.492  1.00  0.00    -0.325 N 
HETATM   13  O1  UNL     1      24.462   3.255  49.377  1.00  0.00    -0.348 OA
HETATM   14  C10 UNL     1      25.653   3.912  49.585  1.00  0.00     0.080 C 
HETATM   15  C16 UNL     1      26.555   3.485  50.488  1.00  0.00     0.108 C 
HETATM   16  C17 UNL     1      26.428   2.318  51.349  1.00  0.00     0.247 C 
HETATM   17  O3  UNL     1      27.433   2.041  52.068  1.00  0.00    -0.268 OA
HETATM   18  H18 UNL     1      25.493   0.481  51.826  1.00  0.00     0.169 HD
BRANCH  14  19
HETATM   19  C11 UNL     1      26.018   5.135  48.822  1.00  0.00     0.337 C 
BRANCH  19  20
HETATM   20  N3  UNL     1      26.031   6.310  49.674  1.00  0.00     0.098 N 
HETATM   21  C12 UNL     1      26.748   7.425  49.099  1.00  0.00     0.299 C 
HETATM   22  C13 UNL     1      26.702   8.532  50.156  1.00  0.00     0.198 C 
HETATM   23  O2  UNL     1      25.419   9.035  50.266  1.00  0.00    -0.388 OA
HETATM   24  C14 UNL     1      24.450   8.215  49.734  1.00  0.00     0.198 C 
HETATM   25  C15 UNL     1      24.680   6.762  49.937  1.00  0.00     0.299 C 
ENDBRANCH  19  20
ENDBRANCH  14  19
ENDBRANCH   8   9
TORSDOF 3
ENDMDL
MODEL 7
REMARK VINA RESULT:      -7.0      5.860      7.834
REMARK  3 active torsions:
REMARK  status: ('A' for Active; 'I' for Inactive)
REMARK    1  A    between atoms: C6_8  and  C7_9 
REMARK    2  A    between atoms: C10_13  and  C11_14 
REMARK    3  A    between atoms: C11_14  and  N3_15 
ROOT
HETATM    1  N1  UNL     1      21.499   1.087  51.854  1.00  0.00    -0.191 NA
HETATM    2  C1  UNL     1      22.530   0.924  52.380  1.00  0.00     0.100 C 
HETATM    3  C2  UNL     1      23.819   0.737  53.040  1.00  0.00     0.057 A 
HETATM    4  C3  UNL     1      24.069  -0.534  53.451  1.00  0.00     0.042 A 
HETATM    5  C4  UNL     1      25.324  -0.608  54.069  1.00  0.00     0.118 A 
HETATM    6  N2  UNL     1      26.149   0.425  54.228  1.00  0.00    -0.272 NA
HETATM    7  C5  UNL     1      25.811   1.657  53.784  1.00  0.00     0.129 A 
HETATM    8  C6  UNL     1      24.578   1.876  53.144  1.00  0.00     0.004 A 
ENDROOT
BRANCH   8   9
HETATM    9  C7  UNL     1      24.184   3.155  52.623  1.00  0.00     0.041 C 
HETATM   10  C8  UNL     1      24.413   3.819  51.514  1.00  0.00     0.037 C 
HETATM   11  C9  UNL     1      23.747   5.152  51.453  1.00  0.00     0.232 C 
HETATM   12  N4  UNL     1      25.259   3.249  50.530  1.00  0.00    -0.325 N 
HETATM   13  O1  UNL     1      24.017   5.874  50.292  1.00  0.00    -0.348 OA
HETATM   14  C10 UNL     1      25.126   6.230  49.560  1.00  0.00     0.080 C 
HETATM   15  C16 UNL     1      26.111   5.354  49.286  1.00  0.00     0.108 C 
HETATM   16  C17 UNL     1      26.163   3.959  49.696  1.00  0.00     0.247 C 
HETATM   17  O3  UNL     1      27.140   3.283  49.258  1.00  0.00    -0.268 OA
HETATM   18  H18 UNL     1      25.201   2.223  50.428  1.00  0.00     0.169 HD
BRANCH  14  19
HETATM   19  C11 UNL     1      25.304   7.605  49.023  1.00  0.00     0.337 C 
BRANCH  19  20
HETATM   20  N3  UNL     1      26.709   7.944  48.883  1.00  0.00     0.098 N 
HETATM   21  C12 UNL     1      27.030   8.529  47.601  1.00  0.00     0.299 C 
HETATM   22  C13 UNL     1      28.544   8.757  47.622  1.00  0.00     0.198 C 
HETATM   23  O2  UNL     1      28.862   9.780  48.496  1.00  0.00    -0.388 OA
HETATM   24  C14 UNL     1      27.863  10.073  49.398  1.00  0.00     0.198 C 
HETATM   25  C15 UNL     1      27.106   8.898  49.898  1.00  0.00     0.299 C 
ENDBRANCH  19  20
ENDBRANCH  14  19
ENDBRANCH   8   9
TORSDOF 3
ENDMDL
MODEL 8
REMARK VINA RESULT:      -6.9      6.085      7.323
REMARK  3 active torsions:
REMARK  status: ('A' for Active; 'I' for Inactive)
REMARK    1  A    between atoms: C6_8  and  C7_9 
REMARK    2  A    between atoms: C10_13  and  C11_14 
REMARK    3  A    between atoms: C11_14  and  N3_15 
ROOT
HETATM    1  N1  UNL     1      28.937   9.698  49.190  1.00  0.00    -0.191 NA
HETATM    2  C1  UNL     1      29.463   8.685  48.935  1.00  0.00     0.100 C 
HETATM    3  C2  UNL     1      30.104   7.415  48.609  1.00  0.00     0.057 A 
HETATM    4  C3  UNL     1      31.458   7.414  48.729  1.00  0.00     0.042 A 
HETATM    5  C4  UNL     1      31.975   6.156  48.395  1.00  0.00     0.118 A 
HETATM    6  N2  UNL     1      31.239   5.114  48.014  1.00  0.00    -0.272 NA
HETATM    7  C5  UNL     1      29.893   5.212  47.924  1.00  0.00     0.129 A 
HETATM    8  C6  UNL     1      29.239   6.418  48.230  1.00  0.00     0.004 A 
ENDROOT
BRANCH   8   9
HETATM    9  C7  UNL     1      27.812   6.567  48.185  1.00  0.00     0.041 C 
HETATM   10  C8  UNL     1      26.795   5.979  48.770  1.00  0.00     0.037 C 
HETATM   11  C9  UNL     1      25.465   6.523  48.375  1.00  0.00     0.232 C 
HETATM   12  N4  UNL     1      27.040   4.906  49.664  1.00  0.00    -0.325 N 
HETATM   13  O1  UNL     1      24.382   5.876  48.968  1.00  0.00    -0.348 OA
HETATM   14  C10 UNL     1      23.960   4.581  49.157  1.00  0.00     0.080 C 
HETATM   15  C16 UNL     1      24.803   3.607  49.550  1.00  0.00     0.108 C 
HETATM   16  C17 UNL     1      26.224   3.756  49.828  1.00  0.00     0.247 C 
HETATM   17  O3  UNL     1      26.817   2.729  50.272  1.00  0.00    -0.268 OA
HETATM   18  H18 UNL     1      27.896   4.985  50.237  1.00  0.00     0.169 HD
BRANCH  14  19
HETATM   19  C11 UNL     1      22.546   4.175  48.940  1.00  0.00     0.337 C 
BRANCH  19  20
HETATM   20  N3  UNL     1      21.939   3.685  50.165  1.00  0.00     0.098 N 
HETATM   21  C12 UNL     1      21.718   4.721  51.146  1.00  0.00     0.299 C 
HETATM   22  C13 UNL     1      21.136   4.009  52.371  1.00  0.00     0.198 C 
HETATM   23  O2  UNL     1      19.849   3.578  52.107  1.00  0.00    -0.388 OA
HETATM   24  C14 UNL     1      19.543   3.525  50.766  1.00  0.00     0.198 C 
HETATM   25  C15 UNL     1      20.653   3.079  49.887  1.00  0.00     0.299 C 
ENDBRANCH  19  20
ENDBRANCH  14  19
ENDBRANCH   8   9
TORSDOF 3
ENDMDL
MODEL 9
REMARK VINA RESULT:      -6.9      6.835      9.607
REMARK  3 active torsions:
REMARK  status: ('A' for Active; 'I' for Inactive)
REMARK    1  A    between atoms: C6_8  and  C7_9 
REMARK    2  A    between atoms: C10_13  and  C11_14 
REMARK    3  A    between atoms: C11_14  and  N3_15 
ROOT
HETATM    1  N1  UNL     1      26.945   1.184  52.371  1.00  0.00    -0.191 NA
HETATM    2  C1  UNL     1      25.841   1.483  52.126  1.00  0.00     0.100 C 
HETATM    3  C2  UNL     1      24.470   1.862  51.803  1.00  0.00     0.057 A 
HETATM    4  C3  UNL     1      23.526   1.339  52.630  1.00  0.00     0.042 A 
HETATM    5  C4  UNL     1      22.249   1.760  52.238  1.00  0.00     0.118 A 
HETATM    6  N2  UNL     1      22.001   2.558  51.201  1.00  0.00    -0.272 NA
HETATM    7  C5  UNL     1      23.010   3.030  50.434  1.00  0.00     0.129 A 
HETATM    8  C6  UNL     1      24.345   2.687  50.713  1.00  0.00     0.004 A 
ENDROOT
BRANCH   8   9
HETATM    9  C7  UNL     1      25.456   3.187  49.953  1.00  0.00     0.041 C 
HETATM   10  C8  UNL     1      26.061   4.346  49.840  1.00  0.00     0.037 C 
HETATM   11  C9  UNL     1      27.207   4.345  48.887  1.00  0.00     0.232 C 
HETATM   12  N4  UNL     1      25.574   5.454  50.579  1.00  0.00    -0.325 N 
HETATM   13  O1  UNL     1      27.829   5.584  48.739  1.00  0.00    -0.348 OA
HETATM   14  C10 UNL     1      27.446   6.885  48.507  1.00  0.00     0.080 C 
HETATM   15  C16 UNL     1      26.403   7.445  49.148  1.00  0.00     0.108 C 
HETATM   16  C17 UNL     1      25.554   6.803  50.141  1.00  0.00     0.247 C 
HETATM   17  O3  UNL     1      24.680   7.538  50.688  1.00  0.00    -0.268 OA
HETATM   18  H18 UNL     1      25.201   5.237  51.518  1.00  0.00     0.169 HD
BRANCH  14  19
HETATM   19  C11 UNL     1      28.161   7.754  47.536  1.00  0.00     0.337 C 
BRANCH  19  20
HETATM   20  N3  UNL     1      29.572   7.864  47.859  1.00  0.00     0.098 N 
HETATM   21  C12 UNL     1      30.393   8.211  46.722  1.00  0.00     0.299 C 
HETATM   22  C13 UNL     1      31.833   8.221  47.244  1.00  0.00     0.198 C 
HETATM   23  O2  UNL     1      32.030   9.301  48.084  1.00  0.00    -0.388 OA
HETATM   24  C14 UNL     1      30.864   9.858  48.559  1.00  0.00     0.198 C 
HETATM   25  C15 UNL     1      29.784   8.885  48.865  1.00  0.00     0.299 C 
ENDBRANCH  19  20
ENDBRANCH  14  19
ENDBRANCH   8   9
TORSDOF 3
ENDMDL
