MODEL 1
REMARK VINA RESULT:      -7.5      0.000      0.000
REMARK  2 active torsions:
REMARK  status: ('A' for Active; 'I' for Inactive)
REMARK    1  A    between atoms: O1_2  and  C2_3 
REMARK    2  A    between atoms: C2_3  and  C3_5 
ROOT
HETATM    1  C3  UNL     1      25.524   3.915  50.262  1.00  0.00     0.182 C 
HETATM    2  C4  UNL     1      26.508   2.992  50.912  1.00  0.00     0.077 C 
HETATM    3  C5  UNL     1      25.948   2.008  51.835  1.00  0.00    -0.009 A 
HETATM    4  C6  UNL     1      24.792   1.320  52.158  1.00  0.00     0.090 A 
HETATM    5  N1  UNL     1      24.937   0.498  53.189  1.00  0.00    -0.344 N 
HETATM    6  C7  UNL     1      23.919  -0.361  53.771  1.00  0.00     0.157 C 
HETATM    7  C8  UNL     1      26.222   0.630  53.577  1.00  0.00     0.045 A 
HETATM    8  C9  UNL     1      26.941   0.033  54.586  1.00  0.00     0.030 A 
HETATM    9  C10 UNL     1      28.271   0.330  54.799  1.00  0.00     0.002 A 
HETATM   10  C11 UNL     1      28.951   1.244  54.007  1.00  0.00     0.001 A 
HETATM   11  C12 UNL     1      28.211   1.832  53.001  1.00  0.00     0.014 A 
HETATM   12  C13 UNL     1      26.881   1.549  52.772  1.00  0.00    -0.000 A 
HETATM   13  S1  UNL     1      23.203   1.434  51.352  1.00  0.00    -0.037 SA
HETATM   14  S2  UNL     1      22.402   3.364  51.828  1.00  0.00    -0.071 SA
HETATM   15  C14 UNL     1      23.285   4.560  50.788  1.00  0.00     0.202 C 
HETATM   16  N2  UNL     1      24.671   4.605  51.184  1.00  0.00    -0.400 N 
HETATM   17  H16 UNL     1      24.858   4.466  52.179  1.00  0.00     0.154 HD
ENDROOT
BRANCH   1  18
HETATM   18  C2  UNL     1      26.369   4.963  49.578  1.00  0.00     0.281 C 
HETATM   19  O2  UNL     1      26.094   6.212  49.537  1.00  0.00    -0.263 OA
BRANCH  18  20
HETATM   20  O1  UNL     1      27.491   4.383  48.997  1.00  0.00    -0.325 OA
HETATM   21  C1  UNL     1      28.519   5.129  48.366  1.00  0.00     0.213 C 
ENDBRANCH  18  20
ENDBRANCH   1  18
TORSDOF 2
ENDMDL
MODEL 2
REMARK VINA RESULT:      -7.5      2.552      3.836
REMARK  2 active torsions:
REMARK  status: ('A' for Active; 'I' for Inactive)
REMARK    1  A    between atoms: O1_2  and  C2_3 
REMARK    2  A    between atoms: C2_3  and  C3_5 
ROOT
HETATM    1  C3  UNL     1      25.032   3.166  50.715  1.00  0.00     0.182 C 
HETATM    2  C4  UNL     1      24.547   1.891  51.332  1.00  0.00     0.077 C 
HETATM    3  C5  UNL     1      23.143   1.867  51.733  1.00  0.00    -0.009 A 
HETATM    4  C6  UNL     1      21.910   2.450  51.496  1.00  0.00     0.090 A 
HETATM    5  N1  UNL     1      20.937   1.952  52.247  1.00  0.00    -0.344 N 
HETATM    6  C7  UNL     1      19.538   2.346  52.238  1.00  0.00     0.157 C 
HETATM    7  C8  UNL     1      21.521   1.007  53.013  1.00  0.00     0.045 A 
HETATM    8  C9  UNL     1      21.014   0.165  53.974  1.00  0.00     0.030 A 
HETATM    9  C10 UNL     1      21.818  -0.737  54.640  1.00  0.00     0.002 A 
HETATM   10  C11 UNL     1      23.175  -0.841  54.375  1.00  0.00     0.001 A 
HETATM   11  C12 UNL     1      23.664   0.013  53.407  1.00  0.00     0.014 A 
HETATM   12  C13 UNL     1      22.877   0.922  52.731  1.00  0.00    -0.000 A 
HETATM   13  S1  UNL     1      21.533   3.747  50.329  1.00  0.00    -0.037 SA
HETATM   14  S2  UNL     1      22.437   5.540  51.079  1.00  0.00    -0.071 SA
HETATM   15  C14 UNL     1      24.212   5.409  50.725  1.00  0.00     0.202 C 
HETATM   16  N2  UNL     1      24.775   4.334  51.504  1.00  0.00    -0.400 N 
HETATM   17  H16 UNL     1      24.364   4.185  52.428  1.00  0.00     0.154 HD
ENDROOT
BRANCH   1  18
HETATM   18  C2  UNL     1      26.532   3.012  50.633  1.00  0.00     0.281 C 
HETATM   19  O2  UNL     1      27.286   2.675  51.611  1.00  0.00    -0.263 OA
BRANCH  18  20
HETATM   20  O1  UNL     1      26.982   3.288  49.348  1.00  0.00    -0.325 OA
HETATM   21  C1  UNL     1      27.331   4.588  48.904  1.00  0.00     0.213 C 
ENDBRANCH  18  20
ENDBRANCH   1  18
TORSDOF 2
ENDMDL
MODEL 3
REMARK VINA RESULT:      -7.4      5.467      7.361
REMARK  2 active torsions:
REMARK  status: ('A' for Active; 'I' for Inactive)
REMARK    1  A    between atoms: O1_2  and  C2_3 
REMARK    2  A    between atoms: C2_3  and  C3_5 
ROOT
HETATM    1  C3  UNL     1      30.787   6.614  48.414  1.00  0.00     0.182 C 
HETATM    2  C4  UNL     1      29.594   5.718  48.290  1.00  0.00     0.077 C 
HETATM    3  C5  UNL     1      28.294   6.383  48.260  1.00  0.00    -0.009 A 
HETATM    4  C6  UNL     1      27.667   7.582  47.973  1.00  0.00     0.090 A 
HETATM    5  N1  UNL     1      26.354   7.551  48.162  1.00  0.00    -0.344 N 
HETATM    6  C7  UNL     1      25.415   8.640  47.951  1.00  0.00     0.157 C 
HETATM    7  C8  UNL     1      26.082   6.299  48.587  1.00  0.00     0.045 A 
HETATM    8  C9  UNL     1      24.902   5.687  48.937  1.00  0.00     0.030 A 
HETATM    9  C10 UNL     1      24.865   4.372  49.350  1.00  0.00     0.002 A 
HETATM   10  C11 UNL     1      26.014   3.600  49.433  1.00  0.00     0.001 A 
HETATM   11  C12 UNL     1      27.189   4.233  49.077  1.00  0.00     0.014 A 
HETATM   12  C13 UNL     1      27.246   5.547  48.662  1.00  0.00    -0.000 A 
HETATM   13  S1  UNL     1      28.428   9.093  47.402  1.00  0.00    -0.037 SA
HETATM   14  S2  UNL     1      29.567   9.873  49.041  1.00  0.00    -0.071 SA
HETATM   15  C14 UNL     1      31.075   8.869  49.145  1.00  0.00     0.202 C 
HETATM   16  N2  UNL     1      30.725   7.522  49.521  1.00  0.00    -0.400 N 
HETATM   17  H16 UNL     1      29.930   7.424  50.154  1.00  0.00     0.154 HD
ENDROOT
BRANCH   1  18
HETATM   18  C2  UNL     1      31.947   5.683  48.673  1.00  0.00     0.281 C 
HETATM   19  O2  UNL     1      33.033   6.015  49.262  1.00  0.00    -0.263 OA
BRANCH  18  20
HETATM   20  O1  UNL     1      31.673   4.412  48.181  1.00  0.00    -0.325 OA
HETATM   21  C1  UNL     1      32.629   3.612  47.506  1.00  0.00     0.213 C 
ENDBRANCH  18  20
ENDBRANCH   1  18
TORSDOF 2
ENDMDL
MODEL 4
REMARK VINA RESULT:      -7.3      2.720      4.774
REMARK  2 active torsions:
REMARK  status: ('A' for Active; 'I' for Inactive)
REMARK    1  A    between atoms: O1_2  and  C2_3 
REMARK    2  A    between atoms: C2_3  and  C3_5 
ROOT
HETATM    1  C3  UNL     1      25.544   2.062  51.881  1.00  0.00     0.182 C 
HETATM    2  C4  UNL     1      24.808   0.875  52.419  1.00  0.00     0.077 C 
HETATM    3  C5  UNL     1      23.390   0.793  52.079  1.00  0.00    -0.009 A 
HETATM    4  C6  UNL     1      22.442   1.211  51.162  1.00  0.00     0.090 A 
HETATM    5  N1  UNL     1      21.221   0.764  51.423  1.00  0.00    -0.344 N 
HETATM    6  C7  UNL     1      20.013   1.021  50.655  1.00  0.00     0.157 C 
HETATM    7  C8  UNL     1      21.340   0.024  52.545  1.00  0.00     0.045 A 
HETATM    8  C9  UNL     1      20.417  -0.681  53.280  1.00  0.00     0.030 A 
HETATM    9  C10 UNL     1      20.777  -1.377  54.415  1.00  0.00     0.002 A 
HETATM   10  C11 UNL     1      22.086  -1.401  54.873  1.00  0.00     0.001 A 
HETATM   11  C12 UNL     1      22.997  -0.686  54.121  1.00  0.00     0.014 A 
HETATM   12  C13 UNL     1      22.657   0.015  52.983  1.00  0.00    -0.000 A 
HETATM   13  S1  UNL     1      22.703   2.246  49.730  1.00  0.00    -0.037 SA
HETATM   14  S2  UNL     1      23.128   4.216  50.458  1.00  0.00    -0.071 SA
HETATM   15  C14 UNL     1      24.843   4.188  51.050  1.00  0.00     0.202 C 
HETATM   16  N2  UNL     1      24.937   3.321  52.198  1.00  0.00    -0.400 N 
HETATM   17  H16 UNL     1      24.121   3.298  52.812  1.00  0.00     0.154 HD
ENDROOT
BRANCH   1  18
HETATM   18  C2  UNL     1      26.886   2.034  52.575  1.00  0.00     0.281 C 
HETATM   19  O2  UNL     1      27.953   2.574  52.123  1.00  0.00    -0.263 OA
BRANCH  18  20
HETATM   20  O1  UNL     1      26.800   1.338  53.775  1.00  0.00    -0.325 OA
HETATM   21  C1  UNL     1      27.858   0.554  54.301  1.00  0.00     0.213 C 
ENDBRANCH  18  20
ENDBRANCH   1  18
TORSDOF 2
ENDMDL
MODEL 5
REMARK VINA RESULT:      -7.2      2.044      2.913
REMARK  2 active torsions:
REMARK  status: ('A' for Active; 'I' for Inactive)
REMARK    1  A    between atoms: O1_2  and  C2_3 
REMARK    2  A    between atoms: C2_3  and  C3_5 
ROOT
HETATM    1  C3  UNL     1      26.262   5.287  49.106  1.00  0.00     0.182 C 
HETATM    2  C4  UNL     1      26.281   3.853  49.539  1.00  0.00     0.077 C 
HETATM    3  C5  UNL     1      25.168   3.425  50.382  1.00  0.00    -0.009 A 
HETATM    4  C6  UNL     1      23.859   3.714  50.726  1.00  0.00     0.090 A 
HETATM    5  N1  UNL     1      23.354   2.884  51.628  1.00  0.00    -0.344 N 
HETATM    6  C7  UNL     1      22.015   2.918  52.194  1.00  0.00     0.157 C 
HETATM    7  C8  UNL     1      24.342   2.009  51.905  1.00  0.00     0.045 A 
HETATM    8  C9  UNL     1      24.400   0.932  52.759  1.00  0.00     0.030 A 
HETATM    9  C10 UNL     1      25.540   0.166  52.879  1.00  0.00     0.002 A 
HETATM   10  C11 UNL     1      26.685   0.441  52.146  1.00  0.00     0.001 A 
HETATM   11  C12 UNL     1      26.607   1.525  51.295  1.00  0.00     0.014 A 
HETATM   12  C13 UNL     1      25.476   2.303  51.162  1.00  0.00    -0.000 A 
HETATM   13  S1  UNL     1      22.842   5.040  50.095  1.00  0.00    -0.037 SA
HETATM   14  S2  UNL     1      23.643   6.865  50.882  1.00  0.00    -0.071 SA
HETATM   15  C14 UNL     1      25.137   7.230  49.918  1.00  0.00     0.202 C 
HETATM   16  N2  UNL     1      26.133   6.222  50.184  1.00  0.00    -0.400 N 
HETATM   17  H16 UNL     1      26.144   5.840  51.131  1.00  0.00     0.154 HD
ENDROOT
BRANCH   1  18
HETATM   18  C2  UNL     1      27.616   5.521  48.480  1.00  0.00     0.281 C 
HETATM   19  O2  UNL     1      28.586   4.688  48.505  1.00  0.00    -0.263 OA
BRANCH  18  20
HETATM   20  O1  UNL     1      27.663   6.770  47.872  1.00  0.00    -0.325 OA
HETATM   21  C1  UNL     1      28.847   7.543  47.766  1.00  0.00     0.213 C 
ENDBRANCH  18  20
ENDBRANCH   1  18
TORSDOF 2
ENDMDL
MODEL 6
REMARK VINA RESULT:      -6.9      2.977      4.331
REMARK  2 active torsions:
REMARK  status: ('A' for Active; 'I' for Inactive)
REMARK    1  A    between atoms: O1_2  and  C2_3 
REMARK    2  A    between atoms: C2_3  and  C3_5 
ROOT
HETATM    1  C3  UNL     1      27.570   6.240  48.483  1.00  0.00     0.182 C 
HETATM    2  C4  UNL     1      27.272   4.837  48.913  1.00  0.00     0.077 C 
HETATM    3  C5  UNL     1      25.895   4.572  49.323  1.00  0.00    -0.009 A 
HETATM    4  C6  UNL     1      24.591   5.015  49.187  1.00  0.00     0.090 A 
HETATM    5  N1  UNL     1      23.713   4.291  49.868  1.00  0.00    -0.344 N 
HETATM    6  C7  UNL     1      22.275   4.495  49.932  1.00  0.00     0.157 C 
HETATM    7  C8  UNL     1      24.437   3.332  50.481  1.00  0.00     0.045 A 
HETATM    8  C9  UNL     1      24.071   2.301  51.315  1.00  0.00     0.030 A 
HETATM    9  C10 UNL     1      25.004   1.426  51.834  1.00  0.00     0.002 A 
HETATM   10  C11 UNL     1      26.354   1.541  51.541  1.00  0.00     0.001 A 
HETATM   11  C12 UNL     1      26.700   2.582  50.702  1.00  0.00     0.014 A 
HETATM   12  C13 UNL     1      25.783   3.467  50.175  1.00  0.00    -0.000 A 
HETATM   13  S1  UNL     1      24.015   6.406  48.226  1.00  0.00    -0.037 SA
HETATM   14  S2  UNL     1      24.704   8.175  49.219  1.00  0.00    -0.071 SA
HETATM   15  C14 UNL     1      26.469   8.330  48.830  1.00  0.00     0.202 C 
HETATM   16  N2  UNL     1      27.189   7.238  49.438  1.00  0.00    -0.400 N 
HETATM   17  H16 UNL     1      26.829   6.907  50.335  1.00  0.00     0.154 HD
ENDROOT
BRANCH   1  18
HETATM   18  C2  UNL     1      29.075   6.297  48.364  1.00  0.00     0.281 C 
HETATM   19  O2  UNL     1      29.779   7.354  48.516  1.00  0.00    -0.263 OA
BRANCH  18  20
HETATM   20  O1  UNL     1      29.589   5.041  48.064  1.00  0.00    -0.325 OA
HETATM   21  C1  UNL     1      30.908   4.830  47.590  1.00  0.00     0.213 C 
ENDBRANCH  18  20
ENDBRANCH   1  18
TORSDOF 2
ENDMDL
MODEL 7
REMARK VINA RESULT:      -6.8      2.822      4.619
REMARK  2 active torsions:
REMARK  status: ('A' for Active; 'I' for Inactive)
REMARK    1  A    between atoms: O1_2  and  C2_3 
REMARK    2  A    between atoms: C2_3  and  C3_5 
ROOT
HETATM    1  C3  UNL     1      23.458   3.884  51.432  1.00  0.00     0.182 C 
HETATM    2  C4  UNL     1      22.572   3.032  52.287  1.00  0.00     0.077 C 
HETATM    3  C5  UNL     1      23.197   1.853  52.881  1.00  0.00    -0.009 A 
HETATM    4  C6  UNL     1      24.413   1.315  53.265  1.00  0.00     0.090 A 
HETATM    5  N1  UNL     1      24.312   0.100  53.786  1.00  0.00    -0.344 N 
HETATM    6  C7  UNL     1      25.396  -0.731  54.283  1.00  0.00     0.157 C 
HETATM    7  C8  UNL     1      22.996  -0.196  53.758  1.00  0.00     0.045 A 
HETATM    8  C9  UNL     1      22.298  -1.309  54.163  1.00  0.00     0.030 A 
HETATM    9  C10 UNL     1      20.927  -1.389  54.033  1.00  0.00     0.002 A 
HETATM   10  C11 UNL     1      20.183  -0.353  53.488  1.00  0.00     0.001 A 
HETATM   11  C12 UNL     1      20.903   0.755  53.087  1.00  0.00     0.014 A 
HETATM   12  C13 UNL     1      22.273   0.854  53.209  1.00  0.00    -0.000 A 
HETATM   13  S1  UNL     1      26.024   2.072  53.125  1.00  0.00    -0.037 SA
HETATM   14  S2  UNL     1      26.504   2.131  51.038  1.00  0.00    -0.071 SA
HETATM   15  C14 UNL     1      25.538   3.491  50.325  1.00  0.00     0.202 C 
HETATM   16  N2  UNL     1      24.135   3.166  50.392  1.00  0.00    -0.400 N 
HETATM   17  H16 UNL     1      23.897   2.178  50.283  1.00  0.00     0.154 HD
ENDROOT
BRANCH   1  18
HETATM   18  C2  UNL     1      22.525   4.860  50.756  1.00  0.00     0.281 C 
HETATM   19  O2  UNL     1      21.692   4.555  49.835  1.00  0.00    -0.263 OA
BRANCH  18  20
HETATM   20  O1  UNL     1      22.696   6.138  51.275  1.00  0.00    -0.325 OA
HETATM   21  C1  UNL     1      23.821   6.952  50.992  1.00  0.00     0.213 C 
ENDBRANCH  18  20
ENDBRANCH   1  18
TORSDOF 2
ENDMDL
MODEL 8
REMARK VINA RESULT:      -6.7      4.092      5.782
REMARK  2 active torsions:
REMARK  status: ('A' for Active; 'I' for Inactive)
REMARK    1  A    between atoms: O1_2  and  C2_3 
REMARK    2  A    between atoms: C2_3  and  C3_5 
ROOT
HETATM    1  C3  UNL     1      21.130   0.724  52.158  1.00  0.00     0.182 C 
HETATM    2  C4  UNL     1      22.449   0.647  52.862  1.00  0.00     0.077 C 
HETATM    3  C5  UNL     1      23.574   1.288  52.186  1.00  0.00    -0.009 A 
HETATM    4  C6  UNL     1      23.905   2.259  51.258  1.00  0.00     0.090 A 
HETATM    5  N1  UNL     1      25.211   2.374  51.055  1.00  0.00    -0.344 N 
HETATM    6  C7  UNL     1      25.877   3.296  50.150  1.00  0.00     0.157 C 
HETATM    7  C8  UNL     1      25.782   1.458  51.864  1.00  0.00     0.045 A 
HETATM    8  C9  UNL     1      27.098   1.120  52.080  1.00  0.00     0.030 A 
HETATM    9  C10 UNL     1      27.452   0.131  52.973  1.00  0.00     0.002 A 
HETATM   10  C11 UNL     1      26.502  -0.573  53.698  1.00  0.00     0.001 A 
HETATM   11  C12 UNL     1      25.187  -0.219  53.466  1.00  0.00     0.014 A 
HETATM   12  C13 UNL     1      24.814   0.767  52.577  1.00  0.00    -0.000 A 
HETATM   13  S1  UNL     1      22.787   3.319  50.355  1.00  0.00    -0.037 SA
HETATM   14  S2  UNL     1      21.751   2.076  48.951  1.00  0.00    -0.071 SA
HETATM   15  C14 UNL     1      20.502   1.160  49.896  1.00  0.00     0.202 C 
HETATM   16  N2  UNL     1      21.161   0.255  50.804  1.00  0.00    -0.400 N 
HETATM   17  H16 UNL     1      22.039  -0.151  50.476  1.00  0.00     0.154 HD
ENDROOT
BRANCH   1  18
HETATM   18  C2  UNL     1      20.226  -0.210  52.927  1.00  0.00     0.281 C 
HETATM   19  O2  UNL     1      20.604  -0.974  53.880  1.00  0.00    -0.263 OA
BRANCH  18  20
HETATM   20  O1  UNL     1      18.922  -0.125  52.453  1.00  0.00    -0.325 OA
HETATM   21  C1  UNL     1      17.890  -1.017  52.841  1.00  0.00     0.213 C 
ENDBRANCH  18  20
ENDBRANCH   1  18
TORSDOF 2
ENDMDL
MODEL 9
REMARK VINA RESULT:      -6.7      4.830      6.631
REMARK  2 active torsions:
REMARK  status: ('A' for Active; 'I' for Inactive)
REMARK    1  A    between atoms: O1_2  and  C2_3 
REMARK    2  A    between atoms: C2_3  and  C3_5 
ROOT
HETATM    1  C3  UNL     1      29.313   7.772  48.207  1.00  0.00     0.182 C 
HETATM    2  C4  UNL     1      28.591   6.460  48.200  1.00  0.00     0.077 C 
HETATM    3  C5  UNL     1      27.135   6.531  48.293  1.00  0.00    -0.009 A 
HETATM    4  C6  UNL     1      26.046   7.353  48.064  1.00  0.00     0.090 A 
HETATM    5  N1  UNL     1      24.885   6.793  48.378  1.00  0.00    -0.344 N 
HETATM    6  C7  UNL     1      23.566   7.390  48.255  1.00  0.00     0.157 C 
HETATM    7  C8  UNL     1      25.192   5.560  48.830  1.00  0.00     0.045 A 
HETATM    8  C9  UNL     1      24.404   4.532  49.294  1.00  0.00     0.030 A 
HETATM    9  C10 UNL     1      24.950   3.336  49.712  1.00  0.00     0.002 A 
HETATM   10  C11 UNL     1      26.318   3.109  49.686  1.00  0.00     0.001 A 
HETATM   11  C12 UNL     1      27.091   4.153  49.218  1.00  0.00     0.014 A 
HETATM   12  C13 UNL     1      26.564   5.356  48.796  1.00  0.00    -0.000 A 
HETATM   13  S1  UNL     1      26.063   9.018  47.419  1.00  0.00    -0.037 SA
HETATM   14  S2  UNL     1      26.915  10.265  48.939  1.00  0.00    -0.071 SA
HETATM   15  C14 UNL     1      28.706   9.975  48.901  1.00  0.00     0.202 C 
HETATM   16  N2  UNL     1      28.977   8.620  49.312  1.00  0.00    -0.400 N 
HETATM   17  H16 UNL     1      28.351   8.230  50.019  1.00  0.00     0.154 HD
ENDROOT
BRANCH   1  18
HETATM   18  C2  UNL     1      30.772   7.411  48.356  1.00  0.00     0.281 C 
HETATM   19  O2  UNL     1      31.741   8.243  48.283  1.00  0.00    -0.263 OA
BRANCH  18  20
HETATM   20  O1  UNL     1      30.916   6.048  48.584  1.00  0.00    -0.325 OA
HETATM   21  C1  UNL     1      32.163   5.428  48.851  1.00  0.00     0.213 C 
ENDBRANCH  18  20
ENDBRANCH   1  18
TORSDOF 2
ENDMDL
