MODEL 1
REMARK VINA RESULT:      -8.9      0.000      0.000
REMARK  5 active torsions:
REMARK  status: ('A' for Active; 'I' for Inactive)
REMARK    1  A    between atoms: N1_2  and  C3_4 
REMARK    2  A    between atoms: C3_4  and  C4_5 
REMARK    3  A    between atoms: C5_6  and  N2_8 
REMARK    4  A    between atoms: C9_12  and  N3_13 
REMARK    5  A    between atoms: N3_13  and  C10_14 
ROOT
HETATM    1  N2  UNL     1      24.090  -0.997  53.805  1.00  0.00     0.001 N 
HETATM    2  C6  UNL     1      22.707  -0.960  54.799  1.00  0.00     0.202 A 
HETATM    3  C7  UNL     1      22.528  -0.501  53.105  1.00  0.00     0.111 A 
HETATM    4  C8  UNL     1      21.220  -0.028  52.267  1.00  0.00    -0.030 A 
HETATM    5  C9  UNL     1      20.538   0.329  51.310  1.00  0.00     0.058 C 
HETATM    6  C16 UNL     1      19.137   0.589  51.421  1.00  0.00     0.082 C 
HETATM    7  C17 UNL     1      18.767   1.670  50.574  1.00  0.00     0.102 C 
HETATM    8  N4  UNL     1      18.448   2.540  49.881  1.00  0.00    -0.191 NA
HETATM    9  C18 UNL     1      18.548  -0.200  52.227  1.00  0.00    -0.005 C 
HETATM   10  C19 UNL     1      19.063  -0.818  53.177  1.00  0.00    -0.003 C 
HETATM   11  C20 UNL     1      20.076   0.063  53.675  1.00  0.00     0.059 A 
HETATM   12  C21 UNL     1      21.153  -0.361  54.160  1.00  0.00     0.065 A 
HETATM   13  P1  UNL     1      22.197  -0.766  54.599  1.00  0.00     0.074 P 
HETATM   14  H11 UNL     1      24.833  -1.289  52.994  1.00  0.00     0.294 HD
HETATM   15  H20 UNL     1      24.192  -1.570  55.504  1.00  0.00     0.081 HD
ENDROOT
BRANCH   5  16
HETATM   16  N3  UNL     1      21.552   0.309  50.351  1.00  0.00    -0.355 N 
HETATM   17  H13 UNL     1      22.057  -0.584  50.075  1.00  0.00     0.166 HD
BRANCH  16  18
HETATM   18  C10 UNL     1      21.996   1.487  49.659  1.00  0.00     0.033 A 
HETATM   19  C11 UNL     1      21.796   1.697  48.303  1.00  0.00     0.029 A 
HETATM   20  C12 UNL     1      22.271   2.868  47.757  1.00  0.00     0.004 A 
HETATM   21  C13 UNL     1      22.927   3.850  48.439  1.00  0.00     0.019 A 
HETATM   22  C14 UNL     1      23.124   3.632  49.799  1.00  0.00     0.013 A 
HETATM   23 BR1  UNL     1      24.039   4.974  50.803  1.00  0.00    -0.051 Br
HETATM   24  C15 UNL     1      22.661   2.470  50.374  1.00  0.00     0.048 A 
ENDBRANCH  16  18
ENDBRANCH   5  16
BRANCH   1  25
HETATM   25  C5  UNL     1      25.229  -0.099  54.011  1.00  0.00     0.246 A 
HETATM   26  C4  UNL     1      26.337   0.789  54.210  1.00  0.00     0.268 A 
HETATM   27  O1  UNL     1      26.199  -0.807  54.530  1.00  0.00    -0.324 OA
BRANCH  26  28
HETATM   28  C3  UNL     1      27.589   0.207  54.788  1.00  0.00     0.303 C 
BRANCH  28  29
HETATM   29  N1  UNL     1      28.755   0.970  54.370  1.00  0.00     0.082 N 
HETATM   30  C1  UNL     1      29.695   0.137  53.647  1.00  0.00     0.309 C 
HETATM   31  C2  UNL     1      28.391   2.132  53.599  1.00  0.00     0.309 C 
ENDBRANCH  28  29
ENDBRANCH  26  28
ENDBRANCH   1  25
TORSDOF 5
ENDMDL
MODEL 2
REMARK VINA RESULT:      -8.5      5.648      8.114
REMARK  5 active torsions:
REMARK  status: ('A' for Active; 'I' for Inactive)
REMARK    1  A    between atoms: N1_2  and  C3_4 
REMARK    2  A    between atoms: C3_4  and  C4_5 
REMARK    3  A    between atoms: C5_6  and  N2_8 
REMARK    4  A    between atoms: C9_12  and  N3_13 
REMARK    5  A    between atoms: N3_13  and  C10_14 
ROOT
HETATM    1  N2  UNL     1      29.272   6.102  48.982  1.00  0.00     0.001 N 
HETATM    2  C6  UNL     1      28.125   7.213  48.386  1.00  0.00     0.202 A 
HETATM    3  C7  UNL     1      27.552   5.639  48.942  1.00  0.00     0.111 A 
HETATM    4  C8  UNL     1      26.053   5.017  48.999  1.00  0.00    -0.030 A 
HETATM    5  C9  UNL     1      25.154   4.213  49.227  1.00  0.00     0.058 C 
HETATM    6  C16 UNL     1      23.783   4.493  48.935  1.00  0.00     0.082 C 
HETATM    7  C17 UNL     1      23.119   3.313  48.500  1.00  0.00     0.102 C 
HETATM    8  N4  UNL     1      22.561   2.358  48.158  1.00  0.00    -0.191 NA
HETATM    9  C18 UNL     1      23.471   5.710  49.138  1.00  0.00    -0.005 C 
HETATM   10  C19 UNL     1      24.239   6.689  49.131  1.00  0.00    -0.003 C 
HETATM   11  C20 UNL     1      25.216   6.375  48.132  1.00  0.00     0.059 A 
HETATM   12  C21 UNL     1      26.412   6.741  48.227  1.00  0.00     0.065 A 
HETATM   13  P1  UNL     1      27.565   7.067  48.331  1.00  0.00     0.074 P 
HETATM   14  H11 UNL     1      29.866   5.430  49.682  1.00  0.00     0.294 HD
HETATM   15  H20 UNL     1      29.785   7.760  48.518  1.00  0.00     0.081 HD
ENDROOT
BRANCH   5  16
HETATM   16  N3  UNL     1      25.946   3.209  49.785  1.00  0.00    -0.355 N 
HETATM   17  H13 UNL     1      26.650   2.656  49.213  1.00  0.00     0.166 HD
BRANCH  16  18
HETATM   18  C10 UNL     1      25.878   2.840  51.171  1.00  0.00     0.033 A 
HETATM   19  C11 UNL     1      24.760   3.050  51.964  1.00  0.00     0.029 A 
HETATM   20  C12 UNL     1      24.820   2.651  53.280  1.00  0.00     0.004 A 
HETATM   21  C13 UNL     1      25.894   2.062  53.879  1.00  0.00     0.019 A 
HETATM   22  C14 UNL     1      27.012   1.855  53.078  1.00  0.00     0.013 A 
HETATM   23 BR1  UNL     1      28.545   1.033  53.868  1.00  0.00    -0.051 Br
HETATM   24  C15 UNL     1      26.982   2.243  51.758  1.00  0.00     0.048 A 
ENDBRANCH  16  18
ENDBRANCH   5  16
BRANCH   1  25
HETATM   25  C5  UNL     1      30.310   5.514  48.132  1.00  0.00     0.246 A 
HETATM   26  C4  UNL     1      31.318   4.941  47.290  1.00  0.00     0.268 A 
HETATM   27  O1  UNL     1      31.336   5.241  48.896  1.00  0.00    -0.324 OA
BRANCH  26  28
HETATM   28  C3  UNL     1      32.602   4.526  47.939  1.00  0.00     0.303 C 
BRANCH  28  29
HETATM   29  N1  UNL     1      33.345   3.616  47.082  1.00  0.00     0.082 N 
HETATM   30  C1  UNL     1      34.681   3.385  47.595  1.00  0.00     0.309 C 
HETATM   31  C2  UNL     1      32.645   2.372  46.881  1.00  0.00     0.309 C 
ENDBRANCH  28  29
ENDBRANCH  26  28
ENDBRANCH   1  25
TORSDOF 5
ENDMDL
MODEL 3
REMARK VINA RESULT:      -8.2      2.767      6.777
REMARK  5 active torsions:
REMARK  status: ('A' for Active; 'I' for Inactive)
REMARK    1  A    between atoms: N1_2  and  C3_4 
REMARK    2  A    between atoms: C3_4  and  C4_5 
REMARK    3  A    between atoms: C5_6  and  N2_8 
REMARK    4  A    between atoms: C9_12  and  N3_13 
REMARK    5  A    between atoms: N3_13  and  C10_14 
ROOT
HETATM    1  N2  UNL     1      20.272  -0.128  54.016  1.00  0.00     0.001 N 
HETATM    2  C6  UNL     1      21.473  -1.302  54.302  1.00  0.00     0.202 A 
HETATM    3  C7  UNL     1      21.978   0.278  53.698  1.00  0.00     0.111 A 
HETATM    4  C8  UNL     1      23.454   0.857  53.347  1.00  0.00    -0.030 A 
HETATM    5  C9  UNL     1      24.320   1.655  53.001  1.00  0.00     0.058 C 
HETATM    6  C16 UNL     1      25.708   1.318  52.976  1.00  0.00     0.082 C 
HETATM    7  C17 UNL     1      26.353   1.958  51.881  1.00  0.00     0.102 C 
HETATM    8  N4  UNL     1      26.894   2.482  51.003  1.00  0.00    -0.191 NA
HETATM    9  C18 UNL     1      26.049   0.545  53.928  1.00  0.00    -0.005 C 
HETATM   10  C19 UNL     1      25.311  -0.236  54.557  1.00  0.00    -0.003 C 
HETATM   11  C20 UNL     1      24.364  -0.696  53.587  1.00  0.00     0.059 A 
HETATM   12  C21 UNL     1      23.176  -0.968  53.888  1.00  0.00     0.065 A 
HETATM   13  P1  UNL     1      22.031  -1.201  54.170  1.00  0.00     0.074 P 
HETATM   14  H11 UNL     1      19.632   0.809  54.100  1.00  0.00     0.294 HD
HETATM   15  H20 UNL     1      19.827  -1.709  54.744  1.00  0.00     0.081 HD
ENDROOT
BRANCH   5  16
HETATM   16  N3  UNL     1      23.477   2.741  52.760  1.00  0.00    -0.355 N 
HETATM   17  H13 UNL     1      22.838   3.142  53.508  1.00  0.00     0.166 HD
BRANCH  16  18
HETATM   18  C10 UNL     1      23.401   3.404  51.489  1.00  0.00     0.033 A 
HETATM   19  C11 UNL     1      23.708   4.745  51.307  1.00  0.00     0.029 A 
HETATM   20  C12 UNL     1      23.595   5.264  50.037  1.00  0.00     0.004 A 
HETATM   21  C13 UNL     1      23.204   4.568  48.930  1.00  0.00     0.019 A 
HETATM   22  C14 UNL     1      22.898   3.225  49.120  1.00  0.00     0.013 A 
HETATM   23 BR1  UNL     1      22.344   2.205  47.604  1.00  0.00    -0.051 Br
HETATM   24  C15 UNL     1      23.001   2.678  50.379  1.00  0.00     0.048 A 
ENDBRANCH  16  18
ENDBRANCH   5  16
BRANCH   1  25
HETATM   25  C5  UNL     1      19.250  -0.288  52.979  1.00  0.00     0.246 A 
HETATM   26  C4  UNL     1      18.258  -0.441  51.956  1.00  0.00     0.268 A 
HETATM   27  O1  UNL     1      18.175  -0.758  53.556  1.00  0.00    -0.324 OA
BRANCH  26  28
HETATM   28  C3  UNL     1      16.916  -0.959  52.371  1.00  0.00     0.303 C 
BRANCH  28  29
HETATM   29  N1  UNL     1      15.982  -0.930  51.256  1.00  0.00     0.082 N 
HETATM   30  C1  UNL     1      14.766  -0.224  51.608  1.00  0.00     0.309 C 
HETATM   31  C2  UNL     1      16.579  -0.376  50.067  1.00  0.00     0.309 C 
ENDBRANCH  28  29
ENDBRANCH  26  28
ENDBRANCH   1  25
TORSDOF 5
ENDMDL
MODEL 4
REMARK VINA RESULT:      -8.0      3.814      5.417
REMARK  5 active torsions:
REMARK  status: ('A' for Active; 'I' for Inactive)
REMARK    1  A    between atoms: N1_2  and  C3_4 
REMARK    2  A    between atoms: C3_4  and  C4_5 
REMARK    3  A    between atoms: C5_6  and  N2_8 
REMARK    4  A    between atoms: C9_12  and  N3_13 
REMARK    5  A    between atoms: N3_13  and  C10_14 
ROOT
HETATM    1  N2  UNL     1      26.534   2.649  50.179  1.00  0.00     0.001 N 
HETATM    2  C6  UNL     1      27.086   2.167  51.717  1.00  0.00     0.202 A 
HETATM    3  C7  UNL     1      25.407   1.832  51.290  1.00  0.00     0.111 A 
HETATM    4  C8  UNL     1      24.223   1.107  52.133  1.00  0.00    -0.030 A 
HETATM    5  C9  UNL     1      23.117   0.637  52.385  1.00  0.00     0.058 C 
HETATM    6  C16 UNL     1      22.815   0.014  53.635  1.00  0.00     0.082 C 
HETATM    7  C17 UNL     1      21.474   0.294  54.016  1.00  0.00     0.102 C 
HETATM    8  N4  UNL     1      20.380   0.502  54.332  1.00  0.00    -0.191 NA
HETATM    9  C18 UNL     1      23.793  -0.648  54.109  1.00  0.00    -0.005 C 
HETATM   10  C19 UNL     1      25.002  -0.471  53.868  1.00  0.00    -0.003 C 
HETATM   11  C20 UNL     1      25.132   0.944  53.697  1.00  0.00     0.059 A 
HETATM   12  C21 UNL     1      25.955   1.449  52.895  1.00  0.00     0.065 A 
HETATM   13  P1  UNL     1      26.724   1.932  52.107  1.00  0.00     0.074 P 
HETATM   14  H11 UNL     1      26.153   2.620  49.107  1.00  0.00     0.294 HD
HETATM   15  H20 UNL     1      28.264   2.856  50.617  1.00  0.00     0.081 HD
ENDROOT
BRANCH   5  16
HETATM   16  N3  UNL     1      22.518   0.920  51.157  1.00  0.00    -0.355 N 
HETATM   17  H13 UNL     1      22.428   0.193  50.387  1.00  0.00     0.166 HD
BRANCH  16  18
HETATM   18  C10 UNL     1      21.976   2.209  50.830  1.00  0.00     0.033 A 
HETATM   19  C11 UNL     1      21.101   2.901  51.654  1.00  0.00     0.029 A 
HETATM   20  C12 UNL     1      20.651   4.130  51.227  1.00  0.00     0.004 A 
HETATM   21  C13 UNL     1      20.995   4.733  50.053  1.00  0.00     0.019 A 
HETATM   22  C14 UNL     1      21.872   4.034  49.232  1.00  0.00     0.013 A 
HETATM   23 BR1  UNL     1      22.386   4.833  47.575  1.00  0.00    -0.051 Br
HETATM   24  C15 UNL     1      22.339   2.802  49.631  1.00  0.00     0.048 A 
ENDBRANCH  16  18
ENDBRANCH   5  16
BRANCH   1  25
HETATM   25  C5  UNL     1      26.438   4.058  49.786  1.00  0.00     0.246 A 
HETATM   26  C4  UNL     1      26.334   5.436  49.409  1.00  0.00     0.268 A 
HETATM   27  O1  UNL     1      27.456   4.319  49.007  1.00  0.00    -0.324 OA
BRANCH  26  28
HETATM   28  C3  UNL     1      27.389   5.982  48.497  1.00  0.00     0.303 C 
BRANCH  28  29
HETATM   29  N1  UNL     1      27.402   7.435  48.532  1.00  0.00     0.082 N 
HETATM   30  C1  UNL     1      26.620   7.941  49.643  1.00  0.00     0.309 C 
HETATM   31  C2  UNL     1      28.744   7.962  48.560  1.00  0.00     0.309 C 
ENDBRANCH  28  29
ENDBRANCH  26  28
ENDBRANCH   1  25
TORSDOF 5
ENDMDL
MODEL 5
REMARK VINA RESULT:      -8.0      4.054      5.910
REMARK  5 active torsions:
REMARK  status: ('A' for Active; 'I' for Inactive)
REMARK    1  A    between atoms: N1_2  and  C3_4 
REMARK    2  A    between atoms: C3_4  and  C4_5 
REMARK    3  A    between atoms: C5_6  and  N2_8 
REMARK    4  A    between atoms: C9_12  and  N3_13 
REMARK    5  A    between atoms: N3_13  and  C10_14 
ROOT
HETATM    1  N2  UNL     1      26.301   2.895  50.068  1.00  0.00     0.001 N 
HETATM    2  C6  UNL     1      26.989   2.356  51.530  1.00  0.00     0.202 A 
HETATM    3  C7  UNL     1      25.293   1.983  51.219  1.00  0.00     0.111 A 
HETATM    4  C8  UNL     1      24.204   1.175  52.112  1.00  0.00    -0.030 A 
HETATM    5  C9  UNL     1      23.137   0.653  52.424  1.00  0.00     0.058 C 
HETATM    6  C16 UNL     1      22.955  -0.042  53.659  1.00  0.00     0.082 C 
HETATM    7  C17 UNL     1      21.640   0.170  54.157  1.00  0.00     0.102 C 
HETATM    8  N4  UNL     1      20.570   0.323  54.569  1.00  0.00    -0.191 NA
HETATM    9  C18 UNL     1      23.988  -0.692  54.019  1.00  0.00    -0.005 C 
HETATM   10  C19 UNL     1      25.167  -0.460  53.694  1.00  0.00    -0.003 C 
HETATM   11  C20 UNL     1      25.239   0.966  53.589  1.00  0.00     0.059 A 
HETATM   12  C21 UNL     1      25.979   1.539  52.753  1.00  0.00     0.065 A 
HETATM   13  P1  UNL     1      26.668   2.089  51.934  1.00  0.00     0.074 P 
HETATM   14  H11 UNL     1      25.837   2.907  49.029  1.00  0.00     0.294 HD
HETATM   15  H20 UNL     1      28.053   3.141  50.380  1.00  0.00     0.081 HD
ENDROOT
BRANCH   5  16
HETATM   16  N3  UNL     1      22.433   0.976  51.263  1.00  0.00    -0.355 N 
HETATM   17  H13 UNL     1      22.834   0.820  50.292  1.00  0.00     0.166 HD
BRANCH  16  18
HETATM   18  C10 UNL     1      21.114   1.545  51.281  1.00  0.00     0.033 A 
HETATM   19  C11 UNL     1      20.841   2.827  51.734  1.00  0.00     0.029 A 
HETATM   20  C12 UNL     1      19.534   3.257  51.700  1.00  0.00     0.004 A 
HETATM   21  C13 UNL     1      18.472   2.524  51.257  1.00  0.00     0.019 A 
HETATM   22  C14 UNL     1      18.753   1.239  50.805  1.00  0.00     0.013 A 
HETATM   23 BR1  UNL     1      17.303   0.169  50.174  1.00  0.00    -0.051 Br
HETATM   24  C15 UNL     1      20.051   0.781  50.827  1.00  0.00     0.048 A 
ENDBRANCH  16  18
ENDBRANCH   5  16
BRANCH   1  25
HETATM   25  C5  UNL     1      26.130   4.317  49.759  1.00  0.00     0.246 A 
HETATM   26  C4  UNL     1      25.952   5.709  49.465  1.00  0.00     0.268 A 
HETATM   27  O1  UNL     1      27.105   4.667  48.961  1.00  0.00    -0.324 OA
BRANCH  26  28
HETATM   28  C3  UNL     1      26.947   6.350  48.549  1.00  0.00     0.303 C 
BRANCH  28  29
HETATM   29  N1  UNL     1      27.018   7.784  48.783  1.00  0.00     0.082 N 
HETATM   30  C1  UNL     1      26.398   8.141  50.044  1.00  0.00     0.309 C 
HETATM   31  C2  UNL     1      28.371   8.276  48.714  1.00  0.00     0.309 C 
ENDBRANCH  28  29
ENDBRANCH  26  28
ENDBRANCH   1  25
TORSDOF 5
ENDMDL
MODEL 6
REMARK VINA RESULT:      -8.0      3.763      7.393
REMARK  5 active torsions:
REMARK  status: ('A' for Active; 'I' for Inactive)
REMARK    1  A    between atoms: N1_2  and  C3_4 
REMARK    2  A    between atoms: C3_4  and  C4_5 
REMARK    3  A    between atoms: C5_6  and  N2_8 
REMARK    4  A    between atoms: C9_12  and  N3_13 
REMARK    5  A    between atoms: N3_13  and  C10_14 
ROOT
HETATM    1  N2  UNL     1      24.644   3.820  50.208  1.00  0.00     0.001 N 
HETATM    2  C6  UNL     1      26.171   3.068  50.141  1.00  0.00     0.202 A 
HETATM    3  C7  UNL     1      25.007   2.488  51.334  1.00  0.00     0.111 A 
HETATM    4  C8  UNL     1      25.122   1.305  52.439  1.00  0.00    -0.030 A 
HETATM    5  C9  UNL     1      24.788   0.541  53.341  1.00  0.00     0.058 C 
HETATM    6  C16 UNL     1      25.665  -0.458  53.865  1.00  0.00     0.082 C 
HETATM    7  C17 UNL     1      25.460  -0.612  55.263  1.00  0.00     0.102 C 
HETATM    8  N4  UNL     1      25.295  -0.759  56.399  1.00  0.00    -0.191 NA
HETATM    9  C18 UNL     1      26.408  -0.982  52.974  1.00  0.00    -0.005 C 
HETATM   10  C19 UNL     1      26.750  -0.472  51.892  1.00  0.00    -0.003 C 
HETATM   11  C20 UNL     1      26.878   0.925  52.176  1.00  0.00     0.059 A 
HETATM   12  C21 UNL     1      26.608   1.809  51.328  1.00  0.00     0.065 A 
HETATM   13  P1  UNL     1      26.322   2.657  50.524  1.00  0.00     0.074 P 
HETATM   14  H11 UNL     1      23.524   4.005  50.132  1.00  0.00     0.294 HD
HETATM   15  H20 UNL     1      25.821   4.289  48.934  1.00  0.00     0.081 HD
ENDROOT
BRANCH   5  16
HETATM   16  N3  UNL     1      23.483   1.010  53.498  1.00  0.00    -0.355 N 
HETATM   17  H13 UNL     1      23.253   2.045  53.559  1.00  0.00     0.166 HD
BRANCH  16  18
HETATM   18  C10 UNL     1      22.345   0.138  53.592  1.00  0.00     0.033 A 
HETATM   19  C11 UNL     1      22.301  -0.975  54.418  1.00  0.00     0.029 A 
HETATM   20  C12 UNL     1      21.152  -1.732  54.418  1.00  0.00     0.004 A 
HETATM   21  C13 UNL     1      20.040  -1.480  53.668  1.00  0.00     0.019 A 
HETATM   22  C14 UNL     1      20.091  -0.363  52.842  1.00  0.00     0.013 A 
HETATM   23 BR1  UNL     1      18.561   0.035  51.770  1.00  0.00    -0.051 Br
HETATM   24  C15 UNL     1      21.228   0.413  52.820  1.00  0.00     0.048 A 
ENDBRANCH  16  18
ENDBRANCH   5  16
BRANCH   1  25
HETATM   25  C5  UNL     1      24.476   5.221  50.605  1.00  0.00     0.246 A 
HETATM   26  C4  UNL     1      24.313   6.587  51.005  1.00  0.00     0.268 A 
HETATM   27  O1  UNL     1      24.354   5.927  49.511  1.00  0.00    -0.324 OA
BRANCH  26  28
HETATM   28  C3  UNL     1      24.139   7.605  49.921  1.00  0.00     0.303 C 
BRANCH  28  29
HETATM   29  N1  UNL     1      22.943   8.402  50.146  1.00  0.00     0.082 N 
HETATM   30  C1  UNL     1      22.540   9.097  48.940  1.00  0.00     0.309 C 
HETATM   31  C2  UNL     1      21.860   7.612  50.675  1.00  0.00     0.309 C 
ENDBRANCH  28  29
ENDBRANCH  26  28
ENDBRANCH   1  25
TORSDOF 5
ENDMDL
MODEL 7
REMARK VINA RESULT:      -7.8      2.898      5.032
REMARK  5 active torsions:
REMARK  status: ('A' for Active; 'I' for Inactive)
REMARK    1  A    between atoms: N1_2  and  C3_4 
REMARK    2  A    between atoms: C3_4  and  C4_5 
REMARK    3  A    between atoms: C5_6  and  N2_8 
REMARK    4  A    between atoms: C9_12  and  N3_13 
REMARK    5  A    between atoms: N3_13  and  C10_14 
ROOT
HETATM    1  N2  UNL     1      25.902   3.227  51.550  1.00  0.00     0.001 N 
HETATM    2  C6  UNL     1      25.663   3.677  49.924  1.00  0.00     0.202 A 
HETATM    3  C7  UNL     1      24.241   3.405  50.932  1.00  0.00     0.111 A 
HETATM    4  C8  UNL     1      22.658   3.511  50.583  1.00  0.00    -0.030 A 
HETATM    5  C9  UNL     1      21.443   3.491  50.754  1.00  0.00     0.058 C 
HETATM    6  C16 UNL     1      20.516   3.785  49.706  1.00  0.00     0.082 C 
HETATM    7  C17 UNL     1      19.356   2.971  49.830  1.00  0.00     0.102 C 
HETATM    8  N4  UNL     1      18.400   2.326  49.925  1.00  0.00    -0.191 NA
HETATM    9  C18 UNL     1      20.926   4.700  48.923  1.00  0.00    -0.005 C 
HETATM   10  C19 UNL     1      22.109   5.026  48.710  1.00  0.00    -0.003 C 
HETATM   11  C20 UNL     1      22.843   3.801  48.800  1.00  0.00     0.059 A 
HETATM   12  C21 UNL     1      24.016   3.754  49.243  1.00  0.00     0.065 A 
HETATM   13  P1  UNL     1      25.130   3.705  49.694  1.00  0.00     0.074 P 
HETATM   14  H11 UNL     1      25.926   3.249  52.687  1.00  0.00     0.294 HD
HETATM   15  H20 UNL     1      27.313   3.635  50.515  1.00  0.00     0.081 HD
ENDROOT
BRANCH   5  16
HETATM   16  N3  UNL     1      21.457   3.165  52.110  1.00  0.00    -0.355 N 
HETATM   17  H13 UNL     1      21.496   3.904  52.873  1.00  0.00     0.166 HD
BRANCH  16  18
HETATM   18  C10 UNL     1      21.422   1.812  52.590  1.00  0.00     0.033 A 
HETATM   19  C11 UNL     1      22.547   1.124  53.021  1.00  0.00     0.029 A 
HETATM   20  C12 UNL     1      22.381  -0.170  53.458  1.00  0.00     0.004 A 
HETATM   21  C13 UNL     1      21.195  -0.844  53.504  1.00  0.00     0.019 A 
HETATM   22  C14 UNL     1      20.072  -0.148  53.070  1.00  0.00     0.013 A 
HETATM   23 BR1  UNL     1      18.386  -1.044  53.113  1.00  0.00    -0.051 Br
HETATM   24  C15 UNL     1      20.206   1.148  52.627  1.00  0.00     0.048 A 
ENDBRANCH  16  18
ENDBRANCH   5  16
BRANCH   1  25
HETATM   25  C5  UNL     1      26.515   1.951  51.928  1.00  0.00     0.246 A 
HETATM   26  C4  UNL     1      27.109   0.698  52.290  1.00  0.00     0.268 A 
HETATM   27  O1  UNL     1      27.355   2.192  52.902  1.00  0.00    -0.324 OA
BRANCH  26  28
HETATM   28  C3  UNL     1      28.109   0.706  53.404  1.00  0.00     0.303 C 
BRANCH  28  29
HETATM   29  N1  UNL     1      28.496  -0.649  53.762  1.00  0.00     0.082 N 
HETATM   30  C1  UNL     1      27.736  -1.629  53.011  1.00  0.00     0.309 C 
HETATM   31  C2  UNL     1      29.913  -0.864  53.607  1.00  0.00     0.309 C 
ENDBRANCH  28  29
ENDBRANCH  26  28
ENDBRANCH   1  25
TORSDOF 5
ENDMDL
MODEL 8
REMARK VINA RESULT:      -7.6      2.890      6.539
REMARK  5 active torsions:
REMARK  status: ('A' for Active; 'I' for Inactive)
REMARK    1  A    between atoms: N1_2  and  C3_4 
REMARK    2  A    between atoms: C3_4  and  C4_5 
REMARK    3  A    between atoms: C5_6  and  N2_8 
REMARK    4  A    between atoms: C9_12  and  N3_13 
REMARK    5  A    between atoms: N3_13  and  C10_14 
ROOT
HETATM    1  N2  UNL     1      19.731   2.575  52.275  1.00  0.00     0.001 N 
HETATM    2  C6  UNL     1      19.782   0.883  52.468  1.00  0.00     0.202 A 
HETATM    3  C7  UNL     1      21.292   1.784  52.606  1.00  0.00     0.111 A 
HETATM    4  C8  UNL     1      22.806   1.276  52.902  1.00  0.00    -0.030 A 
HETATM    5  C9  UNL     1      24.015   1.333  53.107  1.00  0.00     0.058 C 
HETATM    6  C16 UNL     1      24.807   0.170  53.358  1.00  0.00     0.082 C 
HETATM    7  C17 UNL     1      26.096   0.314  52.774  1.00  0.00     0.102 C 
HETATM    8  N4  UNL     1      27.153   0.422  52.316  1.00  0.00    -0.191 NA
HETATM    9  C18 UNL     1      24.194  -0.708  54.045  1.00  0.00    -0.005 C 
HETATM   10  C19 UNL     1      22.962  -0.859  54.136  1.00  0.00    -0.003 C 
HETATM   11  C20 UNL     1      22.458  -0.505  52.843  1.00  0.00     0.059 A 
HETATM   12  C21 UNL     1      21.343   0.047  52.688  1.00  0.00     0.065 A 
HETATM   13  P1  UNL     1      20.286   0.602  52.540  1.00  0.00     0.074 P 
HETATM   14  H11 UNL     1      19.778   3.691  52.491  1.00  0.00     0.294 HD
HETATM   15  H20 UNL     1      18.206   1.624  52.266  1.00  0.00     0.081 HD
ENDROOT
BRANCH   5  16
HETATM   16  N3  UNL     1      24.146   2.720  53.024  1.00  0.00    -0.355 N 
HETATM   17  H13 UNL     1      24.217   3.337  53.885  1.00  0.00     0.166 HD
BRANCH  16  18
HETATM   18  C10 UNL     1      24.194   3.428  51.775  1.00  0.00     0.033 A 
HETATM   19  C11 UNL     1      24.834   2.940  50.645  1.00  0.00     0.029 A 
HETATM   20  C12 UNL     1      24.810   3.715  49.507  1.00  0.00     0.004 A 
HETATM   21  C13 UNL     1      24.206   4.933  49.393  1.00  0.00     0.019 A 
HETATM   22  C14 UNL     1      23.567   5.415  50.529  1.00  0.00     0.013 A 
HETATM   23 BR1  UNL     1      22.706   7.116  50.424  1.00  0.00    -0.051 Br
HETATM   24  C15 UNL     1      23.574   4.663  51.683  1.00  0.00     0.048 A 
ENDBRANCH  16  18
ENDBRANCH   5  16
BRANCH   1  25
HETATM   25  C5  UNL     1      19.374   3.209  51.004  1.00  0.00     0.246 A 
HETATM   26  C4  UNL     1      19.020   3.819  49.756  1.00  0.00     0.268 A 
HETATM   27  O1  UNL     1      19.787   4.449  51.054  1.00  0.00    -0.324 OA
BRANCH  26  28
HETATM   28  C3  UNL     1      19.401   5.254  49.560  1.00  0.00     0.303 C 
BRANCH  28  29
HETATM   29  N1  UNL     1      19.285   5.633  48.161  1.00  0.00     0.082 N 
HETATM   30  C1  UNL     1      20.582   5.663  47.515  1.00  0.00     0.309 C 
HETATM   31  C2  UNL     1      18.369   4.780  47.445  1.00  0.00     0.309 C 
ENDBRANCH  28  29
ENDBRANCH  26  28
ENDBRANCH   1  25
TORSDOF 5
ENDMDL
MODEL 9
REMARK VINA RESULT:      -7.4      2.701      3.691
REMARK  5 active torsions:
REMARK  status: ('A' for Active; 'I' for Inactive)
REMARK    1  A    between atoms: N1_2  and  C3_4 
REMARK    2  A    between atoms: C3_4  and  C4_5 
REMARK    3  A    between atoms: C5_6  and  N2_8 
REMARK    4  A    between atoms: C9_12  and  N3_13 
REMARK    5  A    between atoms: N3_13  and  C10_14 
ROOT
HETATM    1  N2  UNL     1      24.050   0.593  51.959  1.00  0.00     0.001 N 
HETATM    2  C6  UNL     1      22.775   1.089  52.975  1.00  0.00     0.202 A 
HETATM    3  C7  UNL     1      23.009   1.947  51.450  1.00  0.00     0.111 A 
HETATM    4  C8  UNL     1      22.191   3.187  50.795  1.00  0.00    -0.030 A 
HETATM    5  C9  UNL     1      21.868   4.043  49.976  1.00  0.00     0.058 C 
HETATM    6  C16 UNL     1      20.773   4.936  50.191  1.00  0.00     0.082 C 
HETATM    7  C17 UNL     1      21.066   6.217  49.647  1.00  0.00     0.102 C 
HETATM    8  N4  UNL     1      21.284   7.260  49.197  1.00  0.00    -0.191 NA
HETATM    9  C18 UNL     1      19.798   4.388  50.798  1.00  0.00    -0.005 C 
HETATM   10  C19 UNL     1      19.847   3.398  51.551  1.00  0.00    -0.003 C 
HETATM   11  C20 UNL     1      21.109   3.514  52.217  1.00  0.00     0.059 A 
HETATM   12  C21 UNL     1      21.786   2.512  52.550  1.00  0.00     0.065 A 
HETATM   13  P1  UNL     1      22.448   1.551  52.844  1.00  0.00     0.074 P 
HETATM   14  H11 UNL     1      24.627   0.161  51.079  1.00  0.00     0.294 HD
HETATM   15  H20 UNL     1      23.692  -0.323  53.463  1.00  0.00     0.081 HD
ENDROOT
BRANCH   5  16
HETATM   16  N3  UNL     1      22.828   3.737  49.010  1.00  0.00    -0.355 N 
HETATM   17  H13 UNL     1      22.630   3.080  48.200  1.00  0.00     0.166 HD
BRANCH  16  18
HETATM   18  C10 UNL     1      24.157   4.282  49.029  1.00  0.00     0.033 A 
HETATM   19  C11 UNL     1      25.273   3.559  49.421  1.00  0.00     0.029 A 
HETATM   20  C12 UNL     1      26.494   4.195  49.395  1.00  0.00     0.004 A 
HETATM   21  C13 UNL     1      26.703   5.488  49.015  1.00  0.00     0.019 A 
HETATM   22  C14 UNL     1      25.579   6.207  48.624  1.00  0.00     0.013 A 
HETATM   23 BR1  UNL     1      25.816   8.023  48.081  1.00  0.00    -0.051 Br
HETATM   24  C15 UNL     1      24.345   5.598  48.639  1.00  0.00     0.048 A 
ENDBRANCH  16  18
ENDBRANCH   5  16
BRANCH   1  25
HETATM   25  C5  UNL     1      25.457   0.727  52.343  1.00  0.00     0.246 A 
HETATM   26  C4  UNL     1      26.832   0.869  52.721  1.00  0.00     0.268 A 
HETATM   27  O1  UNL     1      25.968  -0.477  52.390  1.00  0.00    -0.324 OA
BRANCH  26  28
HETATM   28  C3  UNL     1      27.649  -0.381  52.832  1.00  0.00     0.303 C 
BRANCH  28  29
HETATM   29  N1  UNL     1      28.889  -0.127  53.548  1.00  0.00     0.082 N 
HETATM   30  C1  UNL     1      28.631   0.350  54.892  1.00  0.00     0.309 C 
HETATM   31  C2  UNL     1      29.749  -1.284  53.564  1.00  0.00     0.309 C 
ENDBRANCH  28  29
ENDBRANCH  26  28
ENDBRANCH   1  25
TORSDOF 5
ENDMDL
