MODEL 1
REMARK VINA RESULT:      -8.6      0.000      0.000
REMARK  1 active torsions:
REMARK  status: ('A' for Active; 'I' for Inactive)
REMARK    1  A    between atoms: O1_2  and  C2_3 
ROOT
HETATM    1  C2  UNL     1      25.632   2.105  52.928  1.00  0.00     0.043 C 
HETATM    2  C3  UNL     1      24.694   1.258  53.326  1.00  0.00     0.013 C 
HETATM    3  C4  UNL     1      23.580   0.418  52.896  1.00  0.00     0.109 C 
HETATM    4  C5  UNL     1      22.892   0.859  51.667  1.00  0.00     0.125 C 
HETATM    5  N1  UNL     1      21.743   0.294  51.798  1.00  0.00    -0.244 NA
HETATM    6  C6  UNL     1      20.738   0.479  50.776  1.00  0.00     0.422 C 
HETATM    7  N2  UNL     1      20.469   1.886  50.650  1.00  0.00     0.110 N 
HETATM    8  C7  UNL     1      20.276   2.274  49.257  1.00  0.00     0.294 C 
HETATM    9  C8  UNL     1      19.804   3.729  49.310  1.00  0.00     0.155 C 
HETATM   10  N3  UNL     1      20.246   4.341  50.550  1.00  0.00    -0.355 N 
HETATM   11  C9  UNL     1      19.415   3.809  51.611  1.00  0.00     0.155 C 
HETATM   12  C10 UNL     1      19.336   2.312  51.429  1.00  0.00     0.294 C 
HETATM   13  C11 UNL     1      21.313   5.298  50.720  1.00  0.00     0.170 C 
HETATM   14  S1  UNL     1      21.643   6.446  49.609  1.00  0.00    -0.041 SA
HETATM   15  N4  UNL     1      22.119   5.241  51.915  1.00  0.00    -0.363 N 
HETATM   16  C12 UNL     1      23.191   6.160  52.138  1.00  0.00     0.161 C 
HETATM   17  C13 UNL     1      24.254   6.131  51.099  1.00  0.00    -0.031 A 
HETATM   18  C14 UNL     1      24.593   7.313  50.447  1.00  0.00     0.012 A 
HETATM   19  C15 UNL     1      25.556   7.449  49.465  1.00  0.00     0.040 A 
HETATM   20  C16 UNL     1      26.218   6.285  49.130  1.00  0.00     0.105 A 
HETATM   21  C17 UNL     1      25.917   5.081  49.751  1.00  0.00     0.112 A 
HETATM   22  C18 UNL     1      24.933   4.982  50.743  1.00  0.00    -0.004 A 
HETATM   23  C19 UNL     1      24.664   3.670  51.358  1.00  0.00     0.069 C 
HETATM   24  C20 UNL     1      23.692   2.886  50.524  1.00  0.00     0.101 C 
HETATM   25  N5  UNL     1      23.260   1.675  50.562  1.00  0.00    -0.249 NA
HETATM   26  C21 UNL     1      25.828   2.806  51.621  1.00  0.00     0.079 C 
HETATM   27  O2  UNL     1      26.724   4.088  49.228  1.00  0.00    -0.322 OA
HETATM   28  C22 UNL     1      27.765   4.750  48.532  1.00  0.00     0.352 C 
HETATM   29  O3  UNL     1      27.225   6.042  48.208  1.00  0.00    -0.323 OA
HETATM   30  H17 UNL     1      21.883   4.489  52.629  1.00  0.00     0.162 HD
ENDROOT
BRANCH   1  31
HETATM   31  O1  UNL     1      26.594   2.380  53.901  1.00  0.00    -0.360 OA
HETATM   32  C1  UNL     1      27.980   2.262  53.641  1.00  0.00     0.209 C 
ENDBRANCH   1  31
TORSDOF 1
ENDMDL
MODEL 2
REMARK VINA RESULT:      -8.5      2.847      4.601
REMARK  1 active torsions:
REMARK  status: ('A' for Active; 'I' for Inactive)
REMARK    1  A    between atoms: O1_2  and  C2_3 
ROOT
HETATM    1  C2  UNL     1      21.588  -0.514  53.765  1.00  0.00     0.043 C 
HETATM    2  C3  UNL     1      20.413  -0.151  53.273  1.00  0.00     0.013 C 
HETATM    3  C4  UNL     1      19.666   0.142  52.053  1.00  0.00     0.109 C 
HETATM    4  C5  UNL     1      20.475   0.618  50.914  1.00  0.00     0.125 C 
HETATM    5  N1  UNL     1      19.592   1.237  50.211  1.00  0.00    -0.244 NA
HETATM    6  C6  UNL     1      19.984   1.869  48.973  1.00  0.00     0.422 C 
HETATM    7  N2  UNL     1      21.005   2.840  49.260  1.00  0.00     0.110 N 
HETATM    8  C7  UNL     1      22.038   2.855  48.230  1.00  0.00     0.294 C 
HETATM    9  C8  UNL     1      22.922   4.058  48.569  1.00  0.00     0.155 C 
HETATM   10  N3  UNL     1      22.801   4.371  49.981  1.00  0.00    -0.355 N 
HETATM   11  C9  UNL     1      21.508   4.996  50.172  1.00  0.00     0.155 C 
HETATM   12  C10 UNL     1      20.482   4.170  49.434  1.00  0.00     0.294 C 
HETATM   13  C11 UNL     1      23.770   4.115  51.019  1.00  0.00     0.170 C 
HETATM   14  S1  UNL     1      25.377   4.217  50.760  1.00  0.00    -0.041 SA
HETATM   15  N4  UNL     1      23.304   3.754  52.336  1.00  0.00    -0.363 N 
HETATM   16  C12 UNL     1      24.216   3.485  53.403  1.00  0.00     0.161 C 
HETATM   17  C13 UNL     1      25.160   2.367  53.140  1.00  0.00    -0.031 A 
HETATM   18  C14 UNL     1      26.528   2.599  53.252  1.00  0.00     0.012 A 
HETATM   19  C15 UNL     1      27.527   1.667  53.043  1.00  0.00     0.040 A 
HETATM   20  C16 UNL     1      27.088   0.406  52.694  1.00  0.00     0.105 A 
HETATM   21  C17 UNL     1      25.735   0.125  52.570  1.00  0.00     0.112 A 
HETATM   22  C18 UNL     1      24.749   1.096  52.790  1.00  0.00    -0.004 A 
HETATM   23  C19 UNL     1      23.331   0.727  52.637  1.00  0.00     0.069 C 
HETATM   24  C20 UNL     1      22.909   0.837  51.200  1.00  0.00     0.101 C 
HETATM   25  N5  UNL     1      21.846   0.504  50.555  1.00  0.00    -0.249 NA
HETATM   26  C21 UNL     1      22.934  -0.608  53.119  1.00  0.00     0.079 C 
HETATM   27  O2  UNL     1      25.580  -1.202  52.213  1.00  0.00    -0.322 OA
HETATM   28  C22 UNL     1      26.827  -1.826  52.461  1.00  0.00     0.352 C 
HETATM   29  O3  UNL     1      27.787  -0.758  52.412  1.00  0.00    -0.323 OA
HETATM   30  H17 UNL     1      22.253   3.698  52.485  1.00  0.00     0.162 HD
ENDROOT
BRANCH   1  31
HETATM   31  O1  UNL     1      21.550  -0.867  55.115  1.00  0.00    -0.360 OA
HETATM   32  C1  UNL     1      22.628  -1.529  55.749  1.00  0.00     0.209 C 
ENDBRANCH   1  31
TORSDOF 1
ENDMDL
MODEL 3
REMARK VINA RESULT:      -8.4      1.606      2.031
REMARK  1 active torsions:
REMARK  status: ('A' for Active; 'I' for Inactive)
REMARK    1  A    between atoms: O1_2  and  C2_3 
ROOT
HETATM    1  C2  UNL     1      25.296   2.507  51.620  1.00  0.00     0.043 C 
HETATM    2  C3  UNL     1      24.152   1.845  51.707  1.00  0.00     0.013 C 
HETATM    3  C4  UNL     1      22.997   1.350  50.964  1.00  0.00     0.109 C 
HETATM    4  C5  UNL     1      22.655   2.109  49.746  1.00  0.00     0.125 C 
HETATM    5  N1  UNL     1      21.413   1.807  49.592  1.00  0.00    -0.244 NA
HETATM    6  C6  UNL     1      20.677   2.360  48.479  1.00  0.00     0.422 C 
HETATM    7  N2  UNL     1      20.720   3.794  48.572  1.00  0.00     0.110 N 
HETATM    8  C7  UNL     1      20.875   4.414  47.261  1.00  0.00     0.294 C 
HETATM    9  C8  UNL     1      20.698   5.915  47.505  1.00  0.00     0.155 C 
HETATM   10  N3  UNL     1      21.009   6.224  48.889  1.00  0.00    -0.355 N 
HETATM   11  C9  UNL     1      19.903   5.745  49.694  1.00  0.00     0.155 C 
HETATM   12  C10 UNL     1      19.566   4.348  49.232  1.00  0.00     0.294 C 
HETATM   13  C11 UNL     1      22.191   6.880  49.393  1.00  0.00     0.170 C 
HETATM   14  S1  UNL     1      22.946   8.072  48.575  1.00  0.00    -0.041 SA
HETATM   15  N4  UNL     1      22.729   6.469  50.668  1.00  0.00    -0.363 N 
HETATM   16  C12 UNL     1      23.899   7.079  51.217  1.00  0.00     0.161 C 
HETATM   17  C13 UNL     1      25.112   6.962  50.367  1.00  0.00    -0.031 A 
HETATM   18  C14 UNL     1      25.796   8.118  50.002  1.00  0.00     0.012 A 
HETATM   19  C15 UNL     1      26.934   8.174  49.221  1.00  0.00     0.040 A 
HETATM   20  C16 UNL     1      27.406   6.952  48.786  1.00  0.00     0.105 A 
HETATM   21  C17 UNL     1      26.761   5.770  49.122  1.00  0.00     0.112 A 
HETATM   22  C18 UNL     1      25.607   5.753  49.916  1.00  0.00    -0.004 A 
HETATM   23  C19 UNL     1      24.972   4.461  50.232  1.00  0.00     0.069 C 
HETATM   24  C20 UNL     1      24.041   4.047  49.129  1.00  0.00     0.101 C 
HETATM   25  N5  UNL     1      23.380   2.972  48.878  1.00  0.00    -0.249 NA
HETATM   26  C21 UNL     1      25.871   3.327  50.509  1.00  0.00     0.079 C 
HETATM   27  O2  UNL     1      27.440   4.707  48.557  1.00  0.00    -0.322 OA
HETATM   28  C22 UNL     1      28.704   5.210  48.163  1.00  0.00     0.352 C 
HETATM   29  O3  UNL     1      28.501   6.624  48.001  1.00  0.00    -0.323 OA
HETATM   30  H17 UNL     1      22.218   5.694  51.187  1.00  0.00     0.162 HD
ENDROOT
BRANCH   1  31
HETATM   31  O1  UNL     1      26.092   2.413  52.763  1.00  0.00    -0.360 OA
HETATM   32  C1  UNL     1      27.450   2.022  52.703  1.00  0.00     0.209 C 
ENDBRANCH   1  31
TORSDOF 1
ENDMDL
MODEL 4
REMARK VINA RESULT:      -8.0      2.558      5.802
REMARK  1 active torsions:
REMARK  status: ('A' for Active; 'I' for Inactive)
REMARK    1  A    between atoms: O1_2  and  C2_3 
ROOT
HETATM    1  C2  UNL     1      26.360   5.456  49.034  1.00  0.00     0.043 C 
HETATM    2  C3  UNL     1      26.213   6.622  48.423  1.00  0.00     0.013 C 
HETATM    3  C4  UNL     1      25.518   7.905  48.446  1.00  0.00     0.109 C 
HETATM    4  C5  UNL     1      24.198   7.899  49.105  1.00  0.00     0.125 C 
HETATM    5  N1  UNL     1      23.638   8.928  48.572  1.00  0.00    -0.244 NA
HETATM    6  C6  UNL     1      22.292   9.286  48.957  1.00  0.00     0.422 C 
HETATM    7  N2  UNL     1      21.425   8.175  48.666  1.00  0.00     0.110 N 
HETATM    8  C7  UNL     1      20.419   7.992  49.706  1.00  0.00     0.294 C 
HETATM    9  C8  UNL     1      19.468   6.926  49.157  1.00  0.00     0.155 C 
HETATM   10  N3  UNL     1      20.158   6.118  48.169  1.00  0.00    -0.355 N 
HETATM   11  C9  UNL     1      20.288   6.923  46.971  1.00  0.00     0.155 C 
HETATM   12  C10 UNL     1      20.777   8.290  47.386  1.00  0.00     0.294 C 
HETATM   13  C11 UNL     1      20.638   4.766  48.326  1.00  0.00     0.170 C 
HETATM   14  S1  UNL     1      19.842   3.653  49.215  1.00  0.00    -0.041 SA
HETATM   15  N4  UNL     1      21.866   4.380  47.675  1.00  0.00    -0.363 N 
HETATM   16  C12 UNL     1      22.393   3.057  47.797  1.00  0.00     0.161 C 
HETATM   17  C13 UNL     1      22.688   2.637  49.192  1.00  0.00    -0.031 A 
HETATM   18  C14 UNL     1      22.114   1.467  49.681  1.00  0.00     0.012 A 
HETATM   19  C15 UNL     1      22.292   0.946  50.948  1.00  0.00     0.040 A 
HETATM   20  C16 UNL     1      23.122   1.680  51.772  1.00  0.00     0.105 A 
HETATM   21  C17 UNL     1      23.719   2.853  51.331  1.00  0.00     0.112 A 
HETATM   22  C18 UNL     1      23.514   3.351  50.038  1.00  0.00    -0.004 A 
HETATM   23  C19 UNL     1      24.179   4.604  49.639  1.00  0.00     0.069 C 
HETATM   24  C20 UNL     1      23.365   5.792  50.066  1.00  0.00     0.101 C 
HETATM   25  N5  UNL     1      23.576   7.061  50.072  1.00  0.00    -0.249 NA
HETATM   26  C21 UNL     1      25.557   4.810  50.118  1.00  0.00     0.079 C 
HETATM   27  O2  UNL     1      24.490   3.378  52.351  1.00  0.00    -0.322 OA
HETATM   28  C22 UNL     1      24.645   2.341  53.304  1.00  0.00     0.352 C 
HETATM   29  O3  UNL     1      23.525   1.470  53.082  1.00  0.00    -0.323 OA
HETATM   30  H17 UNL     1      22.366   5.119  47.096  1.00  0.00     0.162 HD
ENDROOT
BRANCH   1  31
HETATM   31  O1  UNL     1      27.454   4.715  48.583  1.00  0.00    -0.360 OA
HETATM   32  C1  UNL     1      28.672   5.327  48.207  1.00  0.00     0.209 C 
ENDBRANCH   1  31
TORSDOF 1
ENDMDL
MODEL 5
REMARK VINA RESULT:      -7.6      6.454      9.868
REMARK  1 active torsions:
REMARK  status: ('A' for Active; 'I' for Inactive)
REMARK    1  A    between atoms: O1_2  and  C2_3 
ROOT
HETATM    1  C2  UNL     1      27.929   5.567  48.586  1.00  0.00     0.043 C 
HETATM    2  C3  UNL     1      27.065   6.553  48.401  1.00  0.00     0.013 C 
HETATM    3  C4  UNL     1      26.640   7.618  47.497  1.00  0.00     0.109 C 
HETATM    4  C5  UNL     1      27.692   8.154  46.611  1.00  0.00     0.125 C 
HETATM    5  N1  UNL     1      27.220   9.316  46.324  1.00  0.00    -0.244 NA
HETATM    6  C6  UNL     1      27.969  10.193  45.452  1.00  0.00     0.422 C 
HETATM    7  N2  UNL     1      29.258  10.430  46.043  1.00  0.00     0.110 N 
HETATM    8  C7  UNL     1      30.314  10.456  45.037  1.00  0.00     0.294 C 
HETATM    9  C8  UNL     1      31.567  10.915  45.786  1.00  0.00     0.155 C 
HETATM   10  N3  UNL     1      31.430  10.614  47.199  1.00  0.00    -0.355 N 
HETATM   11  C9  UNL     1      30.490  11.569  47.752  1.00  0.00     0.155 C 
HETATM   12  C10 UNL     1      29.305  11.642  46.819  1.00  0.00     0.294 C 
HETATM   13  C11 UNL     1      32.090   9.565  47.937  1.00  0.00     0.170 C 
HETATM   14  S1  UNL     1      33.618   9.095  47.612  1.00  0.00    -0.041 SA
HETATM   15  N4  UNL     1      31.377   8.904  49.003  1.00  0.00    -0.363 N 
HETATM   16  C12 UNL     1      31.977   7.856  49.767  1.00  0.00     0.161 C 
HETATM   17  C13 UNL     1      32.409   6.679  48.967  1.00  0.00    -0.031 A 
HETATM   18  C14 UNL     1      33.732   6.254  49.051  1.00  0.00     0.012 A 
HETATM   19  C15 UNL     1      34.282   5.182  48.375  1.00  0.00     0.040 A 
HETATM   20  C16 UNL     1      33.409   4.497  47.553  1.00  0.00     0.105 A 
HETATM   21  C17 UNL     1      32.081   4.882  47.435  1.00  0.00     0.112 A 
HETATM   22  C18 UNL     1      31.558   5.975  48.137  1.00  0.00    -0.004 A 
HETATM   23  C19 UNL     1      30.138   6.328  47.961  1.00  0.00     0.069 C 
HETATM   24  C20 UNL     1      29.958   7.205  46.755  1.00  0.00     0.101 C 
HETATM   25  N5  UNL     1      28.930   7.651  46.123  1.00  0.00    -0.249 NA
HETATM   26  C21 UNL     1      29.183   5.212  47.850  1.00  0.00     0.079 C 
HETATM   27  O2  UNL     1      31.441   4.030  46.554  1.00  0.00    -0.322 OA
HETATM   28  C22 UNL     1      32.291   2.908  46.400  1.00  0.00     0.352 C 
HETATM   29  O3  UNL     1      33.601   3.393  46.737  1.00  0.00    -0.323 OA
HETATM   30  H17 UNL     1      30.385   9.229  49.202  1.00  0.00     0.162 HD
ENDROOT
BRANCH   1  31
HETATM   31  O1  UNL     1      27.603   4.721  49.647  1.00  0.00    -0.360 OA
HETATM   32  C1  UNL     1      26.497   3.841  49.594  1.00  0.00     0.209 C 
ENDBRANCH   1  31
TORSDOF 1
ENDMDL
MODEL 6
REMARK VINA RESULT:      -7.6      7.313     10.494
REMARK  1 active torsions:
REMARK  status: ('A' for Active; 'I' for Inactive)
REMARK    1  A    between atoms: O1_2  and  C2_3 
ROOT
HETATM    1  C2  UNL     1      27.224   7.565  48.032  1.00  0.00     0.043 C 
HETATM    2  C3  UNL     1      27.645   6.309  48.061  1.00  0.00     0.013 C 
HETATM    3  C4  UNL     1      28.763   5.430  48.392  1.00  0.00     0.109 C 
HETATM    4  C5  UNL     1      30.100   6.050  48.316  1.00  0.00     0.125 C 
HETATM    5  N1  UNL     1      30.854   5.019  48.160  1.00  0.00    -0.244 NA
HETATM    6  C6  UNL     1      32.284   5.193  48.040  1.00  0.00     0.422 C 
HETATM    7  N2  UNL     1      32.545   6.043  46.909  1.00  0.00     0.110 N 
HETATM    8  C7  UNL     1      33.635   6.974  47.176  1.00  0.00     0.294 C 
HETATM    9  C8  UNL     1      33.920   7.650  45.832  1.00  0.00     0.155 C 
HETATM   10  N3  UNL     1      32.739   7.584  44.992  1.00  0.00    -0.355 N 
HETATM   11  C9  UNL     1      32.623   6.218  44.522  1.00  0.00     0.155 C 
HETATM   12  C10 UNL     1      32.828   5.304  45.706  1.00  0.00     0.294 C 
HETATM   13  C11 UNL     1      31.833   8.660  44.672  1.00  0.00     0.170 C 
HETATM   14  S1  UNL     1      32.338  10.198  44.470  1.00  0.00    -0.041 SA
HETATM   15  N4  UNL     1      30.427   8.370  44.526  1.00  0.00    -0.363 N 
HETATM   16  C12 UNL     1      29.481   9.395  44.213  1.00  0.00     0.161 C 
HETATM   17  C13 UNL     1      29.421  10.502  45.204  1.00  0.00    -0.031 A 
HETATM   18  C14 UNL     1      29.605  11.811  44.766  1.00  0.00     0.012 A 
HETATM   19  C15 UNL     1      29.576  12.941  45.559  1.00  0.00     0.040 A 
HETATM   20  C16 UNL     1      29.342  12.710  46.900  1.00  0.00     0.105 A 
HETATM   21  C17 UNL     1      29.153  11.424  47.386  1.00  0.00     0.112 A 
HETATM   22  C18 UNL     1      29.188  10.300  46.551  1.00  0.00    -0.004 A 
HETATM   23  C19 UNL     1      28.982   8.964  47.136  1.00  0.00     0.069 C 
HETATM   24  C20 UNL     1      30.273   8.420  47.677  1.00  0.00     0.101 C 
HETATM   25  N5  UNL     1      30.579   7.388  48.381  1.00  0.00    -0.249 NA
HETATM   26  C21 UNL     1      27.968   8.852  48.199  1.00  0.00     0.079 C 
HETATM   27  O2  UNL     1      28.940  11.484  48.751  1.00  0.00    -0.322 OA
HETATM   28  C22 UNL     1      28.651  12.838  49.048  1.00  0.00     0.352 C 
HETATM   29  O3  UNL     1      29.246  13.584  47.973  1.00  0.00    -0.323 OA
HETATM   30  H17 UNL     1      30.120   7.361  44.656  1.00  0.00     0.162 HD
ENDROOT
BRANCH   1  31
HETATM   31  O1  UNL     1      25.852   7.695  47.808  1.00  0.00    -0.360 OA
HETATM   32  C1  UNL     1      25.334   8.170  46.580  1.00  0.00     0.209 C 
ENDBRANCH   1  31
TORSDOF 1
ENDMDL
MODEL 7
REMARK VINA RESULT:      -7.3      9.572     12.071
REMARK  1 active torsions:
REMARK  status: ('A' for Active; 'I' for Inactive)
REMARK    1  A    between atoms: O1_2  and  C2_3 
ROOT
HETATM    1  C2  UNL     1      33.525   9.849  44.304  1.00  0.00     0.043 C 
HETATM    2  C3  UNL     1      34.427   9.032  43.781  1.00  0.00     0.013 C 
HETATM    3  C4  UNL     1      34.673   7.680  43.288  1.00  0.00     0.109 C 
HETATM    4  C5  UNL     1      33.818   6.628  43.870  1.00  0.00     0.125 C 
HETATM    5  N1  UNL     1      34.531   5.575  43.670  1.00  0.00    -0.244 NA
HETATM    6  C6  UNL     1      34.039   4.288  44.105  1.00  0.00     0.422 C 
HETATM    7  N2  UNL     1      33.815   4.343  45.525  1.00  0.00     0.110 N 
HETATM    8  C7  UNL     1      32.606   3.622  45.907  1.00  0.00     0.294 C 
HETATM    9  C8  UNL     1      32.621   3.600  47.437  1.00  0.00     0.155 C 
HETATM   10  N3  UNL     1      33.422   4.704  47.934  1.00  0.00    -0.355 N 
HETATM   11  C9  UNL     1      34.811   4.364  47.702  1.00  0.00     0.155 C 
HETATM   12  C10 UNL     1      34.931   3.848  46.288  1.00  0.00     0.294 C 
HETATM   13  C11 UNL     1      32.947   5.922  48.543  1.00  0.00     0.170 C 
HETATM   14  S1  UNL     1      31.632   5.963  49.508  1.00  0.00    -0.041 SA
HETATM   15  N4  UNL     1      33.658   7.152  48.293  1.00  0.00    -0.363 N 
HETATM   16  C12 UNL     1      33.233   8.391  48.866  1.00  0.00     0.161 C 
HETATM   17  C13 UNL     1      31.854   8.802  48.495  1.00  0.00    -0.031 A 
HETATM   18  C14 UNL     1      30.935   9.073  49.505  1.00  0.00     0.012 A 
HETATM   19  C15 UNL     1      29.623   9.465  49.322  1.00  0.00     0.040 A 
HETATM   20  C16 UNL     1      29.226   9.588  48.005  1.00  0.00     0.105 A 
HETATM   21  C17 UNL     1      30.105   9.329  46.963  1.00  0.00     0.112 A 
HETATM   22  C18 UNL     1      31.430   8.933  47.186  1.00  0.00    -0.004 A 
HETATM   23  C19 UNL     1      32.306   8.673  46.031  1.00  0.00     0.069 C 
HETATM   24  C20 UNL     1      32.124   7.266  45.537  1.00  0.00     0.101 C 
HETATM   25  N5  UNL     1      32.546   6.622  44.506  1.00  0.00    -0.249 NA
HETATM   26  C21 UNL     1      32.169   9.574  44.874  1.00  0.00     0.079 C 
HETATM   27  O2  UNL     1      29.451   9.529  45.761  1.00  0.00    -0.322 OA
HETATM   28  C22 UNL     1      28.271  10.249  46.067  1.00  0.00     0.352 C 
HETATM   29  O3  UNL     1      28.010   9.953  47.449  1.00  0.00    -0.323 OA
HETATM   30  H17 UNL     1      34.515   7.103  47.666  1.00  0.00     0.162 HD
ENDROOT
BRANCH   1  31
HETATM   31  O1  UNL     1      33.916  11.188  44.318  1.00  0.00    -0.360 OA
HETATM   32  C1  UNL     1      34.102  11.929  43.127  1.00  0.00     0.209 C 
ENDBRANCH   1  31
TORSDOF 1
ENDMDL
MODEL 8
REMARK VINA RESULT:      -7.2      5.965      9.188
REMARK  1 active torsions:
REMARK  status: ('A' for Active; 'I' for Inactive)
REMARK    1  A    between atoms: O1_2  and  C2_3 
ROOT
HETATM    1  C2  UNL     1      26.619   6.402  48.624  1.00  0.00     0.043 C 
HETATM    2  C3  UNL     1      25.619   7.138  48.162  1.00  0.00     0.013 C 
HETATM    3  C4  UNL     1      25.121   7.896  47.019  1.00  0.00     0.109 C 
HETATM    4  C5  UNL     1      26.157   8.451  46.127  1.00  0.00     0.125 C 
HETATM    5  N1  UNL     1      25.521   9.415  45.559  1.00  0.00    -0.244 NA
HETATM    6  C6  UNL     1      26.197  10.238  44.583  1.00  0.00     0.422 C 
HETATM    7  N2  UNL     1      27.341  10.843  45.211  1.00  0.00     0.110 N 
HETATM    8  C7  UNL     1      28.488  10.885  44.312  1.00  0.00     0.294 C 
HETATM    9  C8  UNL     1      29.537  11.727  45.044  1.00  0.00     0.155 C 
HETATM   10  N3  UNL     1      29.286  11.686  46.473  1.00  0.00    -0.355 N 
HETATM   11  C9  UNL     1      28.129  12.519  46.729  1.00  0.00     0.155 C 
HETATM   12  C10 UNL     1      27.072  12.166  45.710  1.00  0.00     0.294 C 
HETATM   13  C11 UNL     1      30.032  10.957  47.470  1.00  0.00     0.170 C 
HETATM   14  S1  UNL     1      31.648  10.753  47.378  1.00  0.00    -0.041 SA
HETATM   15  N4  UNL     1      29.326  10.386  48.592  1.00  0.00    -0.363 N 
HETATM   16  C12 UNL     1      30.010   9.651  49.609  1.00  0.00     0.161 C 
HETATM   17  C13 UNL     1      30.742   8.454  49.119  1.00  0.00    -0.031 A 
HETATM   18  C14 UNL     1      32.100   8.330  49.399  1.00  0.00     0.012 A 
HETATM   19  C15 UNL     1      32.914   7.281  49.016  1.00  0.00     0.040 A 
HETATM   20  C16 UNL     1      32.286   6.287  48.293  1.00  0.00     0.105 A 
HETATM   21  C17 UNL     1      30.935   6.363  47.988  1.00  0.00     0.112 A 
HETATM   22  C18 UNL     1      30.140   7.443  48.393  1.00  0.00    -0.004 A 
HETATM   23  C19 UNL     1      28.712   7.460  48.032  1.00  0.00     0.069 C 
HETATM   24  C20 UNL     1      28.523   8.028  46.654  1.00  0.00     0.101 C 
HETATM   25  N5  UNL     1      27.515   8.124  45.860  1.00  0.00    -0.249 NA
HETATM   26  C21 UNL     1      27.996   6.173  48.086  1.00  0.00     0.079 C 
HETATM   27  O2  UNL     1      30.572   5.244  47.262  1.00  0.00    -0.322 OA
HETATM   28  C22 UNL     1      31.624   4.310  47.422  1.00  0.00     0.352 C 
HETATM   29  O3  UNL     1      32.774   5.107  47.752  1.00  0.00    -0.323 OA
HETATM   30  H17 UNL     1      28.275  10.535  48.635  1.00  0.00     0.162 HD
ENDROOT
BRANCH   1  31
HETATM   31  O1  UNL     1      26.325   5.732  49.813  1.00  0.00    -0.360 OA
HETATM   32  C1  UNL     1      25.272   4.792  49.905  1.00  0.00     0.209 C 
ENDBRANCH   1  31
TORSDOF 1
ENDMDL
MODEL 9
REMARK VINA RESULT:      -7.2      3.749      6.792
REMARK  1 active torsions:
REMARK  status: ('A' for Active; 'I' for Inactive)
REMARK    1  A    between atoms: O1_2  and  C2_3 
ROOT
HETATM    1  C2  UNL     1      20.745   1.431  52.250  1.00  0.00     0.043 C 
HETATM    2  C3  UNL     1      22.051   1.641  52.313  1.00  0.00     0.013 C 
HETATM    3  C4  UNL     1      23.093   2.648  52.490  1.00  0.00     0.109 C 
HETATM    4  C5  UNL     1      22.727   4.017  52.081  1.00  0.00     0.125 C 
HETATM    5  N1  UNL     1      23.883   4.543  51.873  1.00  0.00    -0.244 NA
HETATM    6  C6  UNL     1      23.973   5.920  51.444  1.00  0.00     0.422 C 
HETATM    7  N2  UNL     1      23.253   6.059  50.206  1.00  0.00     0.110 N 
HETATM    8  C7  UNL     1      22.516   7.316  50.151  1.00  0.00     0.294 C 
HETATM    9  C8  UNL     1      21.983   7.404  48.719  1.00  0.00     0.155 C 
HETATM   10  N3  UNL     1      21.889   6.072  48.150  1.00  0.00    -0.355 N 
HETATM   11  C9  UNL     1      23.238   5.637  47.849  1.00  0.00     0.155 C 
HETATM   12  C10 UNL     1      24.102   5.948  49.048  1.00  0.00     0.294 C 
HETATM   13  C11 UNL     1      20.690   5.302  47.922  1.00  0.00     0.170 C 
HETATM   14  S1  UNL     1      19.281   5.991  47.472  1.00  0.00    -0.041 SA
HETATM   15  N4  UNL     1      20.734   3.871  48.098  1.00  0.00    -0.363 N 
HETATM   16  C12 UNL     1      19.578   3.057  47.889  1.00  0.00     0.161 C 
HETATM   17  C13 UNL     1      18.420   3.395  48.759  1.00  0.00    -0.031 A 
HETATM   18  C14 UNL     1      17.194   3.685  48.168  1.00  0.00     0.012 A 
HETATM   19  C15 UNL     1      16.031   4.014  48.836  1.00  0.00     0.040 A 
HETATM   20  C16 UNL     1      16.135   4.046  50.212  1.00  0.00     0.105 A 
HETATM   21  C17 UNL     1      17.336   3.764  50.849  1.00  0.00     0.112 A 
HETATM   22  C18 UNL     1      18.496   3.434  50.138  1.00  0.00    -0.004 A 
HETATM   23  C19 UNL     1      19.737   3.149  50.879  1.00  0.00     0.069 C 
HETATM   24  C20 UNL     1      20.468   4.423  51.193  1.00  0.00     0.101 C 
HETATM   25  N5  UNL     1      21.494   4.707  51.915  1.00  0.00    -0.249 NA
HETATM   26  C21 UNL     1      19.603   2.390  52.135  1.00  0.00     0.079 C 
HETATM   27  O2  UNL     1      17.157   3.869  52.216  1.00  0.00    -0.322 OA
HETATM   28  C22 UNL     1      15.757   3.874  52.434  1.00  0.00     0.352 C 
HETATM   29  O3  UNL     1      15.196   4.330  51.192  1.00  0.00    -0.323 OA
HETATM   30  H17 UNL     1      21.663   3.442  48.385  1.00  0.00     0.162 HD
ENDROOT
BRANCH   1  31
HETATM   31  O1  UNL     1      20.386   0.082  52.303  1.00  0.00    -0.360 OA
HETATM   32  C1  UNL     1      19.834  -0.503  53.466  1.00  0.00     0.209 C 
ENDBRANCH   1  31
TORSDOF 1
ENDMDL
