MODEL 1
REMARK VINA RESULT:      -9.4      0.000      0.000
REMARK  6 active torsions:
REMARK  status: ('A' for Active; 'I' for Inactive)
REMARK    1  A    between atoms: C3_3  and  N1_4 
REMARK    2  A    between atoms: C7_8  and  C8_9 
REMARK    3  A    between atoms: C9_10  and  C10_11 
REMARK    4  A    between atoms: C10_11  and  N2_12 
REMARK    5  A    between atoms: C13_17  and  N5_18 
REMARK    6  A    between atoms: N5_18  and  C14_19 
ROOT
HETATM    1  N2  UNL     1      24.305   3.331  50.426  1.00  0.00    -0.353 N 
HETATM    2  C11 UNL     1      23.238   2.964  49.559  1.00  0.00     0.140 A 
HETATM    3  N3  UNL     1      22.897   2.699  48.284  1.00  0.00    -0.224 NA
HETATM    4  C12 UNL     1      21.611   2.368  47.978  1.00  0.00     0.237 A 
HETATM    5  N4  UNL     1      20.703   2.311  48.950  1.00  0.00    -0.224 NA
HETATM    6  C13 UNL     1      20.998   2.571  50.255  1.00  0.00     0.141 A 
HETATM    7  C20 UNL     1      22.294   2.904  50.562  1.00  0.00     0.056 A 
HETATM    8  C21 UNL     1      23.360   3.281  51.502  1.00  0.00     0.123 A 
HETATM    9  C22 UNL     1      23.118   4.598  52.207  1.00  0.00     0.038 C 
ENDROOT
BRANCH   1  10
HETATM   10  C10 UNL     1      25.732   3.650  50.433  1.00  0.00     0.152 C 
BRANCH  10  11
HETATM   11  C9  UNL     1      26.432   2.485  51.027  1.00  0.00    -0.007 C 
HETATM   12  C8  UNL     1      26.937   2.312  52.238  1.00  0.00     0.005 C 
BRANCH  12  13
HETATM   13  C7  UNL     1      27.632   1.145  52.817  1.00  0.00    -0.054 C 
HETATM   14  C6  UNL     1      28.692   1.477  53.785  1.00  0.00     0.065 C 
HETATM   15  C5  UNL     1      29.713   0.401  53.825  1.00  0.00    -0.020 C 
HETATM   16  C4  UNL     1      29.800  -0.885  53.595  1.00  0.00     0.026 C 
HETATM   17  C3  UNL     1      28.673  -1.696  53.162  1.00  0.00     0.031 C 
HETATM   18  C2  UNL     1      27.523  -1.348  52.618  1.00  0.00    -0.035 C 
HETATM   19  C1  UNL     1      26.514  -2.397  52.258  1.00  0.00     0.050 C 
HETATM   20  C23 UNL     1      27.141   0.021  52.328  1.00  0.00     0.016 C 
BRANCH  17  21
HETATM   21  N1  UNL     1      28.818  -3.104  53.349  1.00  0.00    -0.399 N 
HETATM   22  H4  UNL     1      29.773  -3.491  53.577  1.00  0.00     0.156 HD
HETATM   23  H5  UNL     1      27.877  -3.502  53.213  1.00  0.00     0.156 HD
ENDBRANCH  17  21
ENDBRANCH  12  13
ENDBRANCH  10  11
ENDBRANCH   1  10
BRANCH   6  24
HETATM   24  N5  UNL     1      20.050   2.518  51.315  1.00  0.00    -0.340 N 
HETATM   25  H15 UNL     1      19.567   3.398  51.563  1.00  0.00     0.167 HD
BRANCH  24  26
HETATM   26  C14 UNL     1      19.780   1.301  52.003  1.00  0.00     0.035 A 
HETATM   27  C15 UNL     1      18.575   0.654  51.785  1.00  0.00     0.029 A 
HETATM   28  C16 UNL     1      18.421  -0.516  52.505  1.00  0.00     0.004 A 
HETATM   29  C17 UNL     1      19.354  -1.042  53.381  1.00  0.00     0.019 A 
HETATM   30  C18 UNL     1      20.540  -0.368  53.569  1.00  0.00     0.013 A 
HETATM   31 BR1  UNL     1      21.840  -1.056  54.757  1.00  0.00    -0.051 Br
HETATM   32  C19 UNL     1      20.727   0.801  52.868  1.00  0.00     0.048 A 
ENDBRANCH  24  26
ENDBRANCH   6  24
TORSDOF 6
ENDMDL
MODEL 2
REMARK VINA RESULT:      -9.0      6.042      9.126
REMARK  6 active torsions:
REMARK  status: ('A' for Active; 'I' for Inactive)
REMARK    1  A    between atoms: C3_3  and  N1_4 
REMARK    2  A    between atoms: C7_8  and  C8_9 
REMARK    3  A    between atoms: C9_10  and  C10_11 
REMARK    4  A    between atoms: C10_11  and  N2_12 
REMARK    5  A    between atoms: C13_17  and  N5_18 
REMARK    6  A    between atoms: N5_18  and  C14_19 
ROOT
HETATM    1  N2  UNL     1      26.345   4.938  49.072  1.00  0.00    -0.353 N 
HETATM    2  C11 UNL     1      27.669   5.228  48.640  1.00  0.00     0.140 A 
HETATM    3  N3  UNL     1      28.885   4.706  48.389  1.00  0.00    -0.224 NA
HETATM    4  C12 UNL     1      29.895   5.509  47.952  1.00  0.00     0.237 A 
HETATM    5  N4  UNL     1      29.665   6.809  47.778  1.00  0.00    -0.224 NA
HETATM    6  C13 UNL     1      28.454   7.385  48.019  1.00  0.00     0.141 A 
HETATM    7  C20 UNL     1      27.437   6.575  48.458  1.00  0.00     0.056 A 
HETATM    8  C21 UNL     1      26.055   6.331  48.898  1.00  0.00     0.123 A 
HETATM    9  C22 UNL     1      25.675   7.072  50.162  1.00  0.00     0.038 C 
ENDROOT
BRANCH   1  10
HETATM   10  C10 UNL     1      25.488   3.842  49.520  1.00  0.00     0.152 C 
BRANCH  10  11
HETATM   11  C9  UNL     1      26.336   2.935  50.330  1.00  0.00    -0.007 C 
HETATM   12  C8  UNL     1      26.213   2.539  51.587  1.00  0.00     0.005 C 
BRANCH  12  13
HETATM   13  C7  UNL     1      27.066   1.634  52.383  1.00  0.00    -0.054 C 
HETATM   14  C6  UNL     1      27.959   2.312  53.339  1.00  0.00     0.065 C 
HETATM   15  C5  UNL     1      29.158   1.481  53.607  1.00  0.00    -0.020 C 
HETATM   16  C4  UNL     1      29.507   0.219  53.594  1.00  0.00     0.026 C 
HETATM   17  C3  UNL     1      28.595  -0.857  53.238  1.00  0.00     0.031 C 
HETATM   18  C2  UNL     1      27.450  -0.832  52.584  1.00  0.00    -0.035 C 
HETATM   19  C1  UNL     1      26.692  -2.103  52.346  1.00  0.00     0.050 C 
HETATM   20  C23 UNL     1      26.840   0.375  52.057  1.00  0.00     0.016 C 
BRANCH  17  21
HETATM   21  N1  UNL     1      28.989  -2.163  53.658  1.00  0.00    -0.399 N 
HETATM   22  H4  UNL     1      29.647  -2.257  54.478  1.00  0.00     0.156 HD
HETATM   23  H5  UNL     1      28.511  -2.817  53.020  1.00  0.00     0.156 HD
ENDBRANCH  17  21
ENDBRANCH  12  13
ENDBRANCH  10  11
ENDBRANCH   1  10
BRANCH   6  24
HETATM   24  N5  UNL     1      28.178   8.771  47.841  1.00  0.00    -0.340 N 
HETATM   25  H15 UNL     1      27.203   9.035  47.624  1.00  0.00     0.167 HD
BRANCH  24  26
HETATM   26  C14 UNL     1      29.206   9.749  47.959  1.00  0.00     0.035 A 
HETATM   27  C15 UNL     1      29.678  10.086  49.216  1.00  0.00     0.029 A 
HETATM   28  C16 UNL     1      30.674  11.045  49.210  1.00  0.00     0.004 A 
HETATM   29  C17 UNL     1      31.193  11.648  48.078  1.00  0.00     0.019 A 
HETATM   30  C18 UNL     1      30.697  11.284  46.847  1.00  0.00     0.013 A 
HETATM   31 BR1  UNL     1      31.381  12.086  45.277  1.00  0.00    -0.051 Br
HETATM   32  C19 UNL     1      29.704  10.332  46.815  1.00  0.00     0.048 A 
ENDBRANCH  24  26
ENDBRANCH   6  24
TORSDOF 6
ENDMDL
MODEL 3
REMARK VINA RESULT:      -8.7      3.655      8.594
REMARK  6 active torsions:
REMARK  status: ('A' for Active; 'I' for Inactive)
REMARK    1  A    between atoms: C3_3  and  N1_4 
REMARK    2  A    between atoms: C7_8  and  C8_9 
REMARK    3  A    between atoms: C9_10  and  C10_11 
REMARK    4  A    between atoms: C10_11  and  N2_12 
REMARK    5  A    between atoms: C13_17  and  N5_18 
REMARK    6  A    between atoms: N5_18  and  C14_19 
ROOT
HETATM    1  N2  UNL     1      24.449   0.504  53.386  1.00  0.00    -0.353 N 
HETATM    2  C11 UNL     1      25.716   1.151  53.354  1.00  0.00     0.140 A 
HETATM    3  N3  UNL     1      26.797   1.493  54.079  1.00  0.00    -0.224 NA
HETATM    4  C12 UNL     1      27.823   2.172  53.495  1.00  0.00     0.237 A 
HETATM    5  N4  UNL     1      27.742   2.492  52.205  1.00  0.00    -0.224 NA
HETATM    6  C13 UNL     1      26.670   2.170  51.428  1.00  0.00     0.141 A 
HETATM    7  C20 UNL     1      25.638   1.485  52.018  1.00  0.00     0.056 A 
HETATM    8  C21 UNL     1      24.322   0.828  51.997  1.00  0.00     0.123 A 
HETATM    9  C22 UNL     1      23.179   1.760  51.655  1.00  0.00     0.038 C 
ENDROOT
BRANCH   1  10
HETATM   10  C10 UNL     1      23.535  -0.204  54.281  1.00  0.00     0.152 C 
BRANCH  10  11
HETATM   11  C9  UNL     1      22.236  -0.313  53.573  1.00  0.00    -0.007 C 
HETATM   12  C8  UNL     1      21.058  -0.735  54.003  1.00  0.00     0.005 C 
BRANCH  12  13
HETATM   13  C7  UNL     1      19.770  -0.838  53.286  1.00  0.00    -0.054 C 
HETATM   14  C6  UNL     1      19.596   0.130  52.190  1.00  0.00     0.065 C 
HETATM   15  C5  UNL     1      18.156   0.403  51.963  1.00  0.00    -0.020 C 
HETATM   16  C4  UNL     1      17.001  -0.192  52.129  1.00  0.00     0.026 C 
HETATM   17  C3  UNL     1      16.865  -1.528  52.688  1.00  0.00     0.031 C 
HETATM   18  C2  UNL     1      17.706  -2.249  53.405  1.00  0.00    -0.035 C 
HETATM   19  C1  UNL     1      17.315  -3.621  53.865  1.00  0.00     0.050 C 
HETATM   20  C23 UNL     1      19.029  -1.804  53.798  1.00  0.00     0.016 C 
BRANCH  17  21
HETATM   21  N1  UNL     1      15.623  -2.182  52.430  1.00  0.00    -0.399 N 
HETATM   22  H4  UNL     1      15.464  -3.147  52.826  1.00  0.00     0.156 HD
HETATM   23  H5  UNL     1      15.076  -1.523  51.855  1.00  0.00     0.156 HD
ENDBRANCH  17  21
ENDBRANCH  12  13
ENDBRANCH  10  11
ENDBRANCH   1  10
BRANCH   6  24
HETATM   24  N5  UNL     1      26.556   2.497  50.047  1.00  0.00    -0.340 N 
HETATM   25  H15 UNL     1      26.625   1.720  49.369  1.00  0.00     0.167 HD
BRANCH  24  26
HETATM   26  C14 UNL     1      26.356   3.841  49.621  1.00  0.00     0.035 A 
HETATM   27  C15 UNL     1      25.121   4.435  49.819  1.00  0.00     0.029 A 
HETATM   28  C16 UNL     1      25.040   5.740  49.367  1.00  0.00     0.004 A 
HETATM   29  C17 UNL     1      26.070   6.439  48.764  1.00  0.00     0.019 A 
HETATM   30  C18 UNL     1      27.283   5.812  48.587  1.00  0.00     0.013 A 
HETATM   31 BR1  UNL     1      28.715   6.736  47.768  1.00  0.00    -0.051 Br
HETATM   32  C19 UNL     1      27.399   4.513  49.025  1.00  0.00     0.048 A 
ENDBRANCH  24  26
ENDBRANCH   6  24
TORSDOF 6
ENDMDL
MODEL 4
REMARK VINA RESULT:      -8.5      4.428      7.355
REMARK  6 active torsions:
REMARK  status: ('A' for Active; 'I' for Inactive)
REMARK    1  A    between atoms: C3_3  and  N1_4 
REMARK    2  A    between atoms: C7_8  and  C8_9 
REMARK    3  A    between atoms: C9_10  and  C10_11 
REMARK    4  A    between atoms: C10_11  and  N2_12 
REMARK    5  A    between atoms: C13_17  and  N5_18 
REMARK    6  A    between atoms: N5_18  and  C14_19 
ROOT
HETATM    1  N2  UNL     1      24.568   4.419  50.395  1.00  0.00    -0.353 N 
HETATM    2  C11 UNL     1      24.174   5.786  50.372  1.00  0.00     0.140 A 
HETATM    3  N3  UNL     1      23.131   6.633  50.453  1.00  0.00    -0.224 NA
HETATM    4  C12 UNL     1      23.335   7.977  50.359  1.00  0.00     0.237 A 
HETATM    5  N4  UNL     1      24.573   8.438  50.188  1.00  0.00    -0.224 NA
HETATM    6  C13 UNL     1      25.660   7.622  50.099  1.00  0.00     0.141 A 
HETATM    7  C20 UNL     1      25.453   6.269  50.194  1.00  0.00     0.056 A 
HETATM    8  C21 UNL     1      25.914   4.873  50.211  1.00  0.00     0.123 A 
HETATM    9  C22 UNL     1      26.572   4.430  48.922  1.00  0.00     0.038 C 
ENDROOT
BRANCH   1  10
HETATM   10  C10 UNL     1      24.035   3.064  50.528  1.00  0.00     0.152 C 
BRANCH  10  11
HETATM   11  C9  UNL     1      25.112   2.233  51.118  1.00  0.00    -0.007 C 
HETATM   12  C8  UNL     1      25.601   2.208  52.348  1.00  0.00     0.005 C 
BRANCH  12  13
HETATM   13  C7  UNL     1      26.675   1.373  52.923  1.00  0.00    -0.054 C 
HETATM   14  C6  UNL     1      27.575   2.082  53.850  1.00  0.00     0.065 C 
HETATM   15  C5  UNL     1      28.909   1.432  53.875  1.00  0.00    -0.020 C 
HETATM   16  C4  UNL     1      29.435   0.251  53.664  1.00  0.00     0.026 C 
HETATM   17  C3  UNL     1      28.652  -0.914  53.283  1.00  0.00     0.031 C 
HETATM   18  C2  UNL     1      27.440  -1.005  52.771  1.00  0.00    -0.035 C 
HETATM   19  C1  UNL     1      26.852  -2.350  52.463  1.00  0.00     0.050 C 
HETATM   20  C23 UNL     1      26.596   0.136  52.471  1.00  0.00     0.016 C 
BRANCH  17  21
HETATM   21  N1  UNL     1      29.285  -2.177  53.489  1.00  0.00    -0.399 N 
HETATM   22  H4  UNL     1      30.016  -2.262  54.246  1.00  0.00     0.156 HD
HETATM   23  H5  UNL     1      28.866  -2.815  52.797  1.00  0.00     0.156 HD
ENDBRANCH  17  21
ENDBRANCH  12  13
ENDBRANCH  10  11
ENDBRANCH   1  10
BRANCH   6  24
HETATM   24  N5  UNL     1      26.994   8.086  49.916  1.00  0.00    -0.340 N 
HETATM   25  H15 UNL     1      27.474   8.484  50.740  1.00  0.00     0.167 HD
BRANCH  24  26
HETATM   26  C14 UNL     1      27.637   8.002  48.648  1.00  0.00     0.035 A 
HETATM   27  C15 UNL     1      28.903   7.446  48.568  1.00  0.00     0.029 A 
HETATM   28  C16 UNL     1      29.430   7.417  47.290  1.00  0.00     0.004 A 
HETATM   29  C17 UNL     1      28.794   7.887  46.155  1.00  0.00     0.019 A 
HETATM   30  C18 UNL     1      27.535   8.432  46.278  1.00  0.00     0.013 A 
HETATM   31 BR1  UNL     1      26.634   9.084  44.749  1.00  0.00    -0.051 Br
HETATM   32  C19 UNL     1      26.980   8.477  47.536  1.00  0.00     0.048 A 
ENDBRANCH  24  26
ENDBRANCH   6  24
TORSDOF 6
ENDMDL
MODEL 5
REMARK VINA RESULT:      -8.5      5.216      8.145
REMARK  6 active torsions:
REMARK  status: ('A' for Active; 'I' for Inactive)
REMARK    1  A    between atoms: C3_3  and  N1_4 
REMARK    2  A    between atoms: C7_8  and  C8_9 
REMARK    3  A    between atoms: C9_10  and  C10_11 
REMARK    4  A    between atoms: C10_11  and  N2_12 
REMARK    5  A    between atoms: C13_17  and  N5_18 
REMARK    6  A    between atoms: N5_18  and  C14_19 
ROOT
HETATM    1  N2  UNL     1      24.530   4.584  49.461  1.00  0.00    -0.353 N 
HETATM    2  C11 UNL     1      24.283   5.968  49.238  1.00  0.00     0.140 A 
HETATM    3  N3  UNL     1      23.374   6.872  48.827  1.00  0.00    -0.224 NA
HETATM    4  C12 UNL     1      23.690   8.197  48.809  1.00  0.00     0.237 A 
HETATM    5  N4  UNL     1      24.903   8.583  49.201  1.00  0.00    -0.224 NA
HETATM    6  C13 UNL     1      25.857   7.707  49.625  1.00  0.00     0.141 A 
HETATM    7  C20 UNL     1      25.537   6.373  49.643  1.00  0.00     0.056 A 
HETATM    8  C21 UNL     1      25.845   4.956  49.891  1.00  0.00     0.123 A 
HETATM    9  C22 UNL     1      26.976   4.418  49.041  1.00  0.00     0.038 C 
ENDROOT
BRANCH   1  10
HETATM   10  C10 UNL     1      23.902   3.267  49.366  1.00  0.00     0.152 C 
BRANCH  10  11
HETATM   11  C9  UNL     1      24.377   2.479  50.529  1.00  0.00    -0.007 C 
HETATM   12  C8  UNL     1      23.935   2.439  51.776  1.00  0.00     0.005 C 
BRANCH  12  13
HETATM   13  C7  UNL     1      24.418   1.647  52.927  1.00  0.00    -0.054 C 
HETATM   14  C6  UNL     1      25.645   2.163  53.557  1.00  0.00     0.065 C 
HETATM   15  C5  UNL     1      26.390   1.062  54.217  1.00  0.00    -0.020 C 
HETATM   16  C4  UNL     1      26.151  -0.107  54.756  1.00  0.00     0.026 C 
HETATM   17  C3  UNL     1      24.820  -0.691  54.835  1.00  0.00     0.031 C 
HETATM   18  C2  UNL     1      23.718  -0.411  54.168  1.00  0.00    -0.035 C 
HETATM   19  C1  UNL     1      22.457  -1.174  54.445  1.00  0.00     0.050 C 
HETATM   20  C23 UNL     1      23.622   0.617  53.149  1.00  0.00     0.016 C 
BRANCH  17  21
HETATM   21  N1  UNL     1      24.664  -1.743  55.787  1.00  0.00    -0.399 N 
HETATM   22  H4  UNL     1      23.805  -2.355  55.733  1.00  0.00     0.156 HD
HETATM   23  H5  UNL     1      25.496  -1.695  56.395  1.00  0.00     0.156 HD
ENDBRANCH  17  21
ENDBRANCH  12  13
ENDBRANCH  10  11
ENDBRANCH   1  10
BRANCH   6  24
HETATM   24  N5  UNL     1      27.161   8.090  50.050  1.00  0.00    -0.340 N 
HETATM   25  H15 UNL     1      27.369   8.021  51.060  1.00  0.00     0.167 HD
BRANCH  24  26
HETATM   26  C14 UNL     1      28.136   8.550  49.119  1.00  0.00     0.035 A 
HETATM   27  C15 UNL     1      28.399   7.795  47.989  1.00  0.00     0.029 A 
HETATM   28  C16 UNL     1      29.362   8.336  47.157  1.00  0.00     0.004 A 
HETATM   29  C17 UNL     1      30.035   9.524  47.384  1.00  0.00     0.019 A 
HETATM   30  C18 UNL     1      29.743  10.244  48.520  1.00  0.00     0.013 A 
HETATM   31 BR1  UNL     1      30.642  11.872  48.864  1.00  0.00    -0.051 Br
HETATM   32  C19 UNL     1      28.790   9.735  49.371  1.00  0.00     0.048 A 
ENDBRANCH  24  26
ENDBRANCH   6  24
TORSDOF 6
ENDMDL
MODEL 6
REMARK VINA RESULT:      -8.5      4.632      7.118
REMARK  6 active torsions:
REMARK  status: ('A' for Active; 'I' for Inactive)
REMARK    1  A    between atoms: C3_3  and  N1_4 
REMARK    2  A    between atoms: C7_8  and  C8_9 
REMARK    3  A    between atoms: C9_10  and  C10_11 
REMARK    4  A    between atoms: C10_11  and  N2_12 
REMARK    5  A    between atoms: C13_17  and  N5_18 
REMARK    6  A    between atoms: N5_18  and  C14_19 
ROOT
HETATM    1  N2  UNL     1      25.247   4.458  49.669  1.00  0.00    -0.353 N 
HETATM    2  C11 UNL     1      26.519   4.830  49.151  1.00  0.00     0.140 A 
HETATM    3  N3  UNL     1      27.743   4.384  48.813  1.00  0.00    -0.224 NA
HETATM    4  C12 UNL     1      28.671   5.251  48.317  1.00  0.00     0.237 A 
HETATM    5  N4  UNL     1      28.351   6.536  48.173  1.00  0.00    -0.224 NA
HETATM    6  C13 UNL     1      27.127   7.035  48.501  1.00  0.00     0.141 A 
HETATM    7  C20 UNL     1      26.194   6.161  49.000  1.00  0.00     0.056 A 
HETATM    8  C21 UNL     1      24.862   5.831  49.530  1.00  0.00     0.123 A 
HETATM    9  C22 UNL     1      24.526   6.539  50.824  1.00  0.00     0.038 C 
ENDROOT
BRANCH   1  10
HETATM   10  C10 UNL     1      24.491   3.308  50.163  1.00  0.00     0.152 C 
BRANCH  10  11
HETATM   11  C9  UNL     1      25.460   2.411  50.836  1.00  0.00    -0.007 C 
HETATM   12  C8  UNL     1      25.976   2.463  52.053  1.00  0.00     0.005 C 
BRANCH  12  13
HETATM   13  C7  UNL     1      26.943   1.561  52.713  1.00  0.00    -0.054 C 
HETATM   14  C6  UNL     1      27.865   2.226  53.649  1.00  0.00     0.065 C 
HETATM   15  C5  UNL     1      29.130   1.459  53.763  1.00  0.00    -0.020 C 
HETATM   16  C4  UNL     1      29.552   0.227  53.627  1.00  0.00     0.026 C 
HETATM   17  C3  UNL     1      28.681  -0.879  53.258  1.00  0.00     0.031 C 
HETATM   18  C2  UNL     1      27.488  -0.882  52.695  1.00  0.00    -0.035 C 
HETATM   19  C1  UNL     1      26.791  -2.180  52.417  1.00  0.00     0.050 C 
HETATM   20  C23 UNL     1      26.767   0.316  52.309  1.00  0.00     0.016 C 
BRANCH  17  21
HETATM   21  N1  UNL     1      29.184  -2.183  53.546  1.00  0.00    -0.399 N 
HETATM   22  H4  UNL     1      29.161  -2.529  54.544  1.00  0.00     0.156 HD
HETATM   23  H5  UNL     1      29.499  -2.566  52.643  1.00  0.00     0.156 HD
ENDBRANCH  17  21
ENDBRANCH  12  13
ENDBRANCH  10  11
ENDBRANCH   1  10
BRANCH   6  24
HETATM   24  N5  UNL     1      26.757   8.402  48.358  1.00  0.00    -0.340 N 
HETATM   25  H15 UNL     1      27.270   9.094  48.929  1.00  0.00     0.167 HD
BRANCH  24  26
HETATM   26  C14 UNL     1      25.721   8.797  47.463  1.00  0.00     0.035 A 
HETATM   27  C15 UNL     1      25.874   8.562  46.107  1.00  0.00     0.029 A 
HETATM   28  C16 UNL     1      24.808   8.986  45.335  1.00  0.00     0.004 A 
HETATM   29  C17 UNL     1      23.664   9.595  45.820  1.00  0.00     0.019 A 
HETATM   30  C18 UNL     1      23.551   9.809  47.175  1.00  0.00     0.013 A 
HETATM   31 BR1  UNL     1      22.003  10.639  47.875  1.00  0.00    -0.051 Br
HETATM   32  C19 UNL     1      24.594   9.400  47.974  1.00  0.00     0.048 A 
ENDBRANCH  24  26
ENDBRANCH   6  24
TORSDOF 6
ENDMDL
MODEL 7
REMARK VINA RESULT:      -8.4      2.622      3.873
REMARK  6 active torsions:
REMARK  status: ('A' for Active; 'I' for Inactive)
REMARK    1  A    between atoms: C3_3  and  N1_4 
REMARK    2  A    between atoms: C7_8  and  C8_9 
REMARK    3  A    between atoms: C9_10  and  C10_11 
REMARK    4  A    between atoms: C10_11  and  N2_12 
REMARK    5  A    between atoms: C13_17  and  N5_18 
REMARK    6  A    between atoms: N5_18  and  C14_19 
ROOT
HETATM    1  N2  UNL     1      21.891   2.395  52.139  1.00  0.00    -0.353 N 
HETATM    2  C11 UNL     1      21.433   1.276  52.890  1.00  0.00     0.140 A 
HETATM    3  N3  UNL     1      21.676   0.492  53.957  1.00  0.00    -0.224 NA
HETATM    4  C12 UNL     1      20.838  -0.542  54.249  1.00  0.00     0.237 A 
HETATM    5  N4  UNL     1      19.781  -0.764  53.469  1.00  0.00    -0.224 NA
HETATM    6  C13 UNL     1      19.493  -0.000  52.378  1.00  0.00     0.141 A 
HETATM    7  C20 UNL     1      20.338   1.040  52.086  1.00  0.00     0.056 A 
HETATM    8  C21 UNL     1      20.766   2.191  51.275  1.00  0.00     0.123 A 
HETATM    9  C22 UNL     1      21.110   1.837  49.845  1.00  0.00     0.038 C 
ENDROOT
BRANCH   1  10
HETATM   10  C10 UNL     1      22.952   3.399  52.091  1.00  0.00     0.152 C 
BRANCH  10  11
HETATM   11  C9  UNL     1      24.163   2.776  52.678  1.00  0.00    -0.007 C 
HETATM   12  C8  UNL     1      24.961   1.834  52.200  1.00  0.00     0.005 C 
BRANCH  12  13
HETATM   13  C7  UNL     1      26.166   1.222  52.795  1.00  0.00    -0.054 C 
HETATM   14  C6  UNL     1      26.933   2.111  53.684  1.00  0.00     0.065 C 
HETATM   15  C5  UNL     1      28.359   1.703  53.720  1.00  0.00    -0.020 C 
HETATM   16  C4  UNL     1      29.081   0.624  53.549  1.00  0.00     0.026 C 
HETATM   17  C3  UNL     1      28.511  -0.673  53.221  1.00  0.00     0.031 C 
HETATM   18  C2  UNL     1      27.331  -0.993  52.726  1.00  0.00    -0.035 C 
HETATM   19  C1  UNL     1      26.984  -2.430  52.476  1.00  0.00     0.050 C 
HETATM   20  C23 UNL     1      26.300  -0.028  52.392  1.00  0.00     0.016 C 
BRANCH  17  21
HETATM   21  N1  UNL     1      29.354  -1.798  53.469  1.00  0.00    -0.399 N 
HETATM   22  H4  UNL     1      29.757  -2.323  52.646  1.00  0.00     0.156 HD
HETATM   23  H5  UNL     1      29.409  -1.885  54.494  1.00  0.00     0.156 HD
ENDBRANCH  17  21
ENDBRANCH  12  13
ENDBRANCH  10  11
ENDBRANCH   1  10
BRANCH   6  24
HETATM   24  N5  UNL     1      18.371  -0.213  51.527  1.00  0.00    -0.340 N 
HETATM   25  H15 UNL     1      18.530  -0.756  50.662  1.00  0.00     0.167 HD
BRANCH  24  26
HETATM   26  C14 UNL     1      17.086   0.303  51.857  1.00  0.00     0.035 A 
HETATM   27  C15 UNL     1      16.200  -0.492  52.564  1.00  0.00     0.029 A 
HETATM   28  C16 UNL     1      14.984   0.111  52.828  1.00  0.00     0.004 A 
HETATM   29  C17 UNL     1      14.629   1.392  52.445  1.00  0.00     0.019 A 
HETATM   30  C18 UNL     1      15.539   2.149  51.743  1.00  0.00     0.013 A 
HETATM   31 BR1  UNL     1      15.090   3.905  51.202  1.00  0.00    -0.051 Br
HETATM   32  C19 UNL     1      16.760   1.581  51.462  1.00  0.00     0.048 A 
ENDBRANCH  24  26
ENDBRANCH   6  24
TORSDOF 6
ENDMDL
MODEL 8
REMARK VINA RESULT:      -8.4      4.967      8.482
REMARK  6 active torsions:
REMARK  status: ('A' for Active; 'I' for Inactive)
REMARK    1  A    between atoms: C3_3  and  N1_4 
REMARK    2  A    between atoms: C7_8  and  C8_9 
REMARK    3  A    between atoms: C9_10  and  C10_11 
REMARK    4  A    between atoms: C10_11  and  N2_12 
REMARK    5  A    between atoms: C13_17  and  N5_18 
REMARK    6  A    between atoms: N5_18  and  C14_19 
ROOT
HETATM    1  N2  UNL     1      24.739   5.355  49.092  1.00  0.00    -0.353 N 
HETATM    2  C11 UNL     1      25.298   6.430  48.345  1.00  0.00     0.140 A 
HETATM    3  N3  UNL     1      25.038   7.402  47.450  1.00  0.00    -0.224 NA
HETATM    4  C12 UNL     1      26.036   8.232  47.037  1.00  0.00     0.237 A 
HETATM    5  N4  UNL     1      27.264   8.070  47.527  1.00  0.00    -0.224 NA
HETATM    6  C13 UNL     1      27.577   7.102  48.433  1.00  0.00     0.141 A 
HETATM    7  C20 UNL     1      26.571   6.267  48.849  1.00  0.00     0.056 A 
HETATM    8  C21 UNL     1      26.044   5.146  49.643  1.00  0.00     0.123 A 
HETATM    9  C22 UNL     1      26.677   3.812  49.313  1.00  0.00     0.038 C 
ENDROOT
BRANCH   1  10
HETATM   10  C10 UNL     1      23.485   4.643  49.331  1.00  0.00     0.152 C 
BRANCH  10  11
HETATM   11  C9  UNL     1      23.788   3.539  50.273  1.00  0.00    -0.007 C 
HETATM   12  C8  UNL     1      23.103   2.444  50.563  1.00  0.00     0.005 C 
BRANCH  12  13
HETATM   13  C7  UNL     1      23.418   1.351  51.505  1.00  0.00    -0.054 C 
HETATM   14  C6  UNL     1      22.257   0.547  51.924  1.00  0.00     0.065 C 
HETATM   15  C5  UNL     1      22.497  -0.052  53.261  1.00  0.00    -0.020 C 
HETATM   16  C4  UNL     1      23.506  -0.425  54.008  1.00  0.00     0.026 C 
HETATM   17  C3  UNL     1      24.895  -0.305  53.591  1.00  0.00     0.031 C 
HETATM   18  C2  UNL     1      25.448   0.431  52.646  1.00  0.00    -0.035 C 
HETATM   19  C1  UNL     1      26.928   0.371  52.416  1.00  0.00     0.050 C 
HETATM   20  C23 UNL     1      24.710   1.329  51.778  1.00  0.00     0.016 C 
BRANCH  17  21
HETATM   21  N1  UNL     1      25.828  -1.109  54.313  1.00  0.00    -0.399 N 
HETATM   22  H4  UNL     1      26.604  -1.587  53.782  1.00  0.00     0.156 HD
HETATM   23  H5  UNL     1      25.533  -1.059  55.299  1.00  0.00     0.156 HD
ENDBRANCH  17  21
ENDBRANCH  12  13
ENDBRANCH  10  11
ENDBRANCH   1  10
BRANCH   6  24
HETATM   24  N5  UNL     1      28.879   6.905  48.975  1.00  0.00    -0.340 N 
HETATM   25  H15 UNL     1      28.972   6.928  50.004  1.00  0.00     0.167 HD
BRANCH  24  26
HETATM   26  C14 UNL     1      30.005   6.687  48.130  1.00  0.00     0.035 A 
HETATM   27  C15 UNL     1      30.650   7.777  47.569  1.00  0.00     0.029 A 
HETATM   28  C16 UNL     1      31.727   7.447  46.768  1.00  0.00     0.004 A 
HETATM   29  C17 UNL     1      32.168   6.160  46.514  1.00  0.00     0.019 A 
HETATM   30  C18 UNL     1      31.499   5.105  47.092  1.00  0.00     0.013 A 
HETATM   31 BR1  UNL     1      32.072   3.332  46.769  1.00  0.00    -0.051 Br
HETATM   32  C19 UNL     1      30.421   5.396  47.896  1.00  0.00     0.048 A 
ENDBRANCH  24  26
ENDBRANCH   6  24
TORSDOF 6
ENDMDL
MODEL 9
REMARK VINA RESULT:      -8.4      4.123      7.499
REMARK  6 active torsions:
REMARK  status: ('A' for Active; 'I' for Inactive)
REMARK    1  A    between atoms: C3_3  and  N1_4 
REMARK    2  A    between atoms: C7_8  and  C8_9 
REMARK    3  A    between atoms: C9_10  and  C10_11 
REMARK    4  A    between atoms: C10_11  and  N2_12 
REMARK    5  A    between atoms: C13_17  and  N5_18 
REMARK    6  A    between atoms: N5_18  and  C14_19 
ROOT
HETATM    1  N2  UNL     1      22.510   3.456  49.386  1.00  0.00    -0.353 N 
HETATM    2  C11 UNL     1      23.081   4.463  50.214  1.00  0.00     0.140 A 
HETATM    3  N3  UNL     1      23.162   4.941  51.469  1.00  0.00    -0.224 NA
HETATM    4  C12 UNL     1      23.925   6.039  51.733  1.00  0.00     0.237 A 
HETATM    5  N4  UNL     1      24.584   6.629  50.737  1.00  0.00    -0.224 NA
HETATM    6  C13 UNL     1      24.534   6.184  49.451  1.00  0.00     0.141 A 
HETATM    7  C20 UNL     1      23.766   5.078  49.187  1.00  0.00     0.056 A 
HETATM    8  C21 UNL     1      23.203   4.060  48.287  1.00  0.00     0.123 A 
HETATM    9  C22 UNL     1      22.316   4.627  47.200  1.00  0.00     0.038 C 
ENDROOT
BRANCH   1  10
HETATM   10  C10 UNL     1      21.629   2.290  49.424  1.00  0.00     0.152 C 
BRANCH  10  11
HETATM   11  C9  UNL     1      22.153   1.388  50.477  1.00  0.00    -0.007 C 
HETATM   12  C8  UNL     1      21.653   1.066  51.659  1.00  0.00     0.005 C 
BRANCH  12  13
HETATM   13  C7  UNL     1      22.187   0.163  52.700  1.00  0.00    -0.054 C 
HETATM   14  C6  UNL     1      21.191  -0.743  53.298  1.00  0.00     0.065 C 
HETATM   15  C5  UNL     1      21.596  -1.121  54.674  1.00  0.00    -0.020 C 
HETATM   16  C4  UNL     1      22.690  -1.241  55.383  1.00  0.00     0.026 C 
HETATM   17  C3  UNL     1      24.017  -0.970  54.853  1.00  0.00     0.031 C 
HETATM   18  C2  UNL     1      24.395  -0.289  53.789  1.00  0.00    -0.035 C 
HETATM   19  C1  UNL     1      25.851  -0.158  53.457  1.00  0.00     0.050 C 
HETATM   20  C23 UNL     1      23.479   0.369  52.876  1.00  0.00     0.016 C 
BRANCH  17  21
HETATM   21  N1  UNL     1      25.103  -1.525  55.595  1.00  0.00    -0.399 N 
HETATM   22  H4  UNL     1      25.141  -1.365  56.638  1.00  0.00     0.156 HD
HETATM   23  H5  UNL     1      25.689  -2.018  54.905  1.00  0.00     0.156 HD
ENDBRANCH  17  21
ENDBRANCH  12  13
ENDBRANCH  10  11
ENDBRANCH   1  10
BRANCH   6  24
HETATM   24  N5  UNL     1      25.229   6.792  48.367  1.00  0.00    -0.340 N 
HETATM   25  H15 UNL     1      24.675   7.376  47.718  1.00  0.00     0.167 HD
BRANCH  24  26
HETATM   26  C14 UNL     1      26.628   6.602  48.187  1.00  0.00     0.035 A 
HETATM   27  C15 UNL     1      27.213   5.429  48.632  1.00  0.00     0.029 A 
HETATM   28  C16 UNL     1      28.575   5.353  48.405  1.00  0.00     0.004 A 
HETATM   29  C17 UNL     1      29.337   6.331  47.792  1.00  0.00     0.019 A 
HETATM   30  C18 UNL     1      28.717   7.483  47.363  1.00  0.00     0.013 A 
HETATM   31 BR1  UNL     1      29.725   8.843  46.520  1.00  0.00    -0.051 Br
HETATM   32  C19 UNL     1      27.361   7.593  47.573  1.00  0.00     0.048 A 
ENDBRANCH  24  26
ENDBRANCH   6  24
TORSDOF 6
ENDMDL
