MODEL 1
REMARK VINA RESULT:      -8.0      0.000      0.000
REMARK  4 active torsions:
REMARK  status: ('A' for Active; 'I' for Inactive)
REMARK    1  A    between atoms: C3_3  and  C4_4 
REMARK    2  A    between atoms: N1_5  and  C5_6 
REMARK    3  A    between atoms: C10_13  and  N4_14 
REMARK       I    between atoms: N4_14  and  C11_15 
REMARK    4  A    between atoms: C15_20  and  C16_21 
ROOT
HETATM    1  C1  UNL     1      24.992   6.929  50.421  1.00  0.00     0.018 C 
HETATM    2  C2  UNL     1      25.385   5.833  50.052  1.00  0.00    -0.076 C 
HETATM    3  C3  UNL     1      25.823   4.536  49.622  1.00  0.00     0.034 C 
HETATM    4  C15 UNL     1      26.973   4.447  48.936  1.00  0.00     0.018 C 
ENDROOT
BRANCH   3   5
HETATM    5  C4  UNL     1      25.067   3.322  49.901  1.00  0.00     0.139 C 
HETATM    6  N1  UNL     1      24.682   3.363  51.121  1.00  0.00    -0.239 NA
BRANCH   6   7
HETATM    7  C5  UNL     1      23.919   2.264  51.606  1.00  0.00     0.163 A 
HETATM    8  N2  UNL     1      22.666   2.100  51.127  1.00  0.00    -0.222 NA
HETATM    9  C6  UNL     1      21.895   1.102  51.529  1.00  0.00     0.236 A 
HETATM   10  N3  UNL     1      22.306   0.198  52.431  1.00  0.00    -0.241 NA
HETATM   11  C7  UNL     1      23.545   0.295  52.954  1.00  0.00     0.072 A 
HETATM   12  C8  UNL     1      24.031  -0.607  53.892  1.00  0.00     0.035 A 
HETATM   13  C14 UNL     1      24.339   1.330  52.535  1.00  0.00     0.043 A 
HETATM   14  C9  UNL     1      25.312  -0.487  54.419  1.00  0.00     0.032 A 
HETATM   15  C10 UNL     1      26.068   0.587  53.950  1.00  0.00     0.035 A 
HETATM   16  C13 UNL     1      25.605   1.478  53.034  1.00  0.00     0.047 A 
BRANCH  15  17
HETATM   17  N4  UNL     1      27.396   0.722  54.488  1.00  0.00    -0.327 N 
HETATM   18  C11 UNL     1      28.297  -0.033  53.673  1.00  0.00     0.218 C 
HETATM   19  C12 UNL     1      29.759  -0.147  53.898  1.00  0.00     0.117 C 
HETATM   20  O1  UNL     1      27.688  -0.608  52.712  1.00  0.00    -0.274 OA
HETATM   21  H6  UNL     1      27.819   1.238  55.316  1.00  0.00     0.169 HD
ENDBRANCH  15  17
ENDBRANCH   6   7
ENDBRANCH   3   5
BRANCH   4  22
HETATM   22  C16 UNL     1      27.729   5.663  48.656  1.00  0.00    -0.025 C 
HETATM   23  C17 UNL     1      28.983   5.562  48.247  1.00  0.00     0.031 C 
ENDBRANCH   4  22
TORSDOF 4
ENDMDL
MODEL 2
REMARK VINA RESULT:      -7.9      2.668      5.683
REMARK  4 active torsions:
REMARK  status: ('A' for Active; 'I' for Inactive)
REMARK    1  A    between atoms: C3_3  and  C4_4 
REMARK    2  A    between atoms: N1_5  and  C5_6 
REMARK    3  A    between atoms: C10_13  and  N4_14 
REMARK       I    between atoms: N4_14  and  C11_15 
REMARK    4  A    between atoms: C15_20  and  C16_21 
ROOT
HETATM    1  C1  UNL     1      28.469   2.486  53.455  1.00  0.00     0.018 C 
HETATM    2  C2  UNL     1      27.842   1.472  53.190  1.00  0.00    -0.076 C 
HETATM    3  C3  UNL     1      27.091   0.294  52.863  1.00  0.00     0.034 C 
HETATM    4  C15 UNL     1      27.671  -0.902  53.043  1.00  0.00     0.018 C 
ENDROOT
BRANCH   3   5
HETATM    5  C4  UNL     1      25.730   0.352  52.346  1.00  0.00     0.139 C 
HETATM    6  N1  UNL     1      25.005   0.974  53.198  1.00  0.00    -0.239 NA
BRANCH   6   7
HETATM    7  C5  UNL     1      23.627   1.145  52.887  1.00  0.00     0.163 A 
HETATM    8  N2  UNL     1      22.836   0.049  52.891  1.00  0.00    -0.222 NA
HETATM    9  C6  UNL     1      21.544   0.126  52.613  1.00  0.00     0.236 A 
HETATM   10  N3  UNL     1      20.944   1.287  52.311  1.00  0.00    -0.241 NA
HETATM   11  C7  UNL     1      21.668   2.425  52.288  1.00  0.00     0.072 A 
HETATM   12  C8  UNL     1      21.109   3.659  51.982  1.00  0.00     0.035 A 
HETATM   13  C14 UNL     1      23.005   2.340  52.576  1.00  0.00     0.043 A 
HETATM   14  C9  UNL     1      21.875   4.818  51.964  1.00  0.00     0.032 A 
HETATM   15  C10 UNL     1      23.228   4.663  52.267  1.00  0.00     0.035 A 
HETATM   16  C13 UNL     1      23.788   3.462  52.567  1.00  0.00     0.047 A 
BRANCH  15  17
HETATM   17  N4  UNL     1      24.032   5.856  52.252  1.00  0.00    -0.327 N 
HETATM   18  C11 UNL     1      24.504   6.071  50.919  1.00  0.00     0.218 C 
HETATM   19  C12 UNL     1      25.365   7.200  50.490  1.00  0.00     0.117 C 
HETATM   20  O1  UNL     1      24.090   5.164  50.124  1.00  0.00    -0.274 OA
HETATM   21  H6  UNL     1      24.330   6.567  52.984  1.00  0.00     0.169 HD
ENDBRANCH  15  17
ENDBRANCH   6   7
ENDBRANCH   3   5
BRANCH   4  22
HETATM   22  C16 UNL     1      29.034  -0.960  53.561  1.00  0.00    -0.025 C 
HETATM   23  C17 UNL     1      29.738  -2.069  53.401  1.00  0.00     0.031 C 
ENDBRANCH   4  22
TORSDOF 4
ENDMDL
MODEL 3
REMARK VINA RESULT:      -7.8      1.135      1.284
REMARK  4 active torsions:
REMARK  status: ('A' for Active; 'I' for Inactive)
REMARK    1  A    between atoms: C3_3  and  C4_4 
REMARK    2  A    between atoms: N1_5  and  C5_6 
REMARK    3  A    between atoms: C10_13  and  N4_14 
REMARK       I    between atoms: N4_14  and  C11_15 
REMARK    4  A    between atoms: C15_20  and  C16_21 
ROOT
HETATM    1  C1  UNL     1      23.209   6.161  48.114  1.00  0.00     0.018 C 
HETATM    2  C2  UNL     1      23.682   5.264  48.794  1.00  0.00    -0.076 C 
HETATM    3  C3  UNL     1      24.215   4.197  49.591  1.00  0.00     0.034 C 
HETATM    4  C15 UNL     1      25.548   4.093  49.709  1.00  0.00     0.018 C 
ENDROOT
BRANCH   3   5
HETATM    5  C4  UNL     1      23.365   3.227  50.272  1.00  0.00     0.139 C 
HETATM    6  N1  UNL     1      24.119   2.429  50.930  1.00  0.00    -0.239 NA
BRANCH   6   7
HETATM    7  C5  UNL     1      23.488   1.394  51.675  1.00  0.00     0.163 A 
HETATM    8  N2  UNL     1      22.225   1.050  51.338  1.00  0.00    -0.222 NA
HETATM    9  C6  UNL     1      21.570   0.098  51.983  1.00  0.00     0.236 A 
HETATM   10  N3  UNL     1      22.115  -0.580  53.004  1.00  0.00    -0.241 NA
HETATM   11  C7  UNL     1      23.372  -0.294  53.399  1.00  0.00     0.072 A 
HETATM   12  C8  UNL     1      23.994  -0.957  54.449  1.00  0.00     0.035 A 
HETATM   13  C14 UNL     1      24.045   0.693  52.728  1.00  0.00     0.043 A 
HETATM   14  C9  UNL     1      25.291  -0.645  54.838  1.00  0.00     0.032 A 
HETATM   15  C10 UNL     1      25.921   0.367  54.114  1.00  0.00     0.035 A 
HETATM   16  C13 UNL     1      25.324   1.025  53.086  1.00  0.00     0.047 A 
BRANCH  15  17
HETATM   17  N4  UNL     1      27.264   0.700  54.507  1.00  0.00    -0.327 N 
HETATM   18  C11 UNL     1      28.155  -0.275  53.959  1.00  0.00     0.218 C 
HETATM   19  C12 UNL     1      29.627  -0.282  54.138  1.00  0.00     0.117 C 
HETATM   20  O1  UNL     1      27.526  -1.156  53.284  1.00  0.00    -0.274 OA
HETATM   21  H6  UNL     1      27.703   1.475  55.087  1.00  0.00     0.169 HD
ENDBRANCH  15  17
ENDBRANCH   6   7
ENDBRANCH   3   5
BRANCH   4  22
HETATM   22  C16 UNL     1      26.398   5.063  49.028  1.00  0.00    -0.025 C 
HETATM   23  C17 UNL     1      27.629   4.716  48.690  1.00  0.00     0.031 C 
ENDBRANCH   4  22
TORSDOF 4
ENDMDL
MODEL 4
REMARK VINA RESULT:      -7.8      2.015      4.531
REMARK  4 active torsions:
REMARK  status: ('A' for Active; 'I' for Inactive)
REMARK    1  A    between atoms: C3_3  and  C4_4 
REMARK    2  A    between atoms: N1_5  and  C5_6 
REMARK    3  A    between atoms: C10_13  and  N4_14 
REMARK       I    between atoms: N4_14  and  C11_15 
REMARK    4  A    between atoms: C15_20  and  C16_21 
ROOT
HETATM    1  C1  UNL     1      28.038   5.137  48.507  1.00  0.00     0.018 C 
HETATM    2  C2  UNL     1      27.155   4.498  49.057  1.00  0.00    -0.076 C 
HETATM    3  C3  UNL     1      26.135   3.736  49.717  1.00  0.00     0.034 C 
HETATM    4  C15 UNL     1      24.862   4.148  49.610  1.00  0.00     0.018 C 
ENDROOT
BRANCH   3   5
HETATM    5  C4  UNL     1      26.430   2.540  50.496  1.00  0.00     0.139 C 
HETATM    6  N1  UNL     1      25.564   2.451  51.435  1.00  0.00    -0.239 NA
BRANCH   6   7
HETATM    7  C5  UNL     1      25.669   1.344  52.322  1.00  0.00     0.163 A 
HETATM    8  N2  UNL     1      26.901   0.845  52.571  1.00  0.00    -0.222 NA
HETATM    9  C6  UNL     1      27.081  -0.183  53.385  1.00  0.00     0.236 A 
HETATM   10  N3  UNL     1      26.060  -0.790  54.008  1.00  0.00    -0.241 NA
HETATM   11  C7  UNL     1      24.802  -0.349  53.811  1.00  0.00     0.072 A 
HETATM   12  C8  UNL     1      23.701  -0.933  54.425  1.00  0.00     0.035 A 
HETATM   13  C14 UNL     1      24.620   0.716  52.967  1.00  0.00     0.043 A 
HETATM   14  C9  UNL     1      22.412  -0.461  54.206  1.00  0.00     0.032 A 
HETATM   15  C10 UNL     1      22.297   0.624  53.338  1.00  0.00     0.035 A 
HETATM   16  C13 UNL     1      23.364   1.205  52.729  1.00  0.00     0.047 A 
BRANCH  15  17
HETATM   17  N4  UNL     1      20.967   1.122  53.103  1.00  0.00    -0.327 N 
HETATM   18  C11 UNL     1      20.492   0.586  51.865  1.00  0.00     0.218 C 
HETATM   19  C12 UNL     1      19.161   0.863  51.272  1.00  0.00     0.117 C 
HETATM   20  O1  UNL     1      21.359  -0.172  51.319  1.00  0.00    -0.274 OA
HETATM   21  H6  UNL     1      20.307   1.768  53.630  1.00  0.00     0.169 HD
ENDBRANCH  15  17
ENDBRANCH   6   7
ENDBRANCH   3   5
BRANCH   4  22
HETATM   22  C16 UNL     1      24.566   5.345  48.831  1.00  0.00    -0.025 C 
HETATM   23  C17 UNL     1      23.409   5.430  48.195  1.00  0.00     0.031 C 
ENDBRANCH   4  22
TORSDOF 4
ENDMDL
MODEL 5
REMARK VINA RESULT:      -7.6      1.418      2.042
REMARK  4 active torsions:
REMARK  status: ('A' for Active; 'I' for Inactive)
REMARK    1  A    between atoms: C3_3  and  C4_4 
REMARK    2  A    between atoms: N1_5  and  C5_6 
REMARK    3  A    between atoms: C10_13  and  N4_14 
REMARK       I    between atoms: N4_14  and  C11_15 
REMARK    4  A    between atoms: C15_20  and  C16_21 
ROOT
HETATM    1  C1  UNL     1      27.182   4.396  48.905  1.00  0.00     0.018 C 
HETATM    2  C2  UNL     1      26.300   5.010  49.487  1.00  0.00    -0.076 C 
HETATM    3  C3  UNL     1      25.258   5.709  50.182  1.00  0.00     0.034 C 
HETATM    4  C15 UNL     1      25.357   7.042  50.305  1.00  0.00     0.018 C 
ENDROOT
BRANCH   3   5
HETATM    5  C4  UNL     1      24.105   5.028  50.755  1.00  0.00     0.139 C 
HETATM    6  N1  UNL     1      24.489   3.882  51.180  1.00  0.00    -0.239 NA
BRANCH   6   7
HETATM    7  C5  UNL     1      23.510   3.044  51.783  1.00  0.00     0.163 A 
HETATM    8  N2  UNL     1      22.219   3.445  51.742  1.00  0.00    -0.222 NA
HETATM    9  C6  UNL     1      21.251   2.721  52.280  1.00  0.00     0.236 A 
HETATM   10  N3  UNL     1      21.488   1.553  52.897  1.00  0.00    -0.241 NA
HETATM   11  C7  UNL     1      22.751   1.087  52.977  1.00  0.00     0.072 A 
HETATM   12  C8  UNL     1      23.064  -0.114  53.602  1.00  0.00     0.035 A 
HETATM   13  C14 UNL     1      23.750   1.840  52.419  1.00  0.00     0.043 A 
HETATM   14  C9  UNL     1      24.374  -0.575  53.674  1.00  0.00     0.032 A 
HETATM   15  C10 UNL     1      25.342   0.239  53.085  1.00  0.00     0.035 A 
HETATM   16  C13 UNL     1      25.050   1.416  52.472  1.00  0.00     0.047 A 
BRANCH  15  17
HETATM   17  N4  UNL     1      26.702  -0.227  53.153  1.00  0.00    -0.327 N 
HETATM   18  C11 UNL     1      27.325   0.348  54.304  1.00  0.00     0.218 C 
HETATM   19  C12 UNL     1      28.728   0.112  54.723  1.00  0.00     0.117 C 
HETATM   20  O1  UNL     1      26.520   1.102  54.945  1.00  0.00    -0.274 OA
HETATM   21  H6  UNL     1      27.301  -0.873  52.557  1.00  0.00     0.169 HD
ENDBRANCH  15  17
ENDBRANCH   6   7
ENDBRANCH   3   5
BRANCH   4  22
HETATM   22  C16 UNL     1      26.512   7.724  49.731  1.00  0.00    -0.025 C 
HETATM   23  C17 UNL     1      26.850   8.917  50.192  1.00  0.00     0.031 C 
ENDBRANCH   4  22
TORSDOF 4
ENDMDL
MODEL 6
REMARK VINA RESULT:      -7.5      2.973      5.801
REMARK  4 active torsions:
REMARK  status: ('A' for Active; 'I' for Inactive)
REMARK    1  A    between atoms: C3_3  and  C4_4 
REMARK    2  A    between atoms: N1_5  and  C5_6 
REMARK    3  A    between atoms: C10_13  and  N4_14 
REMARK       I    between atoms: N4_14  and  C11_15 
REMARK    4  A    between atoms: C15_20  and  C16_21 
ROOT
HETATM    1  C1  UNL     1      28.657   2.150  53.374  1.00  0.00     0.018 C 
HETATM    2  C2  UNL     1      27.485   2.043  53.046  1.00  0.00    -0.076 C 
HETATM    3  C3  UNL     1      26.103   1.915  52.684  1.00  0.00     0.034 C 
HETATM    4  C15 UNL     1      25.705   2.410  51.503  1.00  0.00     0.018 C 
ENDROOT
BRANCH   3   5
HETATM    5  C4  UNL     1      25.124   1.270  53.550  1.00  0.00     0.139 C 
HETATM    6  N1  UNL     1      24.295   0.633  52.810  1.00  0.00    -0.239 NA
BRANCH   6   7
HETATM    7  C5  UNL     1      23.246  -0.075  53.460  1.00  0.00     0.163 A 
HETATM    8  N2  UNL     1      23.573  -0.895  54.483  1.00  0.00    -0.222 NA
HETATM    9  C6  UNL     1      22.654  -1.588  55.138  1.00  0.00     0.236 A 
HETATM   10  N3  UNL     1      21.351  -1.520  54.828  1.00  0.00    -0.241 NA
HETATM   11  C7  UNL     1      20.947  -0.723  53.818  1.00  0.00     0.072 A 
HETATM   12  C8  UNL     1      19.614  -0.608  53.446  1.00  0.00     0.035 A 
HETATM   13  C14 UNL     1      21.902  -0.008  53.144  1.00  0.00     0.043 A 
HETATM   14  C9  UNL     1      19.220   0.221  52.402  1.00  0.00     0.032 A 
HETATM   15  C10 UNL     1      20.240   0.920  51.758  1.00  0.00     0.035 A 
HETATM   16  C13 UNL     1      21.549   0.817  52.110  1.00  0.00     0.047 A 
BRANCH  15  17
HETATM   17  N4  UNL     1      19.846   1.782  50.674  1.00  0.00    -0.327 N 
HETATM   18  C11 UNL     1      19.490   3.058  51.213  1.00  0.00     0.218 C 
HETATM   19  C12 UNL     1      19.029   4.221  50.416  1.00  0.00     0.117 C 
HETATM   20  O1  UNL     1      19.618   3.083  52.481  1.00  0.00    -0.274 OA
HETATM   21  H6  UNL     1      19.770   1.670  49.620  1.00  0.00     0.169 HD
ENDBRANCH  15  17
ENDBRANCH   6   7
ENDBRANCH   3   5
BRANCH   4  22
HETATM   22  C16 UNL     1      26.685   3.055  50.636  1.00  0.00    -0.025 C 
HETATM   23  C17 UNL     1      26.276   3.626  49.514  1.00  0.00     0.031 C 
ENDBRANCH   4  22
TORSDOF 4
ENDMDL
MODEL 7
REMARK VINA RESULT:      -7.5      1.549      2.115
REMARK  4 active torsions:
REMARK  status: ('A' for Active; 'I' for Inactive)
REMARK    1  A    between atoms: C3_3  and  C4_4 
REMARK    2  A    between atoms: N1_5  and  C5_6 
REMARK    3  A    between atoms: C10_13  and  N4_14 
REMARK       I    between atoms: N4_14  and  C11_15 
REMARK    4  A    between atoms: C15_20  and  C16_21 
ROOT
HETATM    1  C1  UNL     1      26.994   4.114  49.287  1.00  0.00     0.018 C 
HETATM    2  C2  UNL     1      25.792   4.327  49.301  1.00  0.00    -0.076 C 
HETATM    3  C3  UNL     1      24.377   4.559  49.336  1.00  0.00     0.034 C 
HETATM    4  C15 UNL     1      23.905   5.700  48.809  1.00  0.00     0.018 C 
ENDROOT
BRANCH   3   5
HETATM    5  C4  UNL     1      23.441   3.607  49.920  1.00  0.00     0.139 C 
HETATM    6  N1  UNL     1      23.776   3.415  51.140  1.00  0.00    -0.239 NA
BRANCH   6   7
HETATM    7  C5  UNL     1      22.986   2.511  51.904  1.00  0.00     0.163 A 
HETATM    8  N2  UNL     1      21.654   2.730  51.966  1.00  0.00    -0.222 NA
HETATM    9  C6  UNL     1      20.852   1.934  52.656  1.00  0.00     0.236 A 
HETATM   10  N3  UNL     1      21.308   0.868  53.331  1.00  0.00    -0.241 NA
HETATM   11  C7  UNL     1      22.626   0.584  53.315  1.00  0.00     0.072 A 
HETATM   12  C8  UNL     1      23.163  -0.504  53.992  1.00  0.00     0.035 A 
HETATM   13  C14 UNL     1      23.452   1.411  52.600  1.00  0.00     0.043 A 
HETATM   14  C9  UNL     1      24.526  -0.777  53.962  1.00  0.00     0.032 A 
HETATM   15  C10 UNL     1      25.310   0.102  53.216  1.00  0.00     0.035 A 
HETATM   16  C13 UNL     1      24.799   1.171  52.550  1.00  0.00     0.047 A 
BRANCH  15  17
HETATM   17  N4  UNL     1      26.723  -0.170  53.177  1.00  0.00    -0.327 N 
HETATM   18  C11 UNL     1      27.333   0.416  54.330  1.00  0.00     0.218 C 
HETATM   19  C12 UNL     1      28.779   0.356  54.654  1.00  0.00     0.117 C 
HETATM   20  O1  UNL     1      26.474   1.008  55.064  1.00  0.00    -0.274 OA
HETATM   21  H6  UNL     1      27.366  -0.686  52.506  1.00  0.00     0.169 HD
ENDBRANCH  15  17
ENDBRANCH   6   7
ENDBRANCH   3   5
BRANCH   4  22
HETATM   22  C16 UNL     1      24.842   6.653  48.225  1.00  0.00    -0.025 C 
HETATM   23  C17 UNL     1      24.398   7.535  47.344  1.00  0.00     0.031 C 
ENDBRANCH   4  22
TORSDOF 4
ENDMDL
MODEL 8
REMARK VINA RESULT:      -7.4      2.868      5.813
REMARK  4 active torsions:
REMARK  status: ('A' for Active; 'I' for Inactive)
REMARK    1  A    between atoms: C3_3  and  C4_4 
REMARK    2  A    between atoms: N1_5  and  C5_6 
REMARK    3  A    between atoms: C10_13  and  N4_14 
REMARK       I    between atoms: N4_14  and  C11_15 
REMARK    4  A    between atoms: C15_20  and  C16_21 
ROOT
HETATM    1  C1  UNL     1      28.668   2.485  53.771  1.00  0.00     0.018 C 
HETATM    2  C2  UNL     1      28.028   1.448  53.855  1.00  0.00    -0.076 C 
HETATM    3  C3  UNL     1      27.256   0.243  53.954  1.00  0.00     0.034 C 
HETATM    4  C15 UNL     1      27.832  -0.914  53.596  1.00  0.00     0.018 C 
ENDROOT
BRANCH   3   5
HETATM    5  C4  UNL     1      25.877   0.234  54.426  1.00  0.00     0.139 C 
HETATM    6  N1  UNL     1      25.117  -0.030  53.430  1.00  0.00    -0.239 NA
BRANCH   6   7
HETATM    7  C5  UNL     1      23.716  -0.089  53.672  1.00  0.00     0.163 A 
HETATM    8  N2  UNL     1      23.245  -1.106  54.429  1.00  0.00    -0.222 NA
HETATM    9  C6  UNL     1      21.955  -1.229  54.699  1.00  0.00     0.236 A 
HETATM   10  N3  UNL     1      21.041  -0.361  54.240  1.00  0.00    -0.241 NA
HETATM   11  C7  UNL     1      21.434   0.680  53.478  1.00  0.00     0.072 A 
HETATM   12  C8  UNL     1      20.539   1.613  52.972  1.00  0.00     0.035 A 
HETATM   13  C14 UNL     1      22.770   0.803  53.202  1.00  0.00     0.043 A 
HETATM   14  C9  UNL     1      20.967   2.679  52.188  1.00  0.00     0.032 A 
HETATM   15  C10 UNL     1      22.339   2.747  51.944  1.00  0.00     0.035 A 
HETATM   16  C13 UNL     1      23.226   1.840  52.432  1.00  0.00     0.047 A 
BRANCH  15  17
HETATM   17  N4  UNL     1      22.795   3.845  51.134  1.00  0.00    -0.327 N 
HETATM   18  C11 UNL     1      22.870   3.408  49.774  1.00  0.00     0.218 C 
HETATM   19  C12 UNL     1      23.299   4.249  48.630  1.00  0.00     0.117 C 
HETATM   20  O1  UNL     1      22.519   2.188  49.654  1.00  0.00    -0.274 OA
HETATM   21  H6  UNL     1      23.071   4.853  51.328  1.00  0.00     0.169 HD
ENDBRANCH  15  17
ENDBRANCH   6   7
ENDBRANCH   3   5
BRANCH   4  22
HETATM   22  C16 UNL     1      29.212  -0.905  53.123  1.00  0.00    -0.025 C 
HETATM   23  C17 UNL     1      30.141  -1.522  53.835  1.00  0.00     0.031 C 
ENDBRANCH   4  22
TORSDOF 4
ENDMDL
MODEL 9
REMARK VINA RESULT:      -7.1      2.963      6.536
REMARK  4 active torsions:
REMARK  status: ('A' for Active; 'I' for Inactive)
REMARK    1  A    between atoms: C3_3  and  C4_4 
REMARK    2  A    between atoms: N1_5  and  C5_6 
REMARK    3  A    between atoms: C10_13  and  N4_14 
REMARK       I    between atoms: N4_14  and  C11_15 
REMARK    4  A    between atoms: C15_20  and  C16_21 
ROOT
HETATM    1  C1  UNL     1      28.418   2.368  53.488  1.00  0.00     0.018 C 
HETATM    2  C2  UNL     1      27.291   2.081  53.117  1.00  0.00    -0.076 C 
HETATM    3  C3  UNL     1      25.961   1.768  52.680  1.00  0.00     0.034 C 
HETATM    4  C15 UNL     1      25.725   0.546  52.180  1.00  0.00     0.018 C 
ENDROOT
BRANCH   3   5
HETATM    5  C4  UNL     1      24.865   2.726  52.759  1.00  0.00     0.139 C 
HETATM    6  N1  UNL     1      24.674   3.211  51.590  1.00  0.00    -0.239 NA
BRANCH   6   7
HETATM    7  C5  UNL     1      23.638   4.175  51.440  1.00  0.00     0.163 A 
HETATM    8  N2  UNL     1      22.371   3.792  51.712  1.00  0.00    -0.222 NA
HETATM    9  C6  UNL     1      21.353   4.631  51.597  1.00  0.00     0.236 A 
HETATM   10  N3  UNL     1      21.515   5.904  51.206  1.00  0.00    -0.241 NA
HETATM   11  C7  UNL     1      22.751   6.360  50.917  1.00  0.00     0.072 A 
HETATM   12  C8  UNL     1      22.987   7.665  50.506  1.00  0.00     0.035 A 
HETATM   13  C14 UNL     1      23.801   5.488  51.037  1.00  0.00     0.043 A 
HETATM   14  C9  UNL     1      24.269   8.114  50.212  1.00  0.00     0.032 A 
HETATM   15  C10 UNL     1      25.293   7.177  50.356  1.00  0.00     0.035 A 
HETATM   16  C13 UNL     1      25.076   5.896  50.756  1.00  0.00     0.047 A 
BRANCH  15  17
HETATM   17  N4  UNL     1      26.626   7.629  50.056  1.00  0.00    -0.327 N 
HETATM   18  C11 UNL     1      26.939   7.264  48.709  1.00  0.00     0.218 C 
HETATM   19  C12 UNL     1      28.222   7.553  48.023  1.00  0.00     0.117 C 
HETATM   20  O1  UNL     1      25.969   6.650  48.153  1.00  0.00    -0.274 OA
HETATM   21  H6  UNL     1      27.379   8.147  50.598  1.00  0.00     0.169 HD
ENDBRANCH  15  17
ENDBRANCH   6   7
ENDBRANCH   3   5
BRANCH   4  22
HETATM   22  C16 UNL     1      26.823  -0.413  52.100  1.00  0.00    -0.025 C 
HETATM   23  C17 UNL     1      26.685  -1.599  52.670  1.00  0.00     0.031 C 
ENDBRANCH   4  22
TORSDOF 4
ENDMDL
