MODEL 1
REMARK VINA RESULT:      -7.4      0.000      0.000
REMARK  8 active torsions:
REMARK  status: ('A' for Active; 'I' for Inactive)
REMARK    1  A    between atoms: O1_2  and  C2_3 
REMARK    2  A    between atoms: C4_5  and  O2_6 
REMARK    3  A    between atoms: O2_6  and  C5_7 
REMARK    4  A    between atoms: C11_14  and  N1_15 
REMARK    5  A    between atoms: N1_15  and  C12_16 
REMARK    6  A    between atoms: C12_16  and  C15_20 
REMARK    7  A    between atoms: C13_17  and  C14_18 
REMARK    8  A    between atoms: C15_20  and  C16_21 
ROOT
HETATM    1  C2  UNL     1      26.801   4.652  49.213  1.00  0.00     0.073 A 
HETATM    2  C3  UNL     1      26.772   3.462  49.908  1.00  0.00     0.074 A 
HETATM    3  C4  UNL     1      25.819   3.073  50.825  1.00  0.00     0.088 A 
HETATM    4  C10 UNL     1      24.830   4.023  51.009  1.00  0.00     0.072 A 
HETATM    5  C11 UNL     1      23.804   3.803  51.882  1.00  0.00     0.144 A 
HETATM    6  N2  UNL     1      22.836   4.709  52.076  1.00  0.00    -0.223 NA
HETATM    7  C17 UNL     1      22.799   5.885  51.436  1.00  0.00     0.236 A 
HETATM    8  N3  UNL     1      23.800   6.117  50.575  1.00  0.00    -0.241 NA
HETATM    9  C18 UNL     1      24.785   5.235  50.356  1.00  0.00     0.077 A 
HETATM   10  C19 UNL     1      25.767   5.560  49.454  1.00  0.00     0.069 A 
ENDROOT
BRANCH   5  11
HETATM   11  N1  UNL     1      23.655   2.628  52.657  1.00  0.00    -0.344 N 
HETATM   12  H14 UNL     1      23.929   2.047  53.468  1.00  0.00     0.167 HD
BRANCH  11  13
HETATM   13  C12 UNL     1      22.722   1.585  52.361  1.00  0.00     0.010 C 
HETATM   14  C13 UNL     1      22.189   1.425  51.134  1.00  0.00     0.013 C 
BRANCH  14  15
HETATM   15  C14 UNL     1      21.245   0.518  50.472  1.00  0.00     0.143 C 
HETATM   16 CL1  UNL     1      21.363   0.850  48.712  1.00  0.00    -0.126 Cl
ENDBRANCH  14  15
BRANCH  13  17
HETATM   17  C15 UNL     1      22.292   0.615  53.432  1.00  0.00     0.088 C 
BRANCH  17  18
HETATM   18  C16 UNL     1      23.197  -0.599  53.430  1.00  0.00     0.228 C 
HETATM   19  F1  UNL     1      23.636  -0.835  54.710  1.00  0.00    -0.255 F 
ENDBRANCH  17  18
ENDBRANCH  13  17
ENDBRANCH  11  13
ENDBRANCH   5  11
BRANCH   3  20
HETATM   20  O2  UNL     1      25.758   1.905  51.530  1.00  0.00    -0.345 OA
BRANCH  20  21
HETATM   21  C5  UNL     1      26.859   1.187  51.996  1.00  0.00     0.133 C 
HETATM   22  C6  UNL     1      27.258   1.649  53.405  1.00  0.00     0.058 C 
HETATM   23  C7  UNL     1      26.487   0.810  54.370  1.00  0.00     0.170 C 
HETATM   24  O3  UNL     1      27.015  -0.472  54.437  1.00  0.00    -0.391 OA
HETATM   25  C8  UNL     1      27.332  -0.989  53.194  1.00  0.00     0.170 C 
HETATM   26  C9  UNL     1      26.596  -0.302  52.070  1.00  0.00     0.058 C 
ENDBRANCH  20  21
ENDBRANCH   3  20
BRANCH   1  27
HETATM   27  O1  UNL     1      27.806   4.945  48.312  1.00  0.00    -0.356 OA
HETATM   28  C1  UNL     1      28.223   6.281  48.181  1.00  0.00     0.210 C 
ENDBRANCH   1  27
TORSDOF 8
ENDMDL
MODEL 2
REMARK VINA RESULT:      -7.4      1.759      2.104
REMARK  8 active torsions:
REMARK  status: ('A' for Active; 'I' for Inactive)
REMARK    1  A    between atoms: O1_2  and  C2_3 
REMARK    2  A    between atoms: C4_5  and  O2_6 
REMARK    3  A    between atoms: O2_6  and  C5_7 
REMARK    4  A    between atoms: C11_14  and  N1_15 
REMARK    5  A    between atoms: N1_15  and  C12_16 
REMARK    6  A    between atoms: C12_16  and  C15_20 
REMARK    7  A    between atoms: C13_17  and  C14_18 
REMARK    8  A    between atoms: C15_20  and  C16_21 
ROOT
HETATM    1  C2  UNL     1      26.310   4.672  49.399  1.00  0.00     0.073 A 
HETATM    2  C3  UNL     1      26.427   3.448  50.022  1.00  0.00     0.074 A 
HETATM    3  C4  UNL     1      25.536   2.900  50.921  1.00  0.00     0.088 A 
HETATM    4  C10 UNL     1      24.448   3.718  51.167  1.00  0.00     0.072 A 
HETATM    5  C11 UNL     1      23.465   3.331  52.033  1.00  0.00     0.144 A 
HETATM    6  N2  UNL     1      22.403   4.108  52.286  1.00  0.00    -0.223 NA
HETATM    7  C17 UNL     1      22.223   5.307  51.717  1.00  0.00     0.236 A 
HETATM    8  N3  UNL     1      23.180   5.701  50.865  1.00  0.00    -0.241 NA
HETATM    9  C18 UNL     1      24.257   4.953  50.587  1.00  0.00     0.077 A 
HETATM   10  C19 UNL     1      25.183   5.440  49.700  1.00  0.00     0.069 A 
ENDROOT
BRANCH   5  11
HETATM   11  N1  UNL     1      23.462   2.104  52.737  1.00  0.00    -0.344 N 
HETATM   12  H14 UNL     1      23.909   1.449  53.401  1.00  0.00     0.167 HD
BRANCH  11  13
HETATM   13  C12 UNL     1      22.424   1.125  52.636  1.00  0.00     0.010 C 
HETATM   14  C13 UNL     1      21.782   0.645  53.719  1.00  0.00     0.013 C 
BRANCH  14  15
HETATM   15  C14 UNL     1      20.714  -0.318  54.008  1.00  0.00     0.143 C 
HETATM   16 CL1  UNL     1      21.519  -1.852  54.476  1.00  0.00    -0.126 Cl
ENDBRANCH  14  15
BRANCH  13  17
HETATM   17  C15 UNL     1      22.009   0.584  51.292  1.00  0.00     0.088 C 
BRANCH  17  18
HETATM   18  C16 UNL     1      20.701   1.212  50.858  1.00  0.00     0.228 C 
HETATM   19  F1  UNL     1      19.715   0.256  50.876  1.00  0.00    -0.255 F 
ENDBRANCH  17  18
ENDBRANCH  13  17
ENDBRANCH  11  13
ENDBRANCH   5  11
BRANCH   3  20
HETATM   20  O2  UNL     1      25.618   1.693  51.556  1.00  0.00    -0.345 OA
BRANCH  20  21
HETATM   21  C5  UNL     1      26.796   1.099  52.007  1.00  0.00     0.133 C 
HETATM   22  C6  UNL     1      27.169   1.615  53.405  1.00  0.00     0.058 C 
HETATM   23  C7  UNL     1      26.506   0.711  54.391  1.00  0.00     0.170 C 
HETATM   24  O3  UNL     1      27.167  -0.508  54.460  1.00  0.00    -0.391 OA
HETATM   25  C8  UNL     1      27.515  -1.003  53.216  1.00  0.00     0.170 C 
HETATM   26  C9  UNL     1      26.692  -0.408  52.100  1.00  0.00     0.058 C 
ENDBRANCH  20  21
ENDBRANCH   3  20
BRANCH   1  27
HETATM   27  O1  UNL     1      27.264   5.130  48.510  1.00  0.00    -0.356 OA
HETATM   28  C1  UNL     1      27.387   6.516  48.312  1.00  0.00     0.210 C 
ENDBRANCH   1  27
TORSDOF 8
ENDMDL
MODEL 3
REMARK VINA RESULT:      -7.3      3.322      6.974
REMARK  8 active torsions:
REMARK  status: ('A' for Active; 'I' for Inactive)
REMARK    1  A    between atoms: O1_2  and  C2_3 
REMARK    2  A    between atoms: C4_5  and  O2_6 
REMARK    3  A    between atoms: O2_6  and  C5_7 
REMARK    4  A    between atoms: C11_14  and  N1_15 
REMARK    5  A    between atoms: N1_15  and  C12_16 
REMARK    6  A    between atoms: C12_16  and  C15_20 
REMARK    7  A    between atoms: C13_17  and  C14_18 
REMARK    8  A    between atoms: C15_20  and  C16_21 
ROOT
HETATM    1  C2  UNL     1      19.899  -0.274  52.667  1.00  0.00     0.073 A 
HETATM    2  C3  UNL     1      20.831   0.462  51.966  1.00  0.00     0.074 A 
HETATM    3  C4  UNL     1      22.175   0.566  52.253  1.00  0.00     0.088 A 
HETATM    4  C10 UNL     1      22.547  -0.167  53.365  1.00  0.00     0.072 A 
HETATM    5  C11 UNL     1      23.844  -0.180  53.792  1.00  0.00     0.144 A 
HETATM    6  N2  UNL     1      24.225  -0.884  54.867  1.00  0.00    -0.223 NA
HETATM    7  C17 UNL     1      23.376  -1.621  55.596  1.00  0.00     0.236 A 
HETATM    8  N3  UNL     1      22.099  -1.619  55.188  1.00  0.00    -0.241 NA
HETATM    9  C18 UNL     1      21.680  -0.928  54.119  1.00  0.00     0.077 A 
HETATM   10  C19 UNL     1      20.353  -0.988  53.779  1.00  0.00     0.069 A 
ENDROOT
BRANCH   5  11
HETATM   11  N1  UNL     1      24.895   0.530  53.166  1.00  0.00    -0.344 N 
HETATM   12  H14 UNL     1      25.220   1.294  52.549  1.00  0.00     0.167 HD
BRANCH  11  13
HETATM   13  C12 UNL     1      26.281   0.211  53.321  1.00  0.00     0.010 C 
HETATM   14  C13 UNL     1      26.987   0.581  54.407  1.00  0.00     0.013 C 
BRANCH  14  15
HETATM   15  C14 UNL     1      28.360   0.447  54.905  1.00  0.00     0.143 C 
HETATM   16 CL1  UNL     1      29.312   1.765  54.147  1.00  0.00    -0.126 Cl
ENDBRANCH  14  15
BRANCH  13  17
HETATM   17  C15 UNL     1      27.013  -0.561  52.253  1.00  0.00     0.088 C 
BRANCH  17  18
HETATM   18  C16 UNL     1      27.146  -2.014  52.658  1.00  0.00     0.228 C 
HETATM   19  F1  UNL     1      26.527  -2.802  51.718  1.00  0.00    -0.255 F 
ENDBRANCH  17  18
ENDBRANCH  13  17
ENDBRANCH  11  13
ENDBRANCH   5  11
BRANCH   3  20
HETATM   20  O2  UNL     1      23.125   1.284  51.582  1.00  0.00    -0.345 OA
BRANCH  20  21
HETATM   21  C5  UNL     1      22.938   2.552  51.033  1.00  0.00     0.133 C 
HETATM   22  C6  UNL     1      24.054   3.510  51.477  1.00  0.00     0.058 C 
HETATM   23  C7  UNL     1      25.149   3.395  50.469  1.00  0.00     0.170 C 
HETATM   24  O3  UNL     1      24.804   4.043  49.292  1.00  0.00    -0.391 OA
HETATM   25  C8  UNL     1      23.499   3.796  48.904  1.00  0.00     0.170 C 
HETATM   26  C9  UNL     1      22.935   2.539  49.519  1.00  0.00     0.058 C 
ENDBRANCH  20  21
ENDBRANCH   3  20
BRANCH   1  27
HETATM   27  O1  UNL     1      18.570  -0.310  52.293  1.00  0.00    -0.356 OA
HETATM   28  C1  UNL     1      18.169   0.425  51.164  1.00  0.00     0.210 C 
ENDBRANCH   1  27
TORSDOF 8
ENDMDL
MODEL 4
REMARK VINA RESULT:      -7.2      3.097      5.381
REMARK  8 active torsions:
REMARK  status: ('A' for Active; 'I' for Inactive)
REMARK    1  A    between atoms: O1_2  and  C2_3 
REMARK    2  A    between atoms: C4_5  and  O2_6 
REMARK    3  A    between atoms: O2_6  and  C5_7 
REMARK    4  A    between atoms: C11_14  and  N1_15 
REMARK    5  A    between atoms: N1_15  and  C12_16 
REMARK    6  A    between atoms: C12_16  and  C15_20 
REMARK    7  A    between atoms: C13_17  and  C14_18 
REMARK    8  A    between atoms: C15_20  and  C16_21 
ROOT
HETATM    1  C2  UNL     1      26.836   0.412  53.813  1.00  0.00     0.073 A 
HETATM    2  C3  UNL     1      25.499   0.098  53.699  1.00  0.00     0.074 A 
HETATM    3  C4  UNL     1      24.611   0.616  52.780  1.00  0.00     0.088 A 
HETATM    4  C10 UNL     1      25.196   1.533  51.926  1.00  0.00     0.072 A 
HETATM    5  C11 UNL     1      24.463   2.146  50.951  1.00  0.00     0.144 A 
HETATM    6  N2  UNL     1      25.009   3.037  50.113  1.00  0.00    -0.223 NA
HETATM    7  C17 UNL     1      26.300   3.392  50.163  1.00  0.00     0.236 A 
HETATM    8  N3  UNL     1      27.034   2.798  51.116  1.00  0.00    -0.241 NA
HETATM    9  C18 UNL     1      26.522   1.903  51.972  1.00  0.00     0.077 A 
HETATM   10  C19 UNL     1      27.352   1.348  52.913  1.00  0.00     0.069 A 
ENDROOT
BRANCH   5  11
HETATM   11  N1  UNL     1      23.085   1.915  50.726  1.00  0.00    -0.344 N 
HETATM   12  H14 UNL     1      22.278   1.269  50.688  1.00  0.00     0.167 HD
BRANCH  11  13
HETATM   13  C12 UNL     1      22.149   2.934  50.363  1.00  0.00     0.010 C 
HETATM   14  C13 UNL     1      21.889   3.987  51.162  1.00  0.00     0.013 C 
BRANCH  14  15
HETATM   15  C14 UNL     1      21.036   5.181  51.138  1.00  0.00     0.143 C 
HETATM   16 CL1  UNL     1      22.102   6.565  50.729  1.00  0.00    -0.126 Cl
ENDBRANCH  14  15
BRANCH  13  17
HETATM   17  C15 UNL     1      21.407   2.860  49.054  1.00  0.00     0.088 C 
BRANCH  17  18
HETATM   18  C16 UNL     1      21.832   1.630  48.281  1.00  0.00     0.228 C 
HETATM   19  F1  UNL     1      22.898   1.949  47.476  1.00  0.00    -0.255 F 
ENDBRANCH  17  18
ENDBRANCH  13  17
ENDBRANCH  11  13
ENDBRANCH   5  11
BRANCH   3  20
HETATM   20  O2  UNL     1      23.283   0.328  52.638  1.00  0.00    -0.345 OA
BRANCH  20  21
HETATM   21  C5  UNL     1      22.399   0.070  53.685  1.00  0.00     0.133 C 
HETATM   22  C6  UNL     1      21.123   0.914  53.544  1.00  0.00     0.058 C 
HETATM   23  C7  UNL     1      20.162   0.114  52.728  1.00  0.00     0.170 C 
HETATM   24  O3  UNL     1      19.621  -0.919  53.480  1.00  0.00    -0.391 OA
HETATM   25  C8  UNL     1      20.563  -1.575  54.251  1.00  0.00     0.170 C 
HETATM   26  C9  UNL     1      21.971  -1.381  53.744  1.00  0.00     0.058 C 
ENDBRANCH  20  21
ENDBRANCH   3  20
BRANCH   1  27
HETATM   27  O1  UNL     1      27.641  -0.168  54.774  1.00  0.00    -0.356 OA
HETATM   28  C1  UNL     1      29.030  -0.194  54.559  1.00  0.00     0.210 C 
ENDBRANCH   1  27
TORSDOF 8
ENDMDL
MODEL 5
REMARK VINA RESULT:      -7.0      3.057      5.939
REMARK  8 active torsions:
REMARK  status: ('A' for Active; 'I' for Inactive)
REMARK    1  A    between atoms: O1_2  and  C2_3 
REMARK    2  A    between atoms: C4_5  and  O2_6 
REMARK    3  A    between atoms: O2_6  and  C5_7 
REMARK    4  A    between atoms: C11_14  and  N1_15 
REMARK    5  A    between atoms: N1_15  and  C12_16 
REMARK    6  A    between atoms: C12_16  and  C15_20 
REMARK    7  A    between atoms: C13_17  and  C14_18 
REMARK    8  A    between atoms: C15_20  and  C16_21 
ROOT
HETATM    1  C2  UNL     1      25.929  -0.161  54.700  1.00  0.00     0.073 A 
HETATM    2  C3  UNL     1      25.686   0.537  53.537  1.00  0.00     0.074 A 
HETATM    3  C4  UNL     1      24.494   0.588  52.846  1.00  0.00     0.088 A 
HETATM    4  C10 UNL     1      23.494  -0.159  53.443  1.00  0.00     0.072 A 
HETATM    5  C11 UNL     1      22.246  -0.221  52.893  1.00  0.00     0.144 A 
HETATM    6  N2  UNL     1      21.263  -0.939  53.455  1.00  0.00    -0.223 NA
HETATM    7  C17 UNL     1      21.425  -1.642  54.583  1.00  0.00     0.236 A 
HETATM    8  N3  UNL     1      22.646  -1.591  55.136  1.00  0.00    -0.241 NA
HETATM    9  C18 UNL     1      23.653  -0.885  54.603  1.00  0.00     0.077 A 
HETATM   10  C19 UNL     1      24.868  -0.892  55.241  1.00  0.00     0.069 A 
ENDROOT
BRANCH   5  11
HETATM   11  N1  UNL     1      21.865   0.445  51.705  1.00  0.00    -0.344 N 
HETATM   12  H14 UNL     1      22.070   0.737  50.734  1.00  0.00     0.167 HD
BRANCH  11  13
HETATM   13  C12 UNL     1      20.617   1.122  51.530  1.00  0.00     0.010 C 
HETATM   14  C13 UNL     1      20.419   2.385  51.955  1.00  0.00     0.013 C 
BRANCH  14  15
HETATM   15  C14 UNL     1      19.332   3.370  51.957  1.00  0.00     0.143 C 
HETATM   16 CL1  UNL     1      19.812   4.666  50.811  1.00  0.00    -0.126 Cl
ENDBRANCH  14  15
BRANCH  13  17
HETATM   17  C15 UNL     1      19.459   0.431  50.857  1.00  0.00     0.088 C 
BRANCH  17  18
HETATM   18  C16 UNL     1      18.501  -0.115  51.894  1.00  0.00     0.228 C 
HETATM   19  F1  UNL     1      17.550  -0.884  51.269  1.00  0.00    -0.255 F 
ENDBRANCH  17  18
ENDBRANCH  13  17
ENDBRANCH  11  13
ENDBRANCH   5  11
BRANCH   3  20
HETATM   20  O2  UNL     1      24.218   1.268  51.694  1.00  0.00    -0.345 OA
BRANCH  20  21
HETATM   21  C5  UNL     1      24.657   2.557  51.394  1.00  0.00     0.133 C 
HETATM   22  C6  UNL     1      24.478   2.862  49.900  1.00  0.00     0.058 C 
HETATM   23  C7  UNL     1      23.114   3.446  49.737  1.00  0.00     0.170 C 
HETATM   24  O3  UNL     1      23.082   4.755  50.201  1.00  0.00    -0.391 OA
HETATM   25  C8  UNL     1      23.748   4.917  51.402  1.00  0.00     0.170 C 
HETATM   26  C9  UNL     1      23.905   3.623  52.162  1.00  0.00     0.058 C 
ENDBRANCH  20  21
ENDBRANCH   3  20
BRANCH   1  27
HETATM   27  O1  UNL     1      27.166  -0.145  55.315  1.00  0.00    -0.356 OA
HETATM   28  C1  UNL     1      28.268   0.345  54.592  1.00  0.00     0.210 C 
ENDBRANCH   1  27
TORSDOF 8
ENDMDL
MODEL 6
REMARK VINA RESULT:      -6.7      3.054      5.080
REMARK  8 active torsions:
REMARK  status: ('A' for Active; 'I' for Inactive)
REMARK    1  A    between atoms: O1_2  and  C2_3 
REMARK    2  A    between atoms: C4_5  and  O2_6 
REMARK    3  A    between atoms: O2_6  and  C5_7 
REMARK    4  A    between atoms: C11_14  and  N1_15 
REMARK    5  A    between atoms: N1_15  and  C12_16 
REMARK    6  A    between atoms: C12_16  and  C15_20 
REMARK    7  A    between atoms: C13_17  and  C14_18 
REMARK    8  A    between atoms: C15_20  and  C16_21 
ROOT
HETATM    1  C2  UNL     1      22.332   4.739  51.398  1.00  0.00     0.073 A 
HETATM    2  C3  UNL     1      22.228   3.550  52.086  1.00  0.00     0.074 A 
HETATM    3  C4  UNL     1      23.197   2.574  52.185  1.00  0.00     0.088 A 
HETATM    4  C10 UNL     1      24.355   2.895  51.500  1.00  0.00     0.072 A 
HETATM    5  C11 UNL     1      25.421   2.041  51.491  1.00  0.00     0.144 A 
HETATM    6  N2  UNL     1      26.552   2.333  50.834  1.00  0.00    -0.223 NA
HETATM    7  C17 UNL     1      26.725   3.468  50.145  1.00  0.00     0.236 A 
HETATM    8  N3  UNL     1      25.687   4.317  50.144  1.00  0.00    -0.241 NA
HETATM    9  C18 UNL     1      24.540   4.060  50.788  1.00  0.00     0.077 A 
HETATM   10  C19 UNL     1      23.534   4.990  50.731  1.00  0.00     0.069 A 
ENDROOT
BRANCH   5  11
HETATM   11  N1  UNL     1      25.446   0.792  52.155  1.00  0.00    -0.344 N 
HETATM   12  H14 UNL     1      25.020  -0.130  52.349  1.00  0.00     0.167 HD
BRANCH  11  13
HETATM   13  C12 UNL     1      26.482   0.382  53.053  1.00  0.00     0.010 C 
HETATM   14  C13 UNL     1      27.440  -0.494  52.693  1.00  0.00     0.013 C 
BRANCH  14  15
HETATM   15  C14 UNL     1      28.613  -1.128  53.302  1.00  0.00     0.143 C 
HETATM   16 CL1  UNL     1      29.847   0.160  53.501  1.00  0.00    -0.126 Cl
ENDBRANCH  14  15
BRANCH  13  17
HETATM   17  C15 UNL     1      26.534   0.922  54.459  1.00  0.00     0.088 C 
BRANCH  17  18
HETATM   18  C16 UNL     1      25.993  -0.103  55.433  1.00  0.00     0.228 C 
HETATM   19  F1  UNL     1      25.417  -1.132  54.730  1.00  0.00    -0.255 F 
ENDBRANCH  17  18
ENDBRANCH  13  17
ENDBRANCH  11  13
ENDBRANCH   5  11
BRANCH   3  20
HETATM   20  O2  UNL     1      23.130   1.387  52.857  1.00  0.00    -0.345 OA
BRANCH  20  21
HETATM   21  C5  UNL     1      22.143   0.417  52.683  1.00  0.00     0.133 C 
HETATM   22  C6  UNL     1      22.661  -0.970  53.091  1.00  0.00     0.058 C 
HETATM   23  C7  UNL     1      22.360  -1.134  54.544  1.00  0.00     0.170 C 
HETATM   24  O3  UNL     1      21.007  -1.374  54.741  1.00  0.00    -0.391 OA
HETATM   25  C8  UNL     1      20.198  -0.559  53.970  1.00  0.00     0.170 C 
HETATM   26  C9  UNL     1      20.902   0.692  53.505  1.00  0.00     0.058 C 
ENDBRANCH  20  21
ENDBRANCH   3  20
BRANCH   1  27
HETATM   27  O1  UNL     1      21.296   5.653  51.362  1.00  0.00    -0.356 OA
HETATM   28  C1  UNL     1      20.628   5.862  50.144  1.00  0.00     0.210 C 
ENDBRANCH   1  27
TORSDOF 8
ENDMDL
MODEL 7
REMARK VINA RESULT:      -6.7      2.447      2.989
REMARK  8 active torsions:
REMARK  status: ('A' for Active; 'I' for Inactive)
REMARK    1  A    between atoms: O1_2  and  C2_3 
REMARK    2  A    between atoms: C4_5  and  O2_6 
REMARK    3  A    between atoms: O2_6  and  C5_7 
REMARK    4  A    between atoms: C11_14  and  N1_15 
REMARK    5  A    between atoms: N1_15  and  C12_16 
REMARK    6  A    between atoms: C12_16  and  C15_20 
REMARK    7  A    between atoms: C13_17  and  C14_18 
REMARK    8  A    between atoms: C15_20  and  C16_21 
ROOT
HETATM    1  C2  UNL     1      24.620   4.047  49.433  1.00  0.00     0.073 A 
HETATM    2  C3  UNL     1      24.882   3.221  50.505  1.00  0.00     0.074 A 
HETATM    3  C4  UNL     1      24.063   2.223  50.988  1.00  0.00     0.088 A 
HETATM    4  C10 UNL     1      22.884   2.102  50.275  1.00  0.00     0.072 A 
HETATM    5  C11 UNL     1      21.954   1.161  50.616  1.00  0.00     0.144 A 
HETATM    6  N2  UNL     1      20.806   1.028  49.938  1.00  0.00    -0.223 NA
HETATM    7  C17 UNL     1      20.483   1.794  48.888  1.00  0.00     0.236 A 
HETATM    8  N3  UNL     1      21.386   2.722  48.541  1.00  0.00    -0.241 NA
HETATM    9  C18 UNL     1      22.545   2.887  49.194  1.00  0.00     0.077 A 
HETATM   10  C19 UNL     1      23.407   3.863  48.765  1.00  0.00     0.069 A 
ENDROOT
BRANCH   5  11
HETATM   11  N1  UNL     1      22.098   0.253  51.691  1.00  0.00    -0.344 N 
HETATM   12  H14 UNL     1      22.655  -0.456  52.199  1.00  0.00     0.167 HD
BRANCH  11  13
HETATM   13  C12 UNL     1      21.109   0.046  52.703  1.00  0.00     0.010 C 
HETATM   14  C13 UNL     1      19.821  -0.213  52.407  1.00  0.00     0.013 C 
BRANCH  14  15
HETATM   15  C14 UNL     1      18.572  -0.471  53.132  1.00  0.00     0.143 C 
HETATM   16 CL1  UNL     1      18.586  -2.211  53.573  1.00  0.00    -0.126 Cl
ENDBRANCH  14  15
BRANCH  13  17
HETATM   17  C15 UNL     1      21.481   0.115  54.162  1.00  0.00     0.088 C 
BRANCH  17  18
HETATM   18  C16 UNL     1      21.879  -1.256  54.665  1.00  0.00     0.228 C 
HETATM   19  F1  UNL     1      22.704  -1.114  55.754  1.00  0.00    -0.255 F 
ENDBRANCH  17  18
ENDBRANCH  13  17
ENDBRANCH  11  13
ENDBRANCH   5  11
BRANCH   3  20
HETATM   20  O2  UNL     1      24.290   1.386  52.044  1.00  0.00    -0.345 OA
BRANCH  20  21
HETATM   21  C5  UNL     1      25.515   1.217  52.689  1.00  0.00     0.133 C 
HETATM   22  C6  UNL     1      25.324   0.549  54.059  1.00  0.00     0.058 C 
HETATM   23  C7  UNL     1      25.403  -0.925  53.837  1.00  0.00     0.170 C 
HETATM   24  O3  UNL     1      26.716  -1.319  53.618  1.00  0.00    -0.391 OA
HETATM   25  C8  UNL     1      27.398  -0.469  52.766  1.00  0.00     0.170 C 
HETATM   26  C9  UNL     1      26.476   0.354  51.900  1.00  0.00     0.058 C 
ENDBRANCH  20  21
ENDBRANCH   3  20
BRANCH   1  27
HETATM   27  O1  UNL     1      25.513   5.021  49.029  1.00  0.00    -0.356 OA
HETATM   28  C1  UNL     1      26.881   4.700  48.984  1.00  0.00     0.210 C 
ENDBRANCH   1  27
TORSDOF 8
ENDMDL
MODEL 8
REMARK VINA RESULT:      -6.3      3.843      7.665
REMARK  8 active torsions:
REMARK  status: ('A' for Active; 'I' for Inactive)
REMARK    1  A    between atoms: O1_2  and  C2_3 
REMARK    2  A    between atoms: C4_5  and  O2_6 
REMARK    3  A    between atoms: O2_6  and  C5_7 
REMARK    4  A    between atoms: C11_14  and  N1_15 
REMARK    5  A    between atoms: N1_15  and  C12_16 
REMARK    6  A    between atoms: C12_16  and  C15_20 
REMARK    7  A    between atoms: C13_17  and  C14_18 
REMARK    8  A    between atoms: C15_20  and  C16_21 
ROOT
HETATM    1  C2  UNL     1      18.235  -0.479  52.350  1.00  0.00     0.073 A 
HETATM    2  C3  UNL     1      19.002   0.277  51.489  1.00  0.00     0.074 A 
HETATM    3  C4  UNL     1      20.361   0.491  51.576  1.00  0.00     0.088 A 
HETATM    4  C10 UNL     1      20.938  -0.148  52.659  1.00  0.00     0.072 A 
HETATM    5  C11 UNL     1      22.278  -0.046  52.898  1.00  0.00     0.144 A 
HETATM    6  N2  UNL     1      22.857  -0.657  53.941  1.00  0.00    -0.223 NA
HETATM    7  C17 UNL     1      22.176  -1.407  54.818  1.00  0.00     0.236 A 
HETATM    8  N3  UNL     1      20.859  -1.517  54.597  1.00  0.00    -0.241 NA
HETATM    9  C18 UNL     1      20.244  -0.921  53.566  1.00  0.00     0.077 A 
HETATM   10  C19 UNL     1      18.891  -1.092  53.420  1.00  0.00     0.069 A 
ENDROOT
BRANCH   5  11
HETATM   11  N1  UNL     1      23.176   0.696  52.095  1.00  0.00    -0.344 N 
HETATM   12  H14 UNL     1      23.469   1.050  51.168  1.00  0.00     0.167 HD
BRANCH  11  13
HETATM   13  C12 UNL     1      24.320   1.388  52.601  1.00  0.00     0.010 C 
HETATM   14  C13 UNL     1      25.543   0.823  52.641  1.00  0.00     0.013 C 
BRANCH  14  15
HETATM   15  C14 UNL     1      26.896   1.195  53.067  1.00  0.00     0.143 C 
HETATM   16 CL1  UNL     1      27.451   2.483  51.948  1.00  0.00    -0.126 Cl
ENDBRANCH  14  15
BRANCH  13  17
HETATM   17  C15 UNL     1      24.195   2.797  53.122  1.00  0.00     0.088 C 
BRANCH  17  18
HETATM   18  C16 UNL     1      23.390   3.641  52.156  1.00  0.00     0.228 C 
HETATM   19  F1  UNL     1      22.075   3.646  52.551  1.00  0.00    -0.255 F 
ENDBRANCH  17  18
ENDBRANCH  13  17
ENDBRANCH  11  13
ENDBRANCH   5  11
BRANCH   3  20
HETATM   20  O2  UNL     1      21.151   1.231  50.743  1.00  0.00    -0.345 OA
BRANCH  20  21
HETATM   21  C5  UNL     1      20.827   1.592  49.436  1.00  0.00     0.133 C 
HETATM   22  C6  UNL     1      20.181   2.985  49.397  1.00  0.00     0.058 C 
HETATM   23  C7  UNL     1      21.290   3.972  49.240  1.00  0.00     0.170 C 
HETATM   24  O3  UNL     1      21.781   3.958  47.942  1.00  0.00    -0.391 OA
HETATM   25  C8  UNL     1      21.938   2.678  47.440  1.00  0.00     0.170 C 
HETATM   26  C9  UNL     1      22.035   1.633  48.525  1.00  0.00     0.058 C 
ENDBRANCH  20  21
ENDBRANCH   3  20
BRANCH   1  27
HETATM   27  O1  UNL     1      16.874  -0.629  52.171  1.00  0.00    -0.356 OA
HETATM   28  C1  UNL     1      16.286  -1.863  52.500  1.00  0.00     0.210 C 
ENDBRANCH   1  27
TORSDOF 8
ENDMDL
MODEL 9
REMARK VINA RESULT:      -6.2      2.093      2.764
REMARK  8 active torsions:
REMARK  status: ('A' for Active; 'I' for Inactive)
REMARK    1  A    between atoms: O1_2  and  C2_3 
REMARK    2  A    between atoms: C4_5  and  O2_6 
REMARK    3  A    between atoms: O2_6  and  C5_7 
REMARK    4  A    between atoms: C11_14  and  N1_15 
REMARK    5  A    between atoms: N1_15  and  C12_16 
REMARK    6  A    between atoms: C12_16  and  C15_20 
REMARK    7  A    between atoms: C13_17  and  C14_18 
REMARK    8  A    between atoms: C15_20  and  C16_21 
ROOT
HETATM    1  C2  UNL     1      27.602   5.083  48.693  1.00  0.00     0.073 A 
HETATM    2  C3  UNL     1      26.957   4.231  49.564  1.00  0.00     0.074 A 
HETATM    3  C4  UNL     1      25.673   4.371  50.045  1.00  0.00     0.088 A 
HETATM    4  C10 UNL     1      25.037   5.501  49.562  1.00  0.00     0.072 A 
HETATM    5  C11 UNL     1      23.757   5.796  49.935  1.00  0.00     0.144 A 
HETATM    6  N2  UNL     1      23.124   6.885  49.479  1.00  0.00    -0.223 NA
HETATM    7  C17 UNL     1      23.687   7.757  48.632  1.00  0.00     0.236 A 
HETATM    8  N3  UNL     1      24.944   7.481  48.256  1.00  0.00    -0.241 NA
HETATM    9  C18 UNL     1      25.610   6.402  48.691  1.00  0.00     0.077 A 
HETATM   10  C19 UNL     1      26.893   6.202  48.251  1.00  0.00     0.069 A 
ENDROOT
BRANCH   5  11
HETATM   11  N1  UNL     1      22.984   5.008  50.820  1.00  0.00    -0.344 N 
HETATM   12  H14 UNL     1      22.790   4.656  51.773  1.00  0.00     0.167 HD
BRANCH  11  13
HETATM   13  C12 UNL     1      21.859   4.221  50.417  1.00  0.00     0.010 C 
HETATM   14  C13 UNL     1      21.886   3.435  49.324  1.00  0.00     0.013 C 
BRANCH  14  15
HETATM   15  C14 UNL     1      20.977   2.523  48.622  1.00  0.00     0.143 C 
HETATM   16 CL1  UNL     1      21.294   0.881  49.272  1.00  0.00    -0.126 Cl
ENDBRANCH  14  15
BRANCH  13  17
HETATM   17  C15 UNL     1      20.581   4.250  51.215  1.00  0.00     0.088 C 
BRANCH  17  18
HETATM   18  C16 UNL     1      20.675   3.296  52.387  1.00  0.00     0.228 C 
HETATM   19  F1  UNL     1      19.872   2.208  52.148  1.00  0.00    -0.255 F 
ENDBRANCH  17  18
ENDBRANCH  13  17
ENDBRANCH  11  13
ENDBRANCH   5  11
BRANCH   3  20
HETATM   20  O2  UNL     1      25.003   3.548  50.906  1.00  0.00    -0.345 OA
BRANCH  20  21
HETATM   21  C5  UNL     1      25.348   2.228  51.191  1.00  0.00     0.133 C 
HETATM   22  C6  UNL     1      26.479   2.170  52.229  1.00  0.00     0.058 C 
HETATM   23  C7  UNL     1      25.830   2.137  53.574  1.00  0.00     0.170 C 
HETATM   24  O3  UNL     1      25.281   0.887  53.824  1.00  0.00    -0.391 OA
HETATM   25  C8  UNL     1      24.606   0.367  52.735  1.00  0.00     0.170 C 
HETATM   26  C9  UNL     1      24.189   1.428  51.746  1.00  0.00     0.058 C 
ENDBRANCH  20  21
ENDBRANCH   3  20
BRANCH   1  27
HETATM   27  O1  UNL     1      28.896   4.849  48.271  1.00  0.00    -0.356 OA
HETATM   28  C1  UNL     1      29.728   5.952  48.011  1.00  0.00     0.210 C 
ENDBRANCH   1  27
TORSDOF 8
ENDMDL
