MODEL 1
REMARK VINA RESULT:      -7.6      0.000      0.000
REMARK  2 active torsions:
REMARK  status: ('A' for Active; 'I' for Inactive)
REMARK    1  A    between atoms: C2_3  and  C3_4 
REMARK    2  A    between atoms: C6_7  and  C7_8 
ROOT
HETATM    1  C3  UNL     1      22.757   1.746  51.017  1.00  0.00     0.071 C 
HETATM    2  C4  UNL     1      22.054   0.598  51.459  1.00  0.00     0.145 C 
HETATM    3  C5  UNL     1      22.728   0.348  52.761  1.00  0.00     0.027 C 
HETATM    4  C6  UNL     1      21.922  -0.799  53.001  1.00  0.00     0.046 C 
HETATM    5  N2  UNL     1      23.391   0.089  54.059  1.00  0.00    -0.414 N 
HETATM    6  C8  UNL     1      24.657  -0.513  53.678  1.00  0.00     0.144 C 
HETATM    7  C9  UNL     1      25.675  -0.028  54.705  1.00  0.00     0.292 C 
HETATM    8  N3  UNL     1      26.889   0.393  53.933  1.00  0.00     0.106 N 
HETATM    9  C10 UNL     1      28.016   0.185  54.822  1.00  0.00     0.299 C 
HETATM   10  C11 UNL     1      29.168   1.067  54.460  1.00  0.00     0.198 C 
HETATM   11  O1  UNL     1      29.092   1.307  53.092  1.00  0.00    -0.387 OA
HETATM   12  C12 UNL     1      28.053   2.201  52.871  1.00  0.00     0.211 C 
HETATM   13  C13 UNL     1      26.795   1.790  53.605  1.00  0.00     0.317 C 
HETATM   14  C14 UNL     1      25.613   2.209  52.842  1.00  0.00     0.186 C 
HETATM   15  O2  UNL     1      24.706   2.818  53.446  1.00  0.00    -0.293 OA
HETATM   16  C15 UNL     1      25.128   2.105  51.417  1.00  0.00     0.256 C 
HETATM   17  O3  UNL     1      23.806   2.687  51.323  1.00  0.00    -0.346 OA
HETATM   18  H9  UNL     1      22.871   0.376  54.912  1.00  0.00     0.153 HD
ENDROOT
BRANCH   1  19
HETATM   19  C2  UNL     1      22.096   2.042  49.705  1.00  0.00     0.142 C 
HETATM   20  N1  UNL     1      22.706   2.564  48.731  1.00  0.00    -0.304 NA
HETATM   21  C1  UNL     1      22.191   2.898  47.431  1.00  0.00     0.177 C 
ENDBRANCH   1  19
BRANCH   4  22
HETATM   22  C7  UNL     1      21.760  -1.842  54.067  1.00  0.00     0.229 C 
HETATM   23  F1  UNL     1      20.410  -1.886  54.405  1.00  0.00    -0.255 F 
ENDBRANCH   4  22
TORSDOF 2
ENDMDL
MODEL 2
REMARK VINA RESULT:      -7.2      2.784      4.909
REMARK  2 active torsions:
REMARK  status: ('A' for Active; 'I' for Inactive)
REMARK    1  A    between atoms: C2_3  and  C3_4 
REMARK    2  A    between atoms: C6_7  and  C7_8 
ROOT
HETATM    1  C3  UNL     1      22.859   0.328  53.298  1.00  0.00     0.071 C 
HETATM    2  C4  UNL     1      23.890  -0.641  53.350  1.00  0.00     0.145 C 
HETATM    3  C5  UNL     1      25.081   0.210  53.088  1.00  0.00     0.027 C 
HETATM    4  C6  UNL     1      25.947  -0.915  53.158  1.00  0.00     0.046 C 
HETATM    5  N2  UNL     1      26.274   1.046  52.827  1.00  0.00    -0.414 N 
HETATM    6  C8  UNL     1      26.214   1.285  51.396  1.00  0.00     0.144 C 
HETATM    7  C9  UNL     1      26.757   2.695  51.184  1.00  0.00     0.292 C 
HETATM    8  N3  UNL     1      25.817   3.374  50.235  1.00  0.00     0.106 N 
HETATM    9  C10 UNL     1      26.616   4.349  49.516  1.00  0.00     0.299 C 
HETATM   10  C11 UNL     1      25.772   5.467  48.993  1.00  0.00     0.198 C 
HETATM   11  O1  UNL     1      24.499   4.954  48.765  1.00  0.00    -0.387 OA
HETATM   12  C12 UNL     1      23.884   4.772  49.996  1.00  0.00     0.211 C 
HETATM   13  C13 UNL     1      24.789   4.055  50.973  1.00  0.00     0.317 C 
HETATM   14  C14 UNL     1      23.985   3.236  51.889  1.00  0.00     0.186 C 
HETATM   15  O2  UNL     1      24.209   3.328  53.114  1.00  0.00    -0.293 OA
HETATM   16  C15 UNL     1      22.873   2.222  51.773  1.00  0.00     0.256 C 
HETATM   17  O3  UNL     1      22.549   1.722  53.092  1.00  0.00    -0.346 OA
HETATM   18  H9  UNL     1      26.861   1.289  53.650  1.00  0.00     0.153 HD
ENDROOT
BRANCH   1  19
HETATM   19  C2  UNL     1      21.633  -0.489  53.572  1.00  0.00     0.142 C 
HETATM   20  N1  UNL     1      20.476  -0.134  53.217  1.00  0.00    -0.304 NA
HETATM   21  C1  UNL     1      19.230  -0.819  53.420  1.00  0.00     0.177 C 
ENDBRANCH   1  19
BRANCH   4  22
HETATM   22  C7  UNL     1      27.416  -1.198  53.039  1.00  0.00     0.229 C 
HETATM   23  F1  UNL     1      27.553  -2.523  52.635  1.00  0.00    -0.255 F 
ENDBRANCH   4  22
TORSDOF 2
ENDMDL
MODEL 3
REMARK VINA RESULT:      -7.2      2.613      4.130
REMARK  2 active torsions:
REMARK  status: ('A' for Active; 'I' for Inactive)
REMARK    1  A    between atoms: C2_3  and  C3_4 
REMARK    2  A    between atoms: C6_7  and  C7_8 
ROOT
HETATM    1  C3  UNL     1      22.470  -0.134  52.926  1.00  0.00     0.071 C 
HETATM    2  C4  UNL     1      22.032   1.007  52.210  1.00  0.00     0.145 C 
HETATM    3  C5  UNL     1      23.319   1.489  51.644  1.00  0.00     0.027 C 
HETATM    4  C6  UNL     1      22.676   2.592  51.020  1.00  0.00     0.046 C 
HETATM    5  N2  UNL     1      24.595   1.978  51.075  1.00  0.00    -0.414 N 
HETATM    6  C8  UNL     1      25.248   2.616  52.205  1.00  0.00     0.144 C 
HETATM    7  C9  UNL     1      26.741   2.359  52.025  1.00  0.00     0.292 C 
HETATM    8  N3  UNL     1      27.262   1.929  53.362  1.00  0.00     0.106 N 
HETATM    9  C10 UNL     1      28.651   2.346  53.399  1.00  0.00     0.299 C 
HETATM   10  C11 UNL     1      29.447   1.513  54.353  1.00  0.00     0.198 C 
HETATM   11  O1  UNL     1      28.577   1.078  55.348  1.00  0.00    -0.387 OA
HETATM   12  C12 UNL     1      27.772   0.085  54.808  1.00  0.00     0.211 C 
HETATM   13  C13 UNL     1      27.195   0.497  53.472  1.00  0.00     0.317 C 
HETATM   14  C14 UNL     1      25.872  -0.115  53.290  1.00  0.00     0.186 C 
HETATM   15  O2  UNL     1      25.636  -0.701  52.213  1.00  0.00    -0.293 OA
HETATM   16  C15 UNL     1      24.601  -0.249  54.091  1.00  0.00     0.256 C 
HETATM   17  O3  UNL     1      23.609  -0.939  53.294  1.00  0.00    -0.346 OA
HETATM   18  H9  UNL     1      24.765   1.774  50.070  1.00  0.00     0.153 HD
ENDROOT
BRANCH   1  19
HETATM   19  C2  UNL     1      21.193  -0.661  53.505  1.00  0.00     0.142 C 
HETATM   20  N1  UNL     1      20.072  -0.514  52.945  1.00  0.00    -0.304 NA
HETATM   21  C1  UNL     1      18.783  -0.966  53.394  1.00  0.00     0.177 C 
ENDBRANCH   1  19
BRANCH   4  22
HETATM   22  C7  UNL     1      23.056   3.759  50.157  1.00  0.00     0.229 C 
HETATM   23  F1  UNL     1      23.060   4.892  50.965  1.00  0.00    -0.255 F 
ENDBRANCH   4  22
TORSDOF 2
ENDMDL
MODEL 4
REMARK VINA RESULT:      -7.0      3.544      7.083
REMARK  2 active torsions:
REMARK  status: ('A' for Active; 'I' for Inactive)
REMARK    1  A    between atoms: C2_3  and  C3_4 
REMARK    2  A    between atoms: C6_7  and  C7_8 
ROOT
HETATM    1  C3  UNL     1      26.043   1.295  52.186  1.00  0.00     0.071 C 
HETATM    2  C4  UNL     1      26.759   1.923  51.138  1.00  0.00     0.145 C 
HETATM    3  C5  UNL     1      25.932   3.141  50.930  1.00  0.00     0.027 C 
HETATM    4  C6  UNL     1      26.778   3.582  49.876  1.00  0.00     0.046 C 
HETATM    5  N2  UNL     1      25.116   4.357  50.714  1.00  0.00    -0.414 N 
HETATM    6  C8  UNL     1      23.962   3.865  49.982  1.00  0.00     0.144 C 
HETATM    7  C9  UNL     1      22.778   4.703  50.455  1.00  0.00     0.292 C 
HETATM    8  N3  UNL     1      21.656   3.744  50.714  1.00  0.00     0.106 N 
HETATM    9  C10 UNL     1      20.434   4.491  50.479  1.00  0.00     0.299 C 
HETATM   10  C11 UNL     1      19.283   3.905  51.232  1.00  0.00     0.198 C 
HETATM   11  O1  UNL     1      19.530   2.544  51.375  1.00  0.00    -0.387 OA
HETATM   12  C12 UNL     1      20.522   2.387  52.334  1.00  0.00     0.211 C 
HETATM   13  C13 UNL     1      21.692   3.314  52.085  1.00  0.00     0.317 C 
HETATM   14  C14 UNL     1      22.935   2.680  52.543  1.00  0.00     0.186 C 
HETATM   15  O2  UNL     1      23.703   3.345  53.270  1.00  0.00    -0.293 OA
HETATM   16  C15 UNL     1      23.619   1.346  52.374  1.00  0.00     0.256 C 
HETATM   17  O3  UNL     1      24.895   1.378  53.056  1.00  0.00    -0.346 OA
HETATM   18  H9  UNL     1      25.490   5.244  51.107  1.00  0.00     0.153 HD
ENDROOT
BRANCH   1  19
HETATM   19  C2  UNL     1      26.856   0.061  52.437  1.00  0.00     0.142 C 
HETATM   20  N1  UNL     1      27.925   0.068  53.107  1.00  0.00    -0.304 NA
HETATM   21  C1  UNL     1      28.791  -1.036  53.416  1.00  0.00     0.177 C 
ENDBRANCH   1  19
BRANCH   4  22
HETATM   22  C7  UNL     1      26.866   4.746  48.933  1.00  0.00     0.229 C 
HETATM   23  F1  UNL     1      28.102   4.674  48.297  1.00  0.00    -0.255 F 
ENDBRANCH   4  22
TORSDOF 2
ENDMDL
MODEL 5
REMARK VINA RESULT:      -6.9      2.122      5.386
REMARK  2 active torsions:
REMARK  status: ('A' for Active; 'I' for Inactive)
REMARK    1  A    between atoms: C2_3  and  C3_4 
REMARK    2  A    between atoms: C6_7  and  C7_8 
ROOT
HETATM    1  C3  UNL     1      26.081   0.307  53.230  1.00  0.00     0.071 C 
HETATM    2  C4  UNL     1      25.143  -0.516  53.899  1.00  0.00     0.145 C 
HETATM    3  C5  UNL     1      23.890  -0.136  53.194  1.00  0.00     0.027 C 
HETATM    4  C6  UNL     1      23.122  -1.018  54.002  1.00  0.00     0.046 C 
HETATM    5  N2  UNL     1      22.637   0.235  52.500  1.00  0.00    -0.414 N 
HETATM    6  C8  UNL     1      22.302   1.528  53.072  1.00  0.00     0.144 C 
HETATM    7  C9  UNL     1      21.663   2.331  51.943  1.00  0.00     0.292 C 
HETATM    8  N3  UNL     1      22.287   3.694  51.986  1.00  0.00     0.106 N 
HETATM    9  C10 UNL     1      21.285   4.604  51.465  1.00  0.00     0.299 C 
HETATM   10  C11 UNL     1      21.911   5.840  50.901  1.00  0.00     0.198 C 
HETATM   11  O1  UNL     1      23.097   6.057  51.595  1.00  0.00    -0.387 OA
HETATM   12  C12 UNL     1      24.026   5.122  51.158  1.00  0.00     0.211 C 
HETATM   13  C13 UNL     1      23.445   3.725  51.136  1.00  0.00     0.317 C 
HETATM   14  C14 UNL     1      24.498   2.743  51.422  1.00  0.00     0.186 C 
HETATM   15  O2  UNL     1      24.605   1.755  50.665  1.00  0.00    -0.293 OA
HETATM   16  C15 UNL     1      25.580   2.557  52.457  1.00  0.00     0.256 C 
HETATM   17  O3  UNL     1      26.265   1.308  52.207  1.00  0.00    -0.346 OA
HETATM   18  H9  UNL     1      22.281  -0.437  51.791  1.00  0.00     0.153 HD
ENDROOT
BRANCH   1  19
HETATM   19  C2  UNL     1      27.368  -0.057  53.905  1.00  0.00     0.142 C 
HETATM   20  N1  UNL     1      28.398  -0.417  53.272  1.00  0.00    -0.304 NA
HETATM   21  C1  UNL     1      29.683  -0.792  53.796  1.00  0.00     0.177 C 
ENDBRANCH   1  19
BRANCH   4  22
HETATM   22  C7  UNL     1      21.688  -1.437  54.140  1.00  0.00     0.229 C 
HETATM   23  F1  UNL     1      21.156  -0.752  55.228  1.00  0.00    -0.255 F 
ENDBRANCH   4  22
TORSDOF 2
ENDMDL
MODEL 6
REMARK VINA RESULT:      -6.8      2.105      5.771
REMARK  2 active torsions:
REMARK  status: ('A' for Active; 'I' for Inactive)
REMARK    1  A    between atoms: C2_3  and  C3_4 
REMARK    2  A    between atoms: C6_7  and  C7_8 
ROOT
HETATM    1  C3  UNL     1      25.552   0.971  52.608  1.00  0.00     0.071 C 
HETATM    2  C4  UNL     1      24.852   0.060  53.437  1.00  0.00     0.145 C 
HETATM    3  C5  UNL     1      23.486   0.154  52.856  1.00  0.00     0.027 C 
HETATM    4  C6  UNL     1      22.977  -0.773  53.807  1.00  0.00     0.046 C 
HETATM    5  N2  UNL     1      22.123   0.239  52.286  1.00  0.00    -0.414 N 
HETATM    6  C8  UNL     1      21.618   1.499  52.802  1.00  0.00     0.144 C 
HETATM    7  C9  UNL     1      20.733   2.076  51.701  1.00  0.00     0.292 C 
HETATM    8  N3  UNL     1      21.100   3.525  51.577  1.00  0.00     0.106 N 
HETATM    9  C10 UNL     1      19.902   4.198  51.113  1.00  0.00     0.299 C 
HETATM   10  C11 UNL     1      20.232   5.468  50.396  1.00  0.00     0.198 C 
HETATM   11  O1  UNL     1      21.423   5.948  50.931  1.00  0.00    -0.387 OA
HETATM   12  C12 UNL     1      22.457   5.153  50.456  1.00  0.00     0.211 C 
HETATM   13  C13 UNL     1      22.141   3.680  50.599  1.00  0.00     0.317 C 
HETATM   14  C14 UNL     1      23.378   2.925  50.829  1.00  0.00     0.186 C 
HETATM   15  O2  UNL     1      23.587   1.907  50.136  1.00  0.00    -0.293 OA
HETATM   16  C15 UNL     1      24.575   3.022  51.743  1.00  0.00     0.256 C 
HETATM   17  O3  UNL     1      25.448   1.893  51.504  1.00  0.00    -0.346 OA
HETATM   18  H9  UNL     1      21.826  -0.545  51.672  1.00  0.00     0.153 HD
ENDROOT
BRANCH   1  19
HETATM   19  C2  UNL     1      26.946   0.897  53.154  1.00  0.00     0.142 C 
HETATM   20  N1  UNL     1      27.231   0.309  54.234  1.00  0.00    -0.304 NA
HETATM   21  C1  UNL     1      28.516   0.170  54.862  1.00  0.00     0.177 C 
ENDBRANCH   1  19
BRANCH   4  22
HETATM   22  C7  UNL     1      21.665  -1.420  54.137  1.00  0.00     0.229 C 
HETATM   23  F1  UNL     1      21.133  -0.747  55.233  1.00  0.00    -0.255 F 
ENDBRANCH   4  22
TORSDOF 2
ENDMDL
MODEL 7
REMARK VINA RESULT:      -6.7      3.630      7.313
REMARK  2 active torsions:
REMARK  status: ('A' for Active; 'I' for Inactive)
REMARK    1  A    between atoms: C2_3  and  C3_4 
REMARK    2  A    between atoms: C6_7  and  C7_8 
ROOT
HETATM    1  C3  UNL     1      23.728   0.065  53.424  1.00  0.00     0.071 C 
HETATM    2  C4  UNL     1      24.015   0.772  52.232  1.00  0.00     0.145 C 
HETATM    3  C5  UNL     1      22.667   1.298  51.891  1.00  0.00     0.027 C 
HETATM    4  C6  UNL     1      23.165   1.919  50.713  1.00  0.00     0.046 C 
HETATM    5  N2  UNL     1      21.329   1.826  51.542  1.00  0.00    -0.414 N 
HETATM    6  C8  UNL     1      20.640   0.669  50.997  1.00  0.00     0.144 C 
HETATM    7  C9  UNL     1      19.181   0.817  51.418  1.00  0.00     0.292 C 
HETATM    8  N3  UNL     1      18.747  -0.526  51.924  1.00  0.00     0.106 N 
HETATM    9  C10 UNL     1      17.321  -0.605  51.666  1.00  0.00     0.299 C 
HETATM   10  C11 UNL     1      16.651  -1.564  52.597  1.00  0.00     0.198 C 
HETATM   11  O1  UNL     1      17.590  -2.529  52.945  1.00  0.00    -0.387 OA
HETATM   12  C12 UNL     1      18.488  -1.953  53.833  1.00  0.00     0.211 C 
HETATM   13  C13 UNL     1      18.979  -0.610  53.340  1.00  0.00     0.317 C 
HETATM   14  C14 UNL     1      20.356  -0.385  53.795  1.00  0.00     0.186 C 
HETATM   15  O2  UNL     1      20.628   0.708  54.336  1.00  0.00    -0.293 OA
HETATM   16  C15 UNL     1      21.656  -1.152  53.797  1.00  0.00     0.256 C 
HETATM   17  O3  UNL     1      22.697  -0.319  54.358  1.00  0.00    -0.346 OA
HETATM   18  H9  UNL     1      21.157   2.830  51.749  1.00  0.00     0.153 HD
ENDROOT
BRANCH   1  19
HETATM   19  C2  UNL     1      25.072  -0.473  53.812  1.00  0.00     0.142 C 
HETATM   20  N1  UNL     1      26.019   0.262  54.205  1.00  0.00    -0.304 NA
HETATM   21  C1  UNL     1      27.345  -0.126  54.600  1.00  0.00     0.177 C 
ENDBRANCH   1  19
BRANCH   4  22
HETATM   22  C7  UNL     1      22.633   2.753  49.585  1.00  0.00     0.229 C 
HETATM   23  F1  UNL     1      22.677   1.973  48.434  1.00  0.00    -0.255 F 
ENDBRANCH   4  22
TORSDOF 2
ENDMDL
MODEL 8
REMARK VINA RESULT:      -6.7      3.055      5.193
REMARK  2 active torsions:
REMARK  status: ('A' for Active; 'I' for Inactive)
REMARK    1  A    between atoms: C2_3  and  C3_4 
REMARK    2  A    between atoms: C6_7  and  C7_8 
ROOT
HETATM    1  C3  UNL     1      20.581   0.785  52.406  1.00  0.00     0.071 C 
HETATM    2  C4  UNL     1      21.550  -0.125  52.895  1.00  0.00     0.145 C 
HETATM    3  C5  UNL     1      22.746   0.755  52.959  1.00  0.00     0.027 C 
HETATM    4  C6  UNL     1      23.556  -0.317  53.425  1.00  0.00     0.046 C 
HETATM    5  N2  UNL     1      23.944   1.621  53.027  1.00  0.00    -0.414 N 
HETATM    6  C8  UNL     1      24.364   1.728  51.641  1.00  0.00     0.144 C 
HETATM    7  C9  UNL     1      24.925   3.139  51.482  1.00  0.00     0.292 C 
HETATM    8  N3  UNL     1      24.347   3.685  50.211  1.00  0.00     0.106 N 
HETATM    9  C10 UNL     1      25.325   4.629  49.705  1.00  0.00     0.299 C 
HETATM   10  C11 UNL     1      24.687   5.655  48.823  1.00  0.00     0.198 C 
HETATM   11  O1  UNL     1      23.573   5.063  48.238  1.00  0.00    -0.387 OA
HETATM   12  C12 UNL     1      22.584   4.962  49.206  1.00  0.00     0.211 C 
HETATM   13  C13 UNL     1      23.120   4.378  50.495  1.00  0.00     0.317 C 
HETATM   14  C14 UNL     1      22.069   3.606  51.168  1.00  0.00     0.186 C 
HETATM   15  O2  UNL     1      21.867   3.817  52.383  1.00  0.00    -0.293 OA
HETATM   16  C15 UNL     1      21.076   2.534  50.792  1.00  0.00     0.256 C 
HETATM   17  O3  UNL     1      20.336   2.138  51.971  1.00  0.00    -0.346 OA
HETATM   18  H9  UNL     1      24.218   1.964  53.970  1.00  0.00     0.153 HD
ENDROOT
BRANCH   1  19
HETATM   19  C2  UNL     1      19.347  -0.064  52.338  1.00  0.00     0.142 C 
HETATM   20  N1  UNL     1      18.978  -0.816  53.281  1.00  0.00    -0.304 NA
HETATM   21  C1  UNL     1      17.827  -1.675  53.340  1.00  0.00     0.177 C 
ENDBRANCH   1  19
BRANCH   4  22
HETATM   22  C7  UNL     1      24.984  -0.538  53.829  1.00  0.00     0.229 C 
HETATM   23  F1  UNL     1      25.609  -1.223  52.791  1.00  0.00    -0.255 F 
ENDBRANCH   4  22
TORSDOF 2
ENDMDL
MODEL 9
REMARK VINA RESULT:      -6.6      3.385      6.133
REMARK  2 active torsions:
REMARK  status: ('A' for Active; 'I' for Inactive)
REMARK    1  A    between atoms: C2_3  and  C3_4 
REMARK    2  A    between atoms: C6_7  and  C7_8 
ROOT
HETATM    1  C3  UNL     1      25.805   3.957  49.560  1.00  0.00     0.071 C 
HETATM    2  C4  UNL     1      26.570   3.319  50.567  1.00  0.00     0.145 C 
HETATM    3  C5  UNL     1      25.591   2.317  51.064  1.00  0.00     0.027 C 
HETATM    4  C6  UNL     1      26.516   1.836  52.031  1.00  0.00     0.046 C 
HETATM    5  N2  UNL     1      24.625   1.314  51.567  1.00  0.00    -0.414 N 
HETATM    6  C8  UNL     1      23.719   2.100  52.388  1.00  0.00     0.144 C 
HETATM    7  C9  UNL     1      22.344   1.462  52.218  1.00  0.00     0.292 C 
HETATM    8  N3  UNL     1      21.378   2.588  51.998  1.00  0.00     0.106 N 
HETATM    9  C10 UNL     1      20.105   2.124  52.515  1.00  0.00     0.299 C 
HETATM   10  C11 UNL     1      18.961   2.838  51.868  1.00  0.00     0.198 C 
HETATM   11  O1  UNL     1      19.414   4.101  51.501  1.00  0.00    -0.387 OA
HETATM   12  C12 UNL     1      20.237   3.955  50.393  1.00  0.00     0.211 C 
HETATM   13  C13 UNL     1      21.252   2.851  50.591  1.00  0.00     0.317 C 
HETATM   14  C14 UNL     1      22.488   3.175  49.868  1.00  0.00     0.186 C 
HETATM   15  O2  UNL     1      22.991   2.298  49.135  1.00  0.00    -0.293 OA
HETATM   16  C15 UNL     1      23.414   4.360  49.745  1.00  0.00     0.256 C 
HETATM   17  O3  UNL     1      24.527   4.005  48.891  1.00  0.00    -0.346 OA
HETATM   18  H9  UNL     1      24.764   0.334  51.251  1.00  0.00     0.153 HD
ENDROOT
BRANCH   1  19
HETATM   19  C2  UNL     1      26.765   4.973  49.020  1.00  0.00     0.142 C 
HETATM   20  N1  UNL     1      27.954   4.695  48.704  1.00  0.00    -0.304 NA
HETATM   21  C1  UNL     1      28.968   5.570  48.182  1.00  0.00     0.177 C 
ENDBRANCH   1  19
BRANCH   4  22
HETATM   22  C7  UNL     1      26.561   0.788  53.104  1.00  0.00     0.229 C 
HETATM   23  F1  UNL     1      27.269  -0.297  52.596  1.00  0.00    -0.255 F 
ENDBRANCH   4  22
TORSDOF 2
ENDMDL
