MODEL 1
REMARK VINA RESULT:      -7.0      0.000      0.000
REMARK  4 active torsions:
REMARK  status: ('A' for Active; 'I' for Inactive)
REMARK    1  A    between atoms: O1_2  and  C2_3 
REMARK    2  A    between atoms: C5_6  and  N1_7 
REMARK       I    between atoms: N1_7  and  C6_8 
REMARK    3  A    between atoms: C8_11  and  C9_12 
REMARK    4  A    between atoms: C9_12  and  O3_13 
ROOT
HETATM    1  C2  UNL     1      24.354   2.284  50.884  1.00  0.00     0.090 A 
HETATM    2  C3  UNL     1      24.178   1.461  51.881  1.00  0.00     0.049 A 
HETATM    3  C4  UNL     1      23.024   0.781  52.362  1.00  0.00    -0.015 A 
HETATM    4  C5  UNL     1      23.178   0.011  53.422  1.00  0.00     0.052 C 
HETATM    5  C8  UNL     1      22.079  -0.712  54.049  1.00  0.00     0.010 C 
HETATM    6  C10 UNL     1      20.812  -0.237  54.113  1.00  0.00     0.127 C 
HETATM    7  N2  UNL     1      20.352   1.021  53.590  1.00  0.00    -0.275 NA
HETATM    8  C11 UNL     1      20.764   1.590  52.509  1.00  0.00     0.102 C 
HETATM    9  C12 UNL     1      21.804   1.072  51.566  1.00  0.00     0.086 A 
HETATM   10  C13 UNL     1      22.040   1.993  50.469  1.00  0.00     0.015 A 
HETATM   11  C14 UNL     1      23.162   2.579  50.101  1.00  0.00     0.064 A 
HETATM   12 CL1  UNL     1      23.197   3.656  48.733  1.00  0.00    -0.082 Cl
ENDROOT
BRANCH   4  13
HETATM   13  N1  UNL     1      24.429  -0.111  54.024  1.00  0.00    -0.326 N 
HETATM   14  C6  UNL     1      25.673  -0.235  54.627  1.00  0.00     0.218 C 
HETATM   15  C7  UNL     1      27.070   0.157  54.572  1.00  0.00     0.117 C 
HETATM   16  O2  UNL     1      25.567  -0.972  55.608  1.00  0.00    -0.274 OA
HETATM   17  H5  UNL     1      25.035   0.507  53.429  1.00  0.00     0.169 HD
ENDBRANCH   4  13
BRANCH   5  18
HETATM   18  C9  UNL     1      22.350  -2.057  54.647  1.00  0.00     0.206 C 
BRANCH  18  19
HETATM   19  O3  UNL     1      22.924  -1.887  55.924  1.00  0.00    -0.396 OA
HETATM   20  H11 UNL     1      22.969  -0.916  56.100  1.00  0.00     0.209 HD
ENDBRANCH  18  19
ENDBRANCH   5  18
BRANCH   1  21
HETATM   21  O1  UNL     1      25.586   2.811  50.625  1.00  0.00    -0.354 OA
HETATM   22  C1  UNL     1      26.786   2.466  51.270  1.00  0.00     0.210 C 
ENDBRANCH   1  21
TORSDOF 4
ENDMDL
MODEL 2
REMARK VINA RESULT:      -7.0      1.600      3.940
REMARK  4 active torsions:
REMARK  status: ('A' for Active; 'I' for Inactive)
REMARK    1  A    between atoms: O1_2  and  C2_3 
REMARK    2  A    between atoms: C5_6  and  N1_7 
REMARK       I    between atoms: N1_7  and  C6_8 
REMARK    3  A    between atoms: C8_11  and  C9_12 
REMARK    4  A    between atoms: C9_12  and  O3_13 
ROOT
HETATM    1  C2  UNL     1      22.900   1.978  50.953  1.00  0.00     0.090 A 
HETATM    2  C3  UNL     1      23.200   1.210  51.966  1.00  0.00     0.049 A 
HETATM    3  C4  UNL     1      24.427   0.964  52.643  1.00  0.00    -0.015 A 
HETATM    4  C5  UNL     1      24.399   0.105  53.644  1.00  0.00     0.052 C 
HETATM    5  C8  UNL     1      25.584  -0.275  54.400  1.00  0.00     0.010 C 
HETATM    6  C10 UNL     1      26.820  -0.378  53.854  1.00  0.00     0.127 C 
HETATM    7  N2  UNL     1      27.159  -0.136  52.477  1.00  0.00    -0.275 NA
HETATM    8  C11 UNL     1      26.635   0.759  51.713  1.00  0.00     0.102 C 
HETATM    9  C12 UNL     1      25.566   1.738  52.083  1.00  0.00     0.086 A 
HETATM   10  C13 UNL     1      25.192   2.577  50.959  1.00  0.00     0.015 A 
HETATM   11  C14 UNL     1      24.011   2.736  50.395  1.00  0.00     0.064 A 
HETATM   12 CL1  UNL     1      23.809   3.813  49.042  1.00  0.00    -0.082 Cl
ENDROOT
BRANCH   4  13
HETATM   13  N1  UNL     1      23.205  -0.520  53.997  1.00  0.00    -0.326 N 
HETATM   14  C6  UNL     1      22.019  -1.146  54.354  1.00  0.00     0.218 C 
HETATM   15  C7  UNL     1      20.623  -1.347  54.004  1.00  0.00     0.117 C 
HETATM   16  O2  UNL     1      22.206  -1.799  55.381  1.00  0.00    -0.274 OA
HETATM   17  H5  UNL     1      22.553  -0.229  53.228  1.00  0.00     0.169 HD
ENDBRANCH   4  13
BRANCH   5  18
HETATM   18  C9  UNL     1      25.445  -0.560  55.864  1.00  0.00     0.206 C 
BRANCH  18  19
HETATM   19  O3  UNL     1      24.993  -1.884  56.036  1.00  0.00    -0.396 OA
HETATM   20  H11 UNL     1      24.326  -1.876  56.765  1.00  0.00     0.209 HD
ENDBRANCH  18  19
ENDBRANCH   5  18
BRANCH   1  21
HETATM   21  O1  UNL     1      21.621   2.039  50.481  1.00  0.00    -0.354 OA
HETATM   22  C1  UNL     1      21.073   1.233  49.468  1.00  0.00     0.210 C 
ENDBRANCH   1  21
TORSDOF 4
ENDMDL
MODEL 3
REMARK VINA RESULT:      -6.8      2.962      5.519
REMARK  4 active torsions:
REMARK  status: ('A' for Active; 'I' for Inactive)
REMARK    1  A    between atoms: O1_2  and  C2_3 
REMARK    2  A    between atoms: C5_6  and  N1_7 
REMARK       I    between atoms: N1_7  and  C6_8 
REMARK    3  A    between atoms: C8_11  and  C9_12 
REMARK    4  A    between atoms: C9_12  and  O3_13 
ROOT
HETATM    1  C2  UNL     1      25.976  -0.172  54.092  1.00  0.00     0.090 A 
HETATM    2  C3  UNL     1      24.966   0.322  53.430  1.00  0.00     0.049 A 
HETATM    3  C4  UNL     1      24.890   1.030  52.198  1.00  0.00    -0.015 A 
HETATM    4  C5  UNL     1      23.692   1.412  51.797  1.00  0.00     0.052 C 
HETATM    5  C8  UNL     1      23.466   2.178  50.579  1.00  0.00     0.010 C 
HETATM    6  C10 UNL     1      24.332   3.109  50.109  1.00  0.00     0.127 C 
HETATM    7  N2  UNL     1      25.581   3.485  50.715  1.00  0.00    -0.275 NA
HETATM    8  C11 UNL     1      26.392   2.697  51.334  1.00  0.00     0.102 C 
HETATM    9  C12 UNL     1      26.216   1.228  51.558  1.00  0.00     0.086 A 
HETATM   10  C13 UNL     1      27.313   0.667  52.325  1.00  0.00     0.015 A 
HETATM   11  C14 UNL     1      27.281   0.022  53.474  1.00  0.00     0.064 A 
HETATM   12 CL1  UNL     1      28.748  -0.565  54.207  1.00  0.00    -0.082 Cl
ENDROOT
BRANCH   4  13
HETATM   13  N1  UNL     1      22.569   1.123  52.570  1.00  0.00    -0.326 N 
HETATM   14  C6  UNL     1      21.449   0.838  53.337  1.00  0.00     0.218 C 
HETATM   15  C7  UNL     1      20.933   0.077  54.462  1.00  0.00     0.117 C 
HETATM   16  O2  UNL     1      20.494   1.483  52.902  1.00  0.00    -0.274 OA
HETATM   17  H5  UNL     1      22.947   0.458  53.290  1.00  0.00     0.169 HD
ENDBRANCH   4  13
BRANCH   5  18
HETATM   18  C9  UNL     1      22.220   1.926  49.790  1.00  0.00     0.206 C 
BRANCH  18  19
HETATM   19  O3  UNL     1      21.171   2.703  50.322  1.00  0.00    -0.396 OA
HETATM   20  H11 UNL     1      20.619   3.013  49.562  1.00  0.00     0.209 HD
ENDBRANCH  18  19
ENDBRANCH   5  18
BRANCH   1  21
HETATM   21  O1  UNL     1      25.783  -0.821  55.277  1.00  0.00    -0.354 OA
HETATM   22  C1  UNL     1      24.545  -1.222  55.808  1.00  0.00     0.210 C 
ENDBRANCH   1  21
TORSDOF 4
ENDMDL
MODEL 4
REMARK VINA RESULT:      -6.7      3.032      6.186
REMARK  4 active torsions:
REMARK  status: ('A' for Active; 'I' for Inactive)
REMARK    1  A    between atoms: O1_2  and  C2_3 
REMARK    2  A    between atoms: C5_6  and  N1_7 
REMARK       I    between atoms: N1_7  and  C6_8 
REMARK    3  A    between atoms: C8_11  and  C9_12 
REMARK    4  A    between atoms: C9_12  and  O3_13 
ROOT
HETATM    1  C2  UNL     1      22.121   0.631  53.385  1.00  0.00     0.090 A 
HETATM    2  C3  UNL     1      22.876   1.466  52.725  1.00  0.00     0.049 A 
HETATM    3  C4  UNL     1      24.265   1.454  52.417  1.00  0.00    -0.015 A 
HETATM    4  C5  UNL     1      24.737   2.475  51.727  1.00  0.00     0.052 C 
HETATM    5  C8  UNL     1      26.143   2.618  51.375  1.00  0.00     0.010 C 
HETATM    6  C10 UNL     1      27.160   2.202  52.170  1.00  0.00     0.127 C 
HETATM    7  N2  UNL     1      27.025   1.571  53.455  1.00  0.00    -0.275 NA
HETATM    8  C11 UNL     1      26.099   0.742  53.800  1.00  0.00     0.102 C 
HETATM    9  C12 UNL     1      24.969   0.258  52.948  1.00  0.00     0.086 A 
HETATM   10  C13 UNL     1      24.096  -0.645  53.677  1.00  0.00     0.015 A 
HETATM   11  C14 UNL     1      22.804  -0.542  53.914  1.00  0.00     0.064 A 
HETATM   12 CL1  UNL     1      21.965  -1.769  54.822  1.00  0.00    -0.082 Cl
ENDROOT
BRANCH   4  13
HETATM   13  N1  UNL     1      23.888   3.507  51.334  1.00  0.00    -0.326 N 
HETATM   14  C6  UNL     1      23.045   4.537  50.939  1.00  0.00     0.218 C 
HETATM   15  C7  UNL     1      21.743   5.153  51.127  1.00  0.00     0.117 C 
HETATM   16  O2  UNL     1      23.617   5.212  50.082  1.00  0.00    -0.274 OA
HETATM   17  H5  UNL     1      23.045   3.359  51.942  1.00  0.00     0.169 HD
ENDBRANCH   4  13
BRANCH   5  18
HETATM   18  C9  UNL     1      26.498   3.245  50.063  1.00  0.00     0.206 C 
BRANCH  18  19
HETATM   19  O3  UNL     1      26.499   4.647  50.206  1.00  0.00    -0.396 OA
HETATM   20  H11 UNL     1      25.737   4.884  50.790  1.00  0.00     0.209 HD
ENDBRANCH  18  19
ENDBRANCH   5  18
BRANCH   1  21
HETATM   21  O1  UNL     1      20.788   0.875  53.546  1.00  0.00    -0.354 OA
HETATM   22  C1  UNL     1      19.741   0.233  52.861  1.00  0.00     0.210 C 
ENDBRANCH   1  21
TORSDOF 4
ENDMDL
MODEL 5
REMARK VINA RESULT:      -6.7      2.908      4.621
REMARK  4 active torsions:
REMARK  status: ('A' for Active; 'I' for Inactive)
REMARK    1  A    between atoms: O1_2  and  C2_3 
REMARK    2  A    between atoms: C5_6  and  N1_7 
REMARK       I    between atoms: N1_7  and  C6_8 
REMARK    3  A    between atoms: C8_11  and  C9_12 
REMARK    4  A    between atoms: C9_12  and  O3_13 
ROOT
HETATM    1  C2  UNL     1      26.356   2.411  51.634  1.00  0.00     0.090 A 
HETATM    2  C3  UNL     1      25.115   2.055  51.443  1.00  0.00     0.049 A 
HETATM    3  C4  UNL     1      24.169   1.410  52.287  1.00  0.00    -0.015 A 
HETATM    4  C5  UNL     1      22.973   1.174  51.781  1.00  0.00     0.052 C 
HETATM    5  C8  UNL     1      21.919   0.486  52.514  1.00  0.00     0.010 C 
HETATM    6  C10 UNL     1      22.152  -0.511  53.401  1.00  0.00     0.127 C 
HETATM    7  N2  UNL     1      23.441  -1.043  53.757  1.00  0.00    -0.275 NA
HETATM    8  C11 UNL     1      24.536  -0.371  53.861  1.00  0.00     0.102 C 
HETATM    9  C12 UNL     1      24.710   1.098  53.636  1.00  0.00     0.086 A 
HETATM   10  C13 UNL     1      26.092   1.507  53.809  1.00  0.00     0.015 A 
HETATM   11  C14 UNL     1      26.896   2.104  52.952  1.00  0.00     0.064 A 
HETATM   12 CL1  UNL     1      28.532   2.502  53.395  1.00  0.00    -0.082 Cl
ENDROOT
BRANCH   4  13
HETATM   13  N1  UNL     1      22.681   1.550  50.471  1.00  0.00    -0.326 N 
HETATM   14  C6  UNL     1      22.386   1.920  49.167  1.00  0.00     0.218 C 
HETATM   15  C7  UNL     1      22.689   2.848  48.092  1.00  0.00     0.117 C 
HETATM   16  O2  UNL     1      21.517   1.166  48.726  1.00  0.00    -0.274 OA
HETATM   17  H5  UNL     1      23.341   2.349  50.305  1.00  0.00     0.169 HD
ENDBRANCH   4  13
BRANCH   5  18
HETATM   18  C9  UNL     1      20.498   0.902  52.292  1.00  0.00     0.206 C 
BRANCH  18  19
HETATM   19  O3  UNL     1      19.995   0.239  51.154  1.00  0.00    -0.396 OA
HETATM   20  H11 UNL     1      19.506  -0.559  51.470  1.00  0.00     0.209 HD
ENDBRANCH  18  19
ENDBRANCH   5  18
BRANCH   1  21
HETATM   21  O1  UNL     1      27.064   3.028  50.644  1.00  0.00    -0.354 OA
HETATM   22  C1  UNL     1      26.523   3.686  49.526  1.00  0.00     0.210 C 
ENDBRANCH   1  21
TORSDOF 4
ENDMDL
MODEL 6
REMARK VINA RESULT:      -6.6      2.443      4.603
REMARK  4 active torsions:
REMARK  status: ('A' for Active; 'I' for Inactive)
REMARK    1  A    between atoms: O1_2  and  C2_3 
REMARK    2  A    between atoms: C5_6  and  N1_7 
REMARK       I    between atoms: N1_7  and  C6_8 
REMARK    3  A    between atoms: C8_11  and  C9_12 
REMARK    4  A    between atoms: C9_12  and  O3_13 
ROOT
HETATM    1  C2  UNL     1      22.032   0.474  52.675  1.00  0.00     0.090 A 
HETATM    2  C3  UNL     1      23.332   0.549  52.599  1.00  0.00     0.049 A 
HETATM    3  C4  UNL     1      24.203   1.602  52.202  1.00  0.00    -0.015 A 
HETATM    4  C5  UNL     1      25.499   1.352  52.225  1.00  0.00     0.052 C 
HETATM    5  C8  UNL     1      26.505   2.318  51.807  1.00  0.00     0.010 C 
HETATM    6  C10 UNL     1      26.315   3.210  50.804  1.00  0.00     0.127 C 
HETATM    7  N2  UNL     1      25.125   3.347  50.008  1.00  0.00    -0.275 NA
HETATM    8  C11 UNL     1      23.913   3.193  50.422  1.00  0.00     0.102 C 
HETATM    9  C12 UNL     1      23.480   2.839  51.809  1.00  0.00     0.086 A 
HETATM   10  C13 UNL     1      22.037   2.715  51.905  1.00  0.00     0.015 A 
HETATM   11  C14 UNL     1      21.314   1.681  52.288  1.00  0.00     0.064 A 
HETATM   12 CL1  UNL     1      19.576   1.774  52.323  1.00  0.00    -0.082 Cl
ENDROOT
BRANCH   4  13
HETATM   13  N1  UNL     1      25.963   0.100  52.625  1.00  0.00    -0.326 N 
HETATM   14  C6  UNL     1      26.423  -1.146  53.028  1.00  0.00     0.218 C 
HETATM   15  C7  UNL     1      27.142  -2.341  52.624  1.00  0.00     0.117 C 
HETATM   16  O2  UNL     1      26.100  -1.328  54.203  1.00  0.00    -0.274 OA
HETATM   17  H5  UNL     1      26.463  -0.248  51.769  1.00  0.00     0.169 HD
ENDBRANCH   4  13
BRANCH   5  18
HETATM   18  C9  UNL     1      27.820   2.346  52.522  1.00  0.00     0.206 C 
BRANCH  18  19
HETATM   19  O3  UNL     1      27.595   2.597  53.891  1.00  0.00    -0.396 OA
HETATM   20  H11 UNL     1      26.663   2.913  53.984  1.00  0.00     0.209 HD
ENDBRANCH  18  19
ENDBRANCH   5  18
BRANCH   1  21
HETATM   21  O1  UNL     1      21.423  -0.673  53.095  1.00  0.00    -0.354 OA
HETATM   22  C1  UNL     1      21.522  -1.240  54.378  1.00  0.00     0.210 C 
ENDBRANCH   1  21
TORSDOF 4
ENDMDL
MODEL 7
REMARK VINA RESULT:      -6.5      2.949      4.947
REMARK  4 active torsions:
REMARK  status: ('A' for Active; 'I' for Inactive)
REMARK    1  A    between atoms: O1_2  and  C2_3 
REMARK    2  A    between atoms: C5_6  and  N1_7 
REMARK       I    between atoms: N1_7  and  C6_8 
REMARK    3  A    between atoms: C8_11  and  C9_12 
REMARK    4  A    between atoms: C9_12  and  O3_13 
ROOT
HETATM    1  C2  UNL     1      20.303   0.648  52.850  1.00  0.00     0.090 A 
HETATM    2  C3  UNL     1      21.589   0.873  52.871  1.00  0.00     0.049 A 
HETATM    3  C4  UNL     1      22.686   0.085  53.319  1.00  0.00    -0.015 A 
HETATM    4  C5  UNL     1      23.890   0.615  53.213  1.00  0.00     0.052 C 
HETATM    5  C8  UNL     1      25.099  -0.057  53.668  1.00  0.00     0.010 C 
HETATM    6  C10 UNL     1      25.142  -0.868  54.752  1.00  0.00     0.127 C 
HETATM    7  N2  UNL     1      24.035  -1.190  55.612  1.00  0.00    -0.275 NA
HETATM    8  C11 UNL     1      22.810  -1.351  55.244  1.00  0.00     0.102 C 
HETATM    9  C12 UNL     1      22.272  -1.239  53.852  1.00  0.00     0.086 A 
HETATM   10  C13 UNL     1      20.836  -1.450  53.813  1.00  0.00     0.015 A 
HETATM   11  C14 UNL     1      19.889  -0.646  53.375  1.00  0.00     0.064 A 
HETATM   12 CL1  UNL     1      18.216  -1.128  53.430  1.00  0.00    -0.082 Cl
ENDROOT
BRANCH   4  13
HETATM   13  N1  UNL     1      24.048   1.894  52.684  1.00  0.00    -0.326 N 
HETATM   14  C6  UNL     1      24.210   3.167  52.154  1.00  0.00     0.218 C 
HETATM   15  C7  UNL     1      23.634   4.495  52.041  1.00  0.00     0.117 C 
HETATM   16  O2  UNL     1      25.265   3.202  51.520  1.00  0.00    -0.274 OA
HETATM   17  H5  UNL     1      23.202   2.402  53.043  1.00  0.00     0.169 HD
ENDBRANCH   4  13
BRANCH   5  18
HETATM   18  C9  UNL     1      26.367   0.141  52.896  1.00  0.00     0.206 C 
BRANCH  18  19
HETATM   19  O3  UNL     1      26.963   1.356  53.291  1.00  0.00    -0.396 OA
HETATM   20  H11 UNL     1      27.923   1.301  53.064  1.00  0.00     0.209 HD
ENDBRANCH  18  19
ENDBRANCH   5  18
BRANCH   1  21
HETATM   21  O1  UNL     1      19.440   1.584  52.359  1.00  0.00    -0.354 OA
HETATM   22  C1  UNL     1      19.765   2.907  52.010  1.00  0.00     0.210 C 
ENDBRANCH   1  21
TORSDOF 4
ENDMDL
MODEL 8
REMARK VINA RESULT:      -6.2      2.652      4.870
REMARK  4 active torsions:
REMARK  status: ('A' for Active; 'I' for Inactive)
REMARK    1  A    between atoms: O1_2  and  C2_3 
REMARK    2  A    between atoms: C5_6  and  N1_7 
REMARK       I    between atoms: N1_7  and  C6_8 
REMARK    3  A    between atoms: C8_11  and  C9_12 
REMARK    4  A    between atoms: C9_12  and  O3_13 
ROOT
HETATM    1  C2  UNL     1      21.327  -0.493  53.158  1.00  0.00     0.090 A 
HETATM    2  C3  UNL     1      22.288   0.184  52.590  1.00  0.00     0.049 A 
HETATM    3  C4  UNL     1      22.286   1.139  51.536  1.00  0.00    -0.015 A 
HETATM    4  C5  UNL     1      23.452   1.644  51.178  1.00  0.00     0.052 C 
HETATM    5  C8  UNL     1      23.607   2.599  50.090  1.00  0.00     0.010 C 
HETATM    6  C10 UNL     1      22.846   2.586  48.969  1.00  0.00     0.127 C 
HETATM    7  N2  UNL     1      21.790   1.655  48.674  1.00  0.00    -0.275 NA
HETATM    8  C11 UNL     1      20.967   1.147  49.525  1.00  0.00     0.102 C 
HETATM    9  C12 UNL     1      20.927   1.409  50.998  1.00  0.00     0.086 A 
HETATM   10  C13 UNL     1      19.887   0.636  51.652  1.00  0.00     0.015 A 
HETATM   11  C14 UNL     1      19.992  -0.238  52.633  1.00  0.00     0.064 A 
HETATM   12 CL1  UNL     1      18.583  -1.046  53.261  1.00  0.00    -0.082 Cl
ENDROOT
BRANCH   4  13
HETATM   13  N1  UNL     1      24.618   1.236  51.823  1.00  0.00    -0.326 N 
HETATM   14  C6  UNL     1      25.779   0.834  52.468  1.00  0.00     0.218 C 
HETATM   15  C7  UNL     1      26.855  -0.141  52.493  1.00  0.00     0.117 C 
HETATM   16  O2  UNL     1      26.004   1.607  53.401  1.00  0.00    -0.274 OA
HETATM   17  H5  UNL     1      24.920   0.405  51.256  1.00  0.00     0.169 HD
ENDBRANCH   4  13
BRANCH   5  18
HETATM   18  C9  UNL     1      24.653   3.664  50.209  1.00  0.00     0.206 C 
BRANCH  18  19
HETATM   19  O3  UNL     1      24.655   4.163  51.528  1.00  0.00    -0.396 OA
HETATM   20  H11 UNL     1      24.384   3.422  52.123  1.00  0.00     0.209 HD
ENDBRANCH  18  19
ENDBRANCH   5  18
BRANCH   1  21
HETATM   21  O1  UNL     1      21.594  -1.367  54.171  1.00  0.00    -0.354 OA
HETATM   22  C1  UNL     1      22.674  -1.289  55.068  1.00  0.00     0.210 C 
ENDBRANCH   1  21
TORSDOF 4
ENDMDL
MODEL 9
REMARK VINA RESULT:      -5.9      2.034      3.216
REMARK  4 active torsions:
REMARK  status: ('A' for Active; 'I' for Inactive)
REMARK    1  A    between atoms: O1_2  and  C2_3 
REMARK    2  A    between atoms: C5_6  and  N1_7 
REMARK       I    between atoms: N1_7  and  C6_8 
REMARK    3  A    between atoms: C8_11  and  C9_12 
REMARK    4  A    between atoms: C9_12  and  O3_13 
ROOT
HETATM    1  C2  UNL     1      21.640   1.884  50.376  1.00  0.00     0.090 A 
HETATM    2  C3  UNL     1      22.640   1.526  51.135  1.00  0.00     0.049 A 
HETATM    3  C4  UNL     1      22.753   0.548  52.163  1.00  0.00    -0.015 A 
HETATM    4  C5  UNL     1      23.924   0.436  52.760  1.00  0.00     0.052 C 
HETATM    5  C8  UNL     1      24.174  -0.491  53.855  1.00  0.00     0.010 C 
HETATM    6  C10 UNL     1      23.247  -0.815  54.788  1.00  0.00     0.127 C 
HETATM    7  N2  UNL     1      21.900  -0.313  54.853  1.00  0.00    -0.275 NA
HETATM    8  C11 UNL     1      21.141  -0.046  53.846  1.00  0.00     0.102 C 
HETATM    9  C12 UNL     1      21.488  -0.197  52.398  1.00  0.00     0.086 A 
HETATM   10  C13 UNL     1      20.400   0.231  51.538  1.00  0.00     0.015 A 
HETATM   11  C14 UNL     1      20.395   1.162  50.604  1.00  0.00     0.064 A 
HETATM   12 CL1  UNL     1      18.951   1.498  49.691  1.00  0.00    -0.082 Cl
ENDROOT
BRANCH   4  13
HETATM   13  N1  UNL     1      24.985   1.255  52.380  1.00  0.00    -0.326 N 
HETATM   14  C6  UNL     1      26.044   2.070  52.006  1.00  0.00     0.218 C 
HETATM   15  C7  UNL     1      26.602   2.892  50.946  1.00  0.00     0.117 C 
HETATM   16  O2  UNL     1      26.845   2.134  52.939  1.00  0.00    -0.274 OA
HETATM   17  H5  UNL     1      24.709   1.560  51.414  1.00  0.00     0.169 HD
ENDBRANCH   4  13
BRANCH   5  18
HETATM   18  C9  UNL     1      25.522  -1.136  53.960  1.00  0.00     0.206 C 
BRANCH  18  19
HETATM   19  O3  UNL     1      26.371  -0.309  54.723  1.00  0.00    -0.396 OA
HETATM   20  H11 UNL     1      26.276   0.611  54.376  1.00  0.00     0.209 HD
ENDBRANCH  18  19
ENDBRANCH   5  18
BRANCH   1  21
HETATM   21  O1  UNL     1      21.790   2.870  49.445  1.00  0.00    -0.354 OA
HETATM   22  C1  UNL     1      22.211   2.695  48.115  1.00  0.00     0.210 C 
ENDBRANCH   1  21
TORSDOF 4
ENDMDL
