MODEL 1
REMARK VINA RESULT:      -7.6      0.000      0.000
REMARK  3 active torsions:
REMARK  status: ('A' for Active; 'I' for Inactive)
REMARK    1  A    between atoms: N1_2  and  C2_3 
REMARK    2  A    between atoms: C6_11  and  N5_12 
REMARK    3  A    between atoms: N5_12  and  C7_13 
ROOT
HETATM    1  C2  UNL     1      22.634   0.774  52.513  1.00  0.00     0.050 C 
HETATM    2  C3  UNL     1      22.069   1.311  51.444  1.00  0.00     0.123 C 
HETATM    3 CL1  UNL     1      20.715   0.339  50.862  1.00  0.00    -0.063 Cl
HETATM    4  N2  UNL     1      22.481   2.489  50.806  1.00  0.00    -0.361 N 
HETATM    5  C4  UNL     1      23.412   3.227  49.984  1.00  0.00     0.272 C 
HETATM    6  N3  UNL     1      24.738   3.351  50.498  1.00  0.00    -0.263 NA
HETATM    7  C5  UNL     1      25.346   2.472  51.143  1.00  0.00     0.230 C 
HETATM    8  N4  UNL     1      25.749   1.293  51.834  1.00  0.00    -0.229 NA
HETATM    9  C6  UNL     1      25.015   0.798  52.796  1.00  0.00     0.111 C 
HETATM   10  C14 UNL     1      23.757   1.593  53.034  1.00  0.00     0.138 C 
HETATM   11  H5  UNL     1      21.623   2.993  51.184  1.00  0.00     0.162 HD
ENDROOT
BRANCH   9  12
HETATM   12  N5  UNL     1      25.405  -0.365  53.482  1.00  0.00    -0.344 N 
HETATM   13  H9  UNL     1      24.596  -1.015  53.689  1.00  0.00     0.167 HD
BRANCH  12  14
HETATM   14  C7  UNL     1      26.821  -0.381  53.732  1.00  0.00     0.039 A 
HETATM   15  C8  UNL     1      27.544   0.459  54.551  1.00  0.00     0.033 A 
HETATM   16  C9  UNL     1      28.907   0.267  54.649  1.00  0.00     0.044 A 
HETATM   17  C10 UNL     1      29.530  -0.736  53.948  1.00  0.00     0.117 A 
HETATM   18  F1  UNL     1      30.876  -0.909  54.059  1.00  0.00    -0.206 F 
HETATM   19  C11 UNL     1      28.824  -1.601  53.113  1.00  0.00     0.051 A 
HETATM   20  C12 UNL     1      27.448  -1.401  53.020  1.00  0.00    -0.032 A 
HETATM   21  C13 UNL     1      26.765  -2.361  52.111  1.00  0.00     0.050 C 
ENDBRANCH  12  14
ENDBRANCH   9  12
BRANCH   1  22
HETATM   22  N1  UNL     1      22.195  -0.433  53.103  1.00  0.00    -0.395 N 
HETATM   23  C1  UNL     1      21.579  -0.115  54.361  1.00  0.00     0.146 C 
HETATM   24  H4  UNL     1      22.356  -1.333  52.597  1.00  0.00     0.159 HD
ENDBRANCH   1  22
TORSDOF 3
ENDMDL
MODEL 2
REMARK VINA RESULT:      -7.6      2.181      3.837
REMARK  3 active torsions:
REMARK  status: ('A' for Active; 'I' for Inactive)
REMARK    1  A    between atoms: N1_2  and  C2_3 
REMARK    2  A    between atoms: C6_11  and  N5_12 
REMARK    3  A    between atoms: N5_12  and  C7_13 
ROOT
HETATM    1  C2  UNL     1      24.817   3.847  50.550  1.00  0.00     0.050 C 
HETATM    2  C3  UNL     1      23.657   4.442  50.325  1.00  0.00     0.123 C 
HETATM    3 CL1  UNL     1      23.866   6.139  49.885  1.00  0.00    -0.063 Cl
HETATM    4  N2  UNL     1      22.396   3.842  50.438  1.00  0.00    -0.361 N 
HETATM    5  C4  UNL     1      21.317   3.297  51.230  1.00  0.00     0.272 C 
HETATM    6  N3  UNL     1      21.641   2.159  52.029  1.00  0.00    -0.263 NA
HETATM    7  C5  UNL     1      22.730   1.972  52.610  1.00  0.00     0.230 C 
HETATM    8  N4  UNL     1      24.053   2.061  53.131  1.00  0.00    -0.229 NA
HETATM    9  C6  UNL     1      25.071   2.270  52.337  1.00  0.00     0.111 C 
HETATM   10  C14 UNL     1      24.663   2.412  50.894  1.00  0.00     0.138 C 
HETATM   11  H5  UNL     1      22.299   3.845  49.379  1.00  0.00     0.162 HD
ENDROOT
BRANCH   9  12
HETATM   12  N5  UNL     1      26.380   2.360  52.843  1.00  0.00    -0.344 N 
HETATM   13  H9  UNL     1      26.667   3.351  53.075  1.00  0.00     0.167 HD
BRANCH  12  14
HETATM   14  C7  UNL     1      27.007   1.068  52.920  1.00  0.00     0.039 A 
HETATM   15  C8  UNL     1      26.466  -0.155  52.586  1.00  0.00     0.033 A 
HETATM   16  C9  UNL     1      27.248  -1.281  52.738  1.00  0.00     0.044 A 
HETATM   17  C10 UNL     1      28.535  -1.188  53.209  1.00  0.00     0.117 A 
HETATM   18  F1  UNL     1      29.291  -2.313  53.350  1.00  0.00    -0.206 F 
HETATM   19  C11 UNL     1      29.108   0.034  53.553  1.00  0.00     0.051 A 
HETATM   20  C12 UNL     1      28.312   1.168  53.398  1.00  0.00    -0.032 A 
HETATM   21  C13 UNL     1      28.991   2.433  53.786  1.00  0.00     0.050 C 
ENDBRANCH  12  14
ENDBRANCH   9  12
BRANCH   1  22
HETATM   22  N1  UNL     1      26.063   4.507  50.447  1.00  0.00    -0.395 N 
HETATM   23  C1  UNL     1      26.776   3.940  49.335  1.00  0.00     0.146 C 
HETATM   24  H4  UNL     1      26.296   5.262  51.131  1.00  0.00     0.159 HD
ENDBRANCH   1  22
TORSDOF 3
ENDMDL
MODEL 3
REMARK VINA RESULT:      -7.5      1.582      3.402
REMARK  3 active torsions:
REMARK  status: ('A' for Active; 'I' for Inactive)
REMARK    1  A    between atoms: N1_2  and  C2_3 
REMARK    2  A    between atoms: C6_11  and  N5_12 
REMARK    3  A    between atoms: N5_12  and  C7_13 
ROOT
HETATM    1  C2  UNL     1      23.391   2.481  51.738  1.00  0.00     0.050 C 
HETATM    2  C3  UNL     1      22.180   2.601  52.259  1.00  0.00     0.123 C 
HETATM    3 CL1  UNL     1      21.657   4.286  52.315  1.00  0.00    -0.063 Cl
HETATM    4  N2  UNL     1      21.390   1.550  52.741  1.00  0.00    -0.361 N 
HETATM    5  C4  UNL     1      21.093   0.534  53.725  1.00  0.00     0.272 C 
HETATM    6  N3  UNL     1      22.085  -0.478  53.898  1.00  0.00    -0.263 NA
HETATM    7  C5  UNL     1      23.318  -0.298  53.833  1.00  0.00     0.230 C 
HETATM    8  N4  UNL     1      24.633   0.233  53.697  1.00  0.00    -0.229 NA
HETATM    9  C6  UNL     1      24.971   0.917  52.636  1.00  0.00     0.111 C 
HETATM   10  C14 UNL     1      23.837   1.068  51.656  1.00  0.00     0.138 C 
HETATM   11  H5  UNL     1      20.747   1.646  51.898  1.00  0.00     0.162 HD
ENDROOT
BRANCH   9  12
HETATM   12  N5  UNL     1      26.267   1.445  52.494  1.00  0.00    -0.344 N 
HETATM   13  H9  UNL     1      26.271   2.453  52.172  1.00  0.00     0.167 HD
BRANCH  12  14
HETATM   14  C7  UNL     1      27.272   0.473  52.827  1.00  0.00     0.039 A 
HETATM   15  C8  UNL     1      27.221  -0.892  52.647  1.00  0.00     0.033 A 
HETATM   16  C9  UNL     1      28.307  -1.647  53.040  1.00  0.00     0.044 A 
HETATM   17  C10 UNL     1      29.413  -1.055  53.597  1.00  0.00     0.117 A 
HETATM   18  F1  UNL     1      30.475  -1.819  53.978  1.00  0.00    -0.206 F 
HETATM   19  C11 UNL     1      29.494   0.323  53.790  1.00  0.00     0.051 A 
HETATM   20  C12 UNL     1      28.393   1.079  53.391  1.00  0.00    -0.032 A 
HETATM   21  C13 UNL     1      28.553   2.539  53.630  1.00  0.00     0.050 C 
ENDBRANCH  12  14
ENDBRANCH   9  12
BRANCH   1  22
HETATM   22  N1  UNL     1      24.158   3.580  51.290  1.00  0.00    -0.395 N 
HETATM   23  C1  UNL     1      24.307   3.467  49.866  1.00  0.00     0.146 C 
HETATM   24  H4  UNL     1      24.496   4.282  51.987  1.00  0.00     0.159 HD
ENDBRANCH   1  22
TORSDOF 3
ENDMDL
MODEL 4
REMARK VINA RESULT:      -7.4      3.913      6.340
REMARK  3 active torsions:
REMARK  status: ('A' for Active; 'I' for Inactive)
REMARK    1  A    between atoms: N1_2  and  C2_3 
REMARK    2  A    between atoms: C6_11  and  N5_12 
REMARK    3  A    between atoms: N5_12  and  C7_13 
ROOT
HETATM    1  C2  UNL     1      27.915  -0.976  53.103  1.00  0.00     0.050 C 
HETATM    2  C3  UNL     1      29.123  -0.599  53.490  1.00  0.00     0.123 C 
HETATM    3 CL1  UNL     1      30.106  -1.974  53.999  1.00  0.00    -0.063 Cl
HETATM    4  N2  UNL     1      29.594   0.720  53.529  1.00  0.00    -0.361 N 
HETATM    5  C4  UNL     1      29.615   2.042  54.112  1.00  0.00     0.272 C 
HETATM    6  N3  UNL     1      28.381   2.760  54.081  1.00  0.00    -0.263 NA
HETATM    7  C5  UNL     1      27.249   2.252  54.220  1.00  0.00     0.230 C 
HETATM    8  N4  UNL     1      26.136   1.383  54.409  1.00  0.00    -0.229 NA
HETATM    9  C6  UNL     1      25.979   0.326  53.657  1.00  0.00     0.111 C 
HETATM   10  C14 UNL     1      27.083   0.164  52.645  1.00  0.00     0.138 C 
HETATM   11  H5  UNL     1      30.214   0.524  52.688  1.00  0.00     0.162 HD
ENDROOT
BRANCH   9  12
HETATM   12  N5  UNL     1      24.884  -0.538  53.837  1.00  0.00    -0.344 N 
HETATM   13  H9  UNL     1      25.154  -1.463  54.274  1.00  0.00     0.167 HD
BRANCH  12  14
HETATM   14  C7  UNL     1      23.659   0.059  53.379  1.00  0.00     0.039 A 
HETATM   15  C8  UNL     1      23.492   0.962  52.351  1.00  0.00     0.033 A 
HETATM   16  C9  UNL     1      22.217   1.413  52.075  1.00  0.00     0.044 A 
HETATM   17  C10 UNL     1      21.140   0.973  52.805  1.00  0.00     0.117 A 
HETATM   18  F1  UNL     1      19.890   1.430  52.515  1.00  0.00    -0.206 F 
HETATM   19  C11 UNL     1      21.279   0.060  53.849  1.00  0.00     0.051 A 
HETATM   20  C12 UNL     1      22.569  -0.390  54.122  1.00  0.00    -0.032 A 
HETATM   21  C13 UNL     1      22.638  -1.360  55.248  1.00  0.00     0.050 C 
ENDBRANCH  12  14
ENDBRANCH   9  12
BRANCH   1  22
HETATM   22  N1  UNL     1      27.481  -2.322  53.108  1.00  0.00    -0.395 N 
HETATM   23  C1  UNL     1      26.729  -2.550  51.905  1.00  0.00     0.146 C 
HETATM   24  H4  UNL     1      27.736  -2.935  53.914  1.00  0.00     0.159 HD
ENDBRANCH   1  22
TORSDOF 3
ENDMDL
MODEL 5
REMARK VINA RESULT:      -7.3      1.639      2.016
REMARK  3 active torsions:
REMARK  status: ('A' for Active; 'I' for Inactive)
REMARK    1  A    between atoms: N1_2  and  C2_3 
REMARK    2  A    between atoms: C6_11  and  N5_12 
REMARK    3  A    between atoms: N5_12  and  C7_13 
ROOT
HETATM    1  C2  UNL     1      22.504   0.778  52.916  1.00  0.00     0.050 C 
HETATM    2  C3  UNL     1      21.274   1.220  52.705  1.00  0.00     0.123 C 
HETATM    3 CL1  UNL     1      20.114  -0.106  52.589  1.00  0.00    -0.063 Cl
HETATM    4  N2  UNL     1      20.902   2.562  52.559  1.00  0.00    -0.361 N 
HETATM    5  C4  UNL     1      20.864   3.793  51.803  1.00  0.00     0.272 C 
HETATM    6  N3  UNL     1      22.129   4.383  51.504  1.00  0.00    -0.263 NA
HETATM    7  C5  UNL     1      23.173   3.753  51.237  1.00  0.00     0.230 C 
HETATM    8  N4  UNL     1      24.162   2.761  50.978  1.00  0.00    -0.229 NA
HETATM    9  C6  UNL     1      24.385   1.800  51.836  1.00  0.00     0.111 C 
HETATM   10  C14 UNL     1      23.489   1.880  53.044  1.00  0.00     0.138 C 
HETATM   11  H5  UNL     1      20.443   2.540  53.519  1.00  0.00     0.162 HD
ENDROOT
BRANCH   9  12
HETATM   12  N5  UNL     1      25.358   0.816  51.588  1.00  0.00    -0.344 N 
HETATM   13  H9  UNL     1      25.036   0.077  50.903  1.00  0.00     0.167 HD
BRANCH  12  14
HETATM   14  C7  UNL     1      26.562   1.063  52.335  1.00  0.00     0.039 A 
HETATM   15  C8  UNL     1      27.131   2.280  52.642  1.00  0.00     0.033 A 
HETATM   16  C9  UNL     1      28.299   2.291  53.377  1.00  0.00     0.044 A 
HETATM   17  C10 UNL     1      28.881   1.119  53.795  1.00  0.00     0.117 A 
HETATM   18  F1  UNL     1      30.033   1.153  54.520  1.00  0.00    -0.206 F 
HETATM   19  C11 UNL     1      28.327  -0.125  53.500  1.00  0.00     0.051 A 
HETATM   20  C12 UNL     1      27.148  -0.128  52.757  1.00  0.00    -0.032 A 
HETATM   21  C13 UNL     1      26.619  -1.492  52.482  1.00  0.00     0.050 C 
ENDBRANCH  12  14
ENDBRANCH   9  12
BRANCH   1  22
HETATM   22  N1  UNL     1      22.830  -0.593  53.029  1.00  0.00    -0.395 N 
HETATM   23  C1  UNL     1      23.301  -0.828  54.366  1.00  0.00     0.146 C 
HETATM   24  H4  UNL     1      22.701  -1.216  52.200  1.00  0.00     0.159 HD
ENDBRANCH   1  22
TORSDOF 3
ENDMDL
MODEL 6
REMARK VINA RESULT:      -7.1      3.469      6.345
REMARK  3 active torsions:
REMARK  status: ('A' for Active; 'I' for Inactive)
REMARK    1  A    between atoms: N1_2  and  C2_3 
REMARK    2  A    between atoms: C6_11  and  N5_12 
REMARK    3  A    between atoms: N5_12  and  C7_13 
ROOT
HETATM    1  C2  UNL     1      25.554   0.901  52.617  1.00  0.00     0.050 C 
HETATM    2  C3  UNL     1      25.372  -0.238  53.267  1.00  0.00     0.123 C 
HETATM    3 CL1  UNL     1      26.692  -1.375  52.977  1.00  0.00    -0.063 Cl
HETATM    4  N2  UNL     1      24.270  -0.551  54.073  1.00  0.00    -0.361 N 
HETATM    5  C4  UNL     1      22.876  -0.892  54.239  1.00  0.00     0.272 C 
HETATM    6  N3  UNL     1      21.935   0.081  53.784  1.00  0.00    -0.263 NA
HETATM    7  C5  UNL     1      22.078   0.806  52.778  1.00  0.00     0.230 C 
HETATM    8  N4  UNL     1      22.540   1.466  51.602  1.00  0.00    -0.229 NA
HETATM    9  C6  UNL     1      23.717   2.034  51.574  1.00  0.00     0.111 C 
HETATM   10  C14 UNL     1      24.468   1.880  52.870  1.00  0.00     0.138 C 
HETATM   11  H5  UNL     1      24.879  -0.462  54.941  1.00  0.00     0.162 HD
ENDROOT
BRANCH   9  12
HETATM   12  N5  UNL     1      24.180   2.687  50.418  1.00  0.00    -0.344 N 
HETATM   13  H9  UNL     1      24.458   2.018  49.647  1.00  0.00     0.167 HD
BRANCH  12  14
HETATM   14  C7  UNL     1      24.160   4.116  50.575  1.00  0.00     0.039 A 
HETATM   15  C8  UNL     1      23.181   4.888  51.162  1.00  0.00     0.033 A 
HETATM   16  C9  UNL     1      23.363   6.255  51.207  1.00  0.00     0.044 A 
HETATM   17  C10 UNL     1      24.492   6.835  50.681  1.00  0.00     0.117 A 
HETATM   18  F1  UNL     1      24.652   8.186  50.737  1.00  0.00    -0.206 F 
HETATM   19  C11 UNL     1      25.498   6.079  50.082  1.00  0.00     0.051 A 
HETATM   20  C12 UNL     1      25.307   4.699  50.040  1.00  0.00    -0.032 A 
HETATM   21  C13 UNL     1      26.421   3.962  49.386  1.00  0.00     0.050 C 
ENDBRANCH  12  14
ENDBRANCH   9  12
BRANCH   1  22
HETATM   22  N1  UNL     1      26.674   1.156  51.793  1.00  0.00    -0.395 N 
HETATM   23  C1  UNL     1      27.513   2.108  52.467  1.00  0.00     0.146 C 
HETATM   24  H4  UNL     1      26.751   0.666  50.873  1.00  0.00     0.159 HD
ENDBRANCH   1  22
TORSDOF 3
ENDMDL
MODEL 7
REMARK VINA RESULT:      -7.1      3.094      5.577
REMARK  3 active torsions:
REMARK  status: ('A' for Active; 'I' for Inactive)
REMARK    1  A    between atoms: N1_2  and  C2_3 
REMARK    2  A    between atoms: C6_11  and  N5_12 
REMARK    3  A    between atoms: N5_12  and  C7_13 
ROOT
HETATM    1  C2  UNL     1      22.991   0.588  52.873  1.00  0.00     0.050 C 
HETATM    2  C3  UNL     1      22.960  -0.254  53.895  1.00  0.00     0.123 C 
HETATM    3 CL1  UNL     1      21.320  -0.469  54.514  1.00  0.00    -0.063 Cl
HETATM    4  N2  UNL     1      24.069  -0.894  54.460  1.00  0.00    -0.361 N 
HETATM    5  C4  UNL     1      25.280  -0.874  55.249  1.00  0.00     0.272 C 
HETATM    6  N3  UNL     1      26.336  -0.051  54.753  1.00  0.00    -0.263 NA
HETATM    7  C5  UNL     1      26.185   1.047  54.178  1.00  0.00     0.230 C 
HETATM    8  N4  UNL     1      25.680   2.235  53.575  1.00  0.00    -0.229 NA
HETATM    9  C6  UNL     1      24.774   2.173  52.635  1.00  0.00     0.111 C 
HETATM   10  C14 UNL     1      24.358   0.760  52.321  1.00  0.00     0.138 C 
HETATM   11  H5  UNL     1      23.754  -1.817  54.034  1.00  0.00     0.162 HD
ENDROOT
BRANCH   9  12
HETATM   12  N5  UNL     1      24.270   3.340  52.034  1.00  0.00    -0.344 N 
HETATM   13  H9  UNL     1      23.356   3.663  52.459  1.00  0.00     0.167 HD
BRANCH  12  14
HETATM   14  C7  UNL     1      25.132   3.808  50.983  1.00  0.00     0.039 A 
HETATM   15  C8  UNL     1      26.118   3.107  50.324  1.00  0.00     0.033 A 
HETATM   16  C9  UNL     1      26.834   3.753  49.337  1.00  0.00     0.044 A 
HETATM   17  C10 UNL     1      26.571   5.062  49.017  1.00  0.00     0.117 A 
HETATM   18  F1  UNL     1      27.290   5.681  48.039  1.00  0.00    -0.206 F 
HETATM   19  C11 UNL     1      25.580   5.796  49.666  1.00  0.00     0.051 A 
HETATM   20  C12 UNL     1      24.861   5.137  50.662  1.00  0.00    -0.032 A 
HETATM   21  C13 UNL     1      23.822   5.983  51.309  1.00  0.00     0.050 C 
ENDBRANCH  12  14
ENDBRANCH   9  12
BRANCH   1  22
HETATM   22  N1  UNL     1      21.842   1.229  52.357  1.00  0.00    -0.395 N 
HETATM   23  C1  UNL     1      21.648   0.774  51.008  1.00  0.00     0.146 C 
HETATM   24  H4  UNL     1      21.317   1.898  52.965  1.00  0.00     0.159 HD
ENDBRANCH   1  22
TORSDOF 3
ENDMDL
MODEL 8
REMARK VINA RESULT:      -7.0      2.321      4.530
REMARK  3 active torsions:
REMARK  status: ('A' for Active; 'I' for Inactive)
REMARK    1  A    between atoms: N1_2  and  C2_3 
REMARK    2  A    between atoms: C6_11  and  N5_12 
REMARK    3  A    between atoms: N5_12  and  C7_13 
ROOT
HETATM    1  C2  UNL     1      20.679   1.225  50.546  1.00  0.00     0.050 C 
HETATM    2  C3  UNL     1      19.370   1.088  50.408  1.00  0.00     0.123 C 
HETATM    3 CL1  UNL     1      18.685   2.355  49.386  1.00  0.00    -0.063 Cl
HETATM    4  N2  UNL     1      18.584   0.093  51.004  1.00  0.00    -0.361 N 
HETATM    5  C4  UNL     1      17.952  -0.501  52.159  1.00  0.00     0.272 C 
HETATM    6  N3  UNL     1      18.829  -0.938  53.197  1.00  0.00    -0.263 NA
HETATM    7  C5  UNL     1      19.883  -0.364  53.539  1.00  0.00     0.230 C 
HETATM    8  N4  UNL     1      20.999   0.511  53.680  1.00  0.00    -0.229 NA
HETATM    9  C6  UNL     1      21.748   0.809  52.651  1.00  0.00     0.111 C 
HETATM   10  C14 UNL     1      21.277   0.153  51.380  1.00  0.00     0.138 C 
HETATM   11  H5  UNL     1      18.465  -0.379  50.058  1.00  0.00     0.162 HD
ENDROOT
BRANCH   9  12
HETATM   12  N5  UNL     1      22.851   1.671  52.781  1.00  0.00    -0.344 N 
HETATM   13  H9  UNL     1      22.575   2.691  52.842  1.00  0.00     0.167 HD
BRANCH  12  14
HETATM   14  C7  UNL     1      24.091   0.944  52.799  1.00  0.00     0.039 A 
HETATM   15  C8  UNL     1      24.390  -0.201  53.506  1.00  0.00     0.033 A 
HETATM   16  C9  UNL     1      25.653  -0.740  53.378  1.00  0.00     0.044 A 
HETATM   17  C10 UNL     1      26.592  -0.153  52.567  1.00  0.00     0.117 A 
HETATM   18  F1  UNL     1      27.834  -0.702  52.454  1.00  0.00    -0.206 F 
HETATM   19  C11 UNL     1      26.319   1.004  51.839  1.00  0.00     0.051 A 
HETATM   20  C12 UNL     1      25.041   1.543  51.974  1.00  0.00    -0.032 A 
HETATM   21  C13 UNL     1      24.824   2.776  51.169  1.00  0.00     0.050 C 
ENDBRANCH  12  14
ENDBRANCH   9  12
BRANCH   1  22
HETATM   22  N1  UNL     1      21.421   2.265  49.942  1.00  0.00    -0.395 N 
HETATM   23  C1  UNL     1      22.094   1.724  48.794  1.00  0.00     0.146 C 
HETATM   24  H4  UNL     1      21.394   3.220  50.366  1.00  0.00     0.159 HD
ENDBRANCH   1  22
TORSDOF 3
ENDMDL
MODEL 9
REMARK VINA RESULT:      -6.9      3.850      5.733
REMARK  3 active torsions:
REMARK  status: ('A' for Active; 'I' for Inactive)
REMARK    1  A    between atoms: N1_2  and  C2_3 
REMARK    2  A    between atoms: C6_11  and  N5_12 
REMARK    3  A    between atoms: N5_12  and  C7_13 
ROOT
HETATM    1  C2  UNL     1      25.103   4.969  49.996  1.00  0.00     0.050 C 
HETATM    2  C3  UNL     1      25.064   6.078  49.275  1.00  0.00     0.123 C 
HETATM    3 CL1  UNL     1      26.684   6.689  48.927  1.00  0.00    -0.063 Cl
HETATM    4  N2  UNL     1      23.903   6.732  48.845  1.00  0.00    -0.361 N 
HETATM    5  C4  UNL     1      22.730   7.535  49.103  1.00  0.00     0.272 C 
HETATM    6  N3  UNL     1      21.767   6.968  49.992  1.00  0.00    -0.263 NA
HETATM    7  C5  UNL     1      22.032   6.269  50.992  1.00  0.00     0.230 C 
HETATM    8  N4  UNL     1      22.659   5.526  52.033  1.00  0.00    -0.229 NA
HETATM    9  C6  UNL     1      23.521   4.583  51.755  1.00  0.00     0.111 C 
HETATM   10  C14 UNL     1      23.751   4.424  50.275  1.00  0.00     0.138 C 
HETATM   11  H5  UNL     1      24.090   6.408  47.849  1.00  0.00     0.162 HD
ENDROOT
BRANCH   9  12
HETATM   12  N5  UNL     1      24.145   3.845  52.777  1.00  0.00    -0.344 N 
HETATM   13  H9  UNL     1      24.853   4.411  53.323  1.00  0.00     0.167 HD
BRANCH  12  14
HETATM   14  C7  UNL     1      23.658   2.493  52.824  1.00  0.00     0.039 A 
HETATM   15  C8  UNL     1      22.372   2.049  52.602  1.00  0.00     0.033 A 
HETATM   16  C9  UNL     1      22.120   0.696  52.699  1.00  0.00     0.044 A 
HETATM   17  C10 UNL     1      23.124  -0.189  53.009  1.00  0.00     0.117 A 
HETATM   18  F1  UNL     1      22.853  -1.521  53.099  1.00  0.00    -0.206 F 
HETATM   19  C11 UNL     1      24.433   0.231  53.238  1.00  0.00     0.051 A 
HETATM   20  C12 UNL     1      24.680   1.600  53.139  1.00  0.00    -0.032 A 
HETATM   21  C13 UNL     1      26.097   1.971  53.398  1.00  0.00     0.050 C 
ENDBRANCH  12  14
ENDBRANCH   9  12
BRANCH   1  22
HETATM   22  N1  UNL     1      26.305   4.363  50.428  1.00  0.00    -0.395 N 
HETATM   23  C1  UNL     1      26.422   3.090  49.772  1.00  0.00     0.146 C 
HETATM   24  H4  UNL     1      26.912   4.868  51.113  1.00  0.00     0.159 HD
ENDBRANCH   1  22
TORSDOF 3
ENDMDL
