MODEL 1
REMARK VINA RESULT:      -8.4      0.000      0.000
REMARK  5 active torsions:
REMARK  status: ('A' for Active; 'I' for Inactive)
REMARK    1  A    between atoms: C7_7  and  N1_8 
REMARK    2  A    between atoms: N1_8  and  C8_9 
REMARK    3  A    between atoms: C12_15  and  O1_16 
REMARK    4  A    between atoms: O1_16  and  C13_17 
REMARK    5  A    between atoms: C13_17  and  C14_18 
ROOT
HETATM    1  C1  UNL     1      29.791   2.087  54.592  1.00  0.00     0.018 C 
HETATM    2  C2  UNL     1      28.942   1.358  54.135  1.00  0.00    -0.078 C 
HETATM    3  C3  UNL     1      27.914   0.507  53.596  1.00  0.00     0.019 A 
HETATM    4  C4  UNL     1      28.332  -0.752  53.241  1.00  0.00     0.021 A 
HETATM    5  C5  UNL     1      27.403  -1.621  52.719  1.00  0.00     0.004 A 
HETATM    6  C6  UNL     1      26.092  -1.246  52.555  1.00  0.00     0.029 A 
HETATM    7  C7  UNL     1      25.631   0.016  52.902  1.00  0.00     0.035 A 
HETATM    8  C23 UNL     1      26.597   0.884  53.432  1.00  0.00     0.050 A 
ENDROOT
BRANCH   7   9
HETATM    9  N1  UNL     1      24.309   0.598  52.802  1.00  0.00    -0.340 N 
HETATM   10  H5  UNL     1      24.682   1.363  52.232  1.00  0.00     0.167 HD
BRANCH   9  11
HETATM   11  C8  UNL     1      23.324  -0.148  53.494  1.00  0.00     0.143 A 
HETATM   12  N2  UNL     1      23.702  -0.839  54.578  1.00  0.00    -0.223 NA
HETATM   13  C9  UNL     1      22.896  -1.595  55.332  1.00  0.00     0.236 A 
HETATM   14  N3  UNL     1      21.628  -1.619  54.914  1.00  0.00    -0.241 NA
HETATM   15  C10 UNL     1      21.176  -0.956  53.842  1.00  0.00     0.076 A 
HETATM   16  C11 UNL     1      19.856  -1.031  53.471  1.00  0.00     0.072 A 
HETATM   17  C20 UNL     1      22.028  -0.187  53.088  1.00  0.00     0.058 A 
HETATM   18  C12 UNL     1      19.266  -0.411  52.398  1.00  0.00     0.105 A 
HETATM   19  C18 UNL     1      20.211   0.363  51.671  1.00  0.00     0.119 A 
HETATM   20  C19 UNL     1      21.569   0.485  51.994  1.00  0.00     0.053 A 
HETATM   21  O3  UNL     1      19.781   1.072  50.534  1.00  0.00    -0.346 OA
HETATM   22  S1  UNL     1      22.671   1.486  51.021  1.00  0.00    -0.124 SA
HETATM   23  C21 UNL     1      21.637   2.365  49.828  1.00  0.00     0.106 C 
HETATM   24  C22 UNL     1      20.587   1.328  49.403  1.00  0.00     0.186 C 
BRANCH  18  25
HETATM   25  O1  UNL     1      18.040  -0.383  51.909  1.00  0.00    -0.346 OA
BRANCH  25  26
HETATM   26  C13 UNL     1      16.948   0.377  52.010  1.00  0.00     0.207 C 
BRANCH  26  27
HETATM   27  C14 UNL     1      15.795  -0.259  52.709  1.00  0.00     0.145 C 
HETATM   28  C15 UNL     1      15.686  -1.707  52.241  1.00  0.00     0.036 C 
HETATM   29  C16 UNL     1      14.828  -1.546  50.995  1.00  0.00     0.029 C 
HETATM   30  C17 UNL     1      13.958  -0.366  51.401  1.00  0.00     0.168 C 
HETATM   31  O2  UNL     1      14.597   0.277  52.425  1.00  0.00    -0.384 OA
ENDBRANCH  26  27
ENDBRANCH  25  26
ENDBRANCH  18  25
ENDBRANCH   9  11
ENDBRANCH   7   9
TORSDOF 5
ENDMDL
MODEL 2
REMARK VINA RESULT:      -8.2      2.092      3.805
REMARK  5 active torsions:
REMARK  status: ('A' for Active; 'I' for Inactive)
REMARK    1  A    between atoms: C7_7  and  N1_8 
REMARK    2  A    between atoms: N1_8  and  C8_9 
REMARK    3  A    between atoms: C12_15  and  O1_16 
REMARK    4  A    between atoms: O1_16  and  C13_17 
REMARK    5  A    between atoms: C13_17  and  C14_18 
ROOT
HETATM    1  C1  UNL     1      29.819  -2.268  53.457  1.00  0.00     0.018 C 
HETATM    2  C2  UNL     1      29.157  -1.258  53.461  1.00  0.00    -0.078 C 
HETATM    3  C3  UNL     1      28.348  -0.067  53.459  1.00  0.00     0.019 A 
HETATM    4  C4  UNL     1      29.041   1.103  53.646  1.00  0.00     0.021 A 
HETATM    5  C5  UNL     1      28.334   2.283  53.656  1.00  0.00     0.004 A 
HETATM    6  C6  UNL     1      26.970   2.295  53.483  1.00  0.00     0.029 A 
HETATM    7  C7  UNL     1      26.235   1.134  53.290  1.00  0.00     0.035 A 
HETATM    8  C23 UNL     1      26.980  -0.055  53.284  1.00  0.00     0.050 A 
ENDROOT
BRANCH   7   9
HETATM    9  N1  UNL     1      24.813   0.939  53.098  1.00  0.00    -0.340 N 
HETATM   10  H5  UNL     1      24.775   0.351  53.935  1.00  0.00     0.167 HD
BRANCH   9  11
HETATM   11  C8  UNL     1      24.314   1.608  51.954  1.00  0.00     0.143 A 
HETATM   12  N2  UNL     1      25.155   2.391  51.263  1.00  0.00    -0.223 NA
HETATM   13  C9  UNL     1      24.835   3.092  50.170  1.00  0.00     0.236 A 
HETATM   14  N3  UNL     1      23.561   2.956  49.791  1.00  0.00    -0.241 NA
HETATM   15  C10 UNL     1      22.665   2.193  50.429  1.00  0.00     0.076 A 
HETATM   16  C11 UNL     1      21.369   2.104  49.983  1.00  0.00     0.072 A 
HETATM   17  C20 UNL     1      23.023   1.484  51.550  1.00  0.00     0.058 A 
HETATM   18  C12 UNL     1      20.354   1.369  50.541  1.00  0.00     0.105 A 
HETATM   19  C18 UNL     1      20.804   0.667  51.692  1.00  0.00     0.119 A 
HETATM   20  C19 UNL     1      22.108   0.710  52.202  1.00  0.00     0.053 A 
HETATM   21  O3  UNL     1      19.893  -0.142  52.396  1.00  0.00    -0.346 OA
HETATM   22  S1  UNL     1      22.574  -0.213  53.648  1.00  0.00    -0.124 SA
HETATM   23  C21 UNL     1      21.159  -1.259  54.059  1.00  0.00     0.106 C 
HETATM   24  C22 UNL     1      19.939  -0.366  53.789  1.00  0.00     0.186 C 
BRANCH  18  25
HETATM   25  O1  UNL     1      19.081   1.183  50.246  1.00  0.00    -0.346 OA
BRANCH  25  26
HETATM   26  C13 UNL     1      17.948   1.888  50.239  1.00  0.00     0.207 C 
BRANCH  26  27
HETATM   27  C14 UNL     1      17.375   2.181  51.583  1.00  0.00     0.145 C 
HETATM   28  C15 UNL     1      15.882   1.867  51.550  1.00  0.00     0.036 C 
HETATM   29  C16 UNL     1      15.320   3.185  51.035  1.00  0.00     0.029 C 
HETATM   30  C17 UNL     1      16.309   4.170  51.641  1.00  0.00     0.168 C 
HETATM   31  O2  UNL     1      17.439   3.469  51.957  1.00  0.00    -0.384 OA
ENDBRANCH  26  27
ENDBRANCH  25  26
ENDBRANCH  18  25
ENDBRANCH   9  11
ENDBRANCH   7   9
TORSDOF 5
ENDMDL
MODEL 3
REMARK VINA RESULT:      -8.1      3.195      8.924
REMARK  5 active torsions:
REMARK  status: ('A' for Active; 'I' for Inactive)
REMARK    1  A    between atoms: C7_7  and  N1_8 
REMARK    2  A    between atoms: N1_8  and  C8_9 
REMARK    3  A    between atoms: C12_15  and  O1_16 
REMARK    4  A    between atoms: O1_16  and  C13_17 
REMARK    5  A    between atoms: C13_17  and  C14_18 
ROOT
HETATM    1  C1  UNL     1      14.786   3.801  52.845  1.00  0.00     0.018 C 
HETATM    2  C2  UNL     1      15.546   3.067  52.260  1.00  0.00    -0.078 C 
HETATM    3  C3  UNL     1      16.470   2.207  51.569  1.00  0.00     0.019 A 
HETATM    4  C4  UNL     1      15.895   1.150  50.908  1.00  0.00     0.021 A 
HETATM    5  C5  UNL     1      16.717   0.286  50.224  1.00  0.00     0.004 A 
HETATM    6  C6  UNL     1      18.079   0.470  50.200  1.00  0.00     0.029 A 
HETATM    7  C7  UNL     1      18.698   1.525  50.854  1.00  0.00     0.035 A 
HETATM    8  C23 UNL     1      17.837   2.392  51.545  1.00  0.00     0.050 A 
ENDROOT
BRANCH   7   9
HETATM    9  N1  UNL     1      20.097   1.883  50.953  1.00  0.00    -0.340 N 
HETATM   10  H5  UNL     1      19.959   2.636  50.273  1.00  0.00     0.167 HD
BRANCH   9  11
HETATM   11  C8  UNL     1      20.815   1.058  51.853  1.00  0.00     0.143 A 
HETATM   12  N2  UNL     1      20.118   0.235  52.648  1.00  0.00    -0.223 NA
HETATM   13  C9  UNL     1      20.647  -0.597  53.553  1.00  0.00     0.236 A 
HETATM   14  N3  UNL     1      21.980  -0.551  53.617  1.00  0.00    -0.241 NA
HETATM   15  C10 UNL     1      22.743   0.244  52.857  1.00  0.00     0.076 A 
HETATM   16  C11 UNL     1      24.111   0.238  52.981  1.00  0.00     0.072 A 
HETATM   17  C20 UNL     1      22.171   1.087  51.936  1.00  0.00     0.058 A 
HETATM   18  C12 UNL     1      25.005   1.002  52.274  1.00  0.00     0.105 A 
HETATM   19  C18 UNL     1      24.336   1.844  51.344  1.00  0.00     0.119 A 
HETATM   20  C19 UNL     1      22.948   1.900  51.165  1.00  0.00     0.053 A 
HETATM   21  O3  UNL     1      25.100   2.701  50.529  1.00  0.00    -0.346 OA
HETATM   22  S1  UNL     1      22.207   2.987  49.968  1.00  0.00    -0.124 SA
HETATM   23  C21 UNL     1      23.570   3.704  49.022  1.00  0.00     0.106 C 
HETATM   24  C22 UNL     1      24.662   3.963  50.072  1.00  0.00     0.186 C 
BRANCH  18  25
HETATM   25  O1  UNL     1      26.320   1.118  52.274  1.00  0.00    -0.346 OA
BRANCH  25  26
HETATM   26  C13 UNL     1      27.311   1.193  53.165  1.00  0.00     0.207 C 
BRANCH  26  27
HETATM   27  C14 UNL     1      27.431   0.023  54.079  1.00  0.00     0.145 C 
HETATM   28  C15 UNL     1      28.756   0.128  54.828  1.00  0.00     0.036 C 
HETATM   29  C16 UNL     1      29.698  -0.555  53.848  1.00  0.00     0.029 C 
HETATM   30  C17 UNL     1      28.766  -1.589  53.233  1.00  0.00     0.168 C 
HETATM   31  O2  UNL     1      27.486  -1.171  53.466  1.00  0.00    -0.384 OA
ENDBRANCH  26  27
ENDBRANCH  25  26
ENDBRANCH  18  25
ENDBRANCH   9  11
ENDBRANCH   7   9
TORSDOF 5
ENDMDL
MODEL 4
REMARK VINA RESULT:      -8.0      2.162      2.906
REMARK  5 active torsions:
REMARK  status: ('A' for Active; 'I' for Inactive)
REMARK    1  A    between atoms: C7_7  and  N1_8 
REMARK    2  A    between atoms: N1_8  and  C8_9 
REMARK    3  A    between atoms: C12_15  and  O1_16 
REMARK    4  A    between atoms: O1_16  and  C13_17 
REMARK    5  A    between atoms: C13_17  and  C14_18 
ROOT
HETATM    1  C1  UNL     1      29.042  -2.767  53.083  1.00  0.00     0.018 C 
HETATM    2  C2  UNL     1      28.545  -1.666  53.086  1.00  0.00    -0.078 C 
HETATM    3  C3  UNL     1      27.935  -0.363  53.074  1.00  0.00     0.019 A 
HETATM    4  C4  UNL     1      28.601   0.594  53.800  1.00  0.00     0.021 A 
HETATM    5  C5  UNL     1      28.077   1.865  53.834  1.00  0.00     0.004 A 
HETATM    6  C6  UNL     1      26.919   2.175  53.161  1.00  0.00     0.029 A 
HETATM    7  C7  UNL     1      26.219   1.237  52.417  1.00  0.00     0.035 A 
HETATM    8  C23 UNL     1      26.773  -0.052  52.398  1.00  0.00     0.050 A 
ENDROOT
BRANCH   7   9
HETATM    9  N1  UNL     1      24.995   1.361  51.653  1.00  0.00    -0.340 N 
HETATM   10  H5  UNL     1      25.525   1.710  50.849  1.00  0.00     0.167 HD
BRANCH   9  11
HETATM   11  C8  UNL     1      23.847   0.969  52.384  1.00  0.00     0.143 A 
HETATM   12  N2  UNL     1      23.942  -0.102  53.183  1.00  0.00    -0.223 NA
HETATM   13  C9  UNL     1      22.949  -0.600  53.929  1.00  0.00     0.236 A 
HETATM   14  N3  UNL     1      21.800   0.072  53.820  1.00  0.00    -0.241 NA
HETATM   15  C10 UNL     1      21.628   1.149  53.044  1.00  0.00     0.076 A 
HETATM   16  C11 UNL     1      20.414   1.787  52.980  1.00  0.00     0.072 A 
HETATM   17  C20 UNL     1      22.667   1.637  52.289  1.00  0.00     0.058 A 
HETATM   18  C12 UNL     1      20.102   2.890  52.226  1.00  0.00     0.105 A 
HETATM   19  C18 UNL     1      21.226   3.333  51.477  1.00  0.00     0.119 A 
HETATM   20  C19 UNL     1      22.491   2.732  51.495  1.00  0.00     0.053 A 
HETATM   21  O3  UNL     1      21.089   4.458  50.643  1.00  0.00    -0.346 OA
HETATM   22  S1  UNL     1      23.838   3.368  50.523  1.00  0.00    -0.124 SA
HETATM   23  C21 UNL     1      23.258   4.924  49.811  1.00  0.00     0.106 C 
HETATM   24  C22 UNL     1      21.795   4.644  49.435  1.00  0.00     0.186 C 
BRANCH  18  25
HETATM   25  O1  UNL     1      19.007   3.607  52.051  1.00  0.00    -0.346 OA
BRANCH  25  26
HETATM   26  C13 UNL     1      17.818   3.477  51.461  1.00  0.00     0.207 C 
BRANCH  26  27
HETATM   27  C14 UNL     1      17.205   2.123  51.560  1.00  0.00     0.145 C 
HETATM   28  C15 UNL     1      17.179   1.501  50.167  1.00  0.00     0.036 C 
HETATM   29  C16 UNL     1      15.864   2.045  49.631  1.00  0.00     0.029 C 
HETATM   30  C17 UNL     1      15.043   2.114  50.910  1.00  0.00     0.168 C 
HETATM   31  O2  UNL     1      15.922   2.110  51.957  1.00  0.00    -0.384 OA
ENDBRANCH  26  27
ENDBRANCH  25  26
ENDBRANCH  18  25
ENDBRANCH   9  11
ENDBRANCH   7   9
TORSDOF 5
ENDMDL
MODEL 5
REMARK VINA RESULT:      -8.0      2.982      9.006
REMARK  5 active torsions:
REMARK  status: ('A' for Active; 'I' for Inactive)
REMARK    1  A    between atoms: C7_7  and  N1_8 
REMARK    2  A    between atoms: N1_8  and  C8_9 
REMARK    3  A    between atoms: C12_15  and  O1_16 
REMARK    4  A    between atoms: O1_16  and  C13_17 
REMARK    5  A    between atoms: C13_17  and  C14_18 
ROOT
HETATM    1  C1  UNL     1      13.458   3.476  51.249  1.00  0.00     0.018 C 
HETATM    2  C2  UNL     1      14.361   2.727  50.961  1.00  0.00    -0.078 C 
HETATM    3  C3  UNL     1      15.453   1.850  50.631  1.00  0.00     0.019 A 
HETATM    4  C4  UNL     1      15.135   0.831  49.767  1.00  0.00     0.021 A 
HETATM    5  C5  UNL     1      16.129  -0.048  49.405  1.00  0.00     0.004 A 
HETATM    6  C6  UNL     1      17.408   0.085  49.892  1.00  0.00     0.029 A 
HETATM    7  C7  UNL     1      17.768   1.101  50.765  1.00  0.00     0.035 A 
HETATM    8  C23 UNL     1      16.736   1.984  51.119  1.00  0.00     0.050 A 
ENDROOT
BRANCH   7   9
HETATM    9  N1  UNL     1      19.040   1.405  51.387  1.00  0.00    -0.340 N 
HETATM   10  H5  UNL     1      19.084   2.292  50.878  1.00  0.00     0.167 HD
BRANCH   9  11
HETATM   11  C8  UNL     1      19.478   0.388  52.270  1.00  0.00     0.143 A 
HETATM   12  N2  UNL     1      18.551  -0.384  52.854  1.00  0.00    -0.223 NA
HETATM   13  C9  UNL     1      18.804  -1.376  53.715  1.00  0.00     0.236 A 
HETATM   14  N3  UNL     1      20.102  -1.557  53.969  1.00  0.00    -0.241 NA
HETATM   15  C10 UNL     1      21.084  -0.826  53.426  1.00  0.00     0.076 A 
HETATM   16  C11 UNL     1      22.399  -1.068  53.737  1.00  0.00     0.072 A 
HETATM   17  C20 UNL     1      20.794   0.186  52.544  1.00  0.00     0.058 A 
HETATM   18  C12 UNL     1      23.496  -0.396  53.260  1.00  0.00     0.105 A 
HETATM   19  C18 UNL     1      23.113   0.633  52.357  1.00  0.00     0.119 A 
HETATM   20  C19 UNL     1      21.794   0.933  51.994  1.00  0.00     0.053 A 
HETATM   21  O3  UNL     1      24.112   1.428  51.767  1.00  0.00    -0.346 OA
HETATM   22  S1  UNL     1      21.418   2.239  50.847  1.00  0.00    -0.124 SA
HETATM   23  C21 UNL     1      23.003   2.812  50.195  1.00  0.00     0.106 C 
HETATM   24  C22 UNL     1      23.943   2.784  51.410  1.00  0.00     0.186 C 
BRANCH  18  25
HETATM   25  O1  UNL     1      24.798  -0.497  53.458  1.00  0.00    -0.346 OA
BRANCH  25  26
HETATM   26  C13 UNL     1      25.674  -0.274  54.440  1.00  0.00     0.207 C 
BRANCH  26  27
HETATM   27  C14 UNL     1      26.735   0.724  54.128  1.00  0.00     0.145 C 
HETATM   28  C15 UNL     1      27.441   0.294  52.846  1.00  0.00     0.036 C 
HETATM   29  C16 UNL     1      28.502  -0.645  53.400  1.00  0.00     0.029 C 
HETATM   30  C17 UNL     1      28.786   0.009  54.744  1.00  0.00     0.168 C 
HETATM   31  O2  UNL     1      27.717   0.808  55.041  1.00  0.00    -0.384 OA
ENDBRANCH  26  27
ENDBRANCH  25  26
ENDBRANCH  18  25
ENDBRANCH   9  11
ENDBRANCH   7   9
TORSDOF 5
ENDMDL
MODEL 6
REMARK VINA RESULT:      -7.9      2.238      3.795
REMARK  5 active torsions:
REMARK  status: ('A' for Active; 'I' for Inactive)
REMARK    1  A    between atoms: C7_7  and  N1_8 
REMARK    2  A    between atoms: N1_8  and  C8_9 
REMARK    3  A    between atoms: C12_15  and  O1_16 
REMARK    4  A    between atoms: O1_16  and  C13_17 
REMARK    5  A    between atoms: C13_17  and  C14_18 
ROOT
HETATM    1  C1  UNL     1      30.071   2.211  55.005  1.00  0.00     0.018 C 
HETATM    2  C2  UNL     1      29.457   1.301  54.500  1.00  0.00    -0.078 C 
HETATM    3  C3  UNL     1      28.704   0.230  53.902  1.00  0.00     0.019 A 
HETATM    4  C4  UNL     1      29.432  -0.897  53.612  1.00  0.00     0.021 A 
HETATM    5  C5  UNL     1      28.779  -1.963  53.039  1.00  0.00     0.004 A 
HETATM    6  C6  UNL     1      27.434  -1.907  52.762  1.00  0.00     0.029 A 
HETATM    7  C7  UNL     1      26.664  -0.787  53.040  1.00  0.00     0.035 A 
HETATM    8  C23 UNL     1      27.354   0.287  53.625  1.00  0.00     0.050 A 
ENDROOT
BRANCH   7   9
HETATM    9  N1  UNL     1      25.255  -0.531  52.822  1.00  0.00    -0.340 N 
HETATM   10  H5  UNL     1      25.020  -1.433  53.245  1.00  0.00     0.167 HD
BRANCH   9  11
HETATM   11  C8  UNL     1      25.012   0.714  52.193  1.00  0.00     0.143 A 
HETATM   12  N2  UNL     1      26.019   1.290  51.523  1.00  0.00    -0.223 NA
HETATM   13  C9  UNL     1      25.951   2.464  50.885  1.00  0.00     0.236 A 
HETATM   14  N3  UNL     1      24.756   3.056  50.964  1.00  0.00    -0.241 NA
HETATM   15  C10 UNL     1      23.704   2.542  51.614  1.00  0.00     0.076 A 
HETATM   16  C11 UNL     1      22.505   3.210  51.655  1.00  0.00     0.072 A 
HETATM   17  C20 UNL     1      23.805   1.334  52.260  1.00  0.00     0.058 A 
HETATM   18  C12 UNL     1      21.356   2.803  52.287  1.00  0.00     0.105 A 
HETATM   19  C18 UNL     1      21.542   1.548  52.928  1.00  0.00     0.119 A 
HETATM   20  C19 UNL     1      22.735   0.813  52.926  1.00  0.00     0.053 A 
HETATM   21  O3  UNL     1      20.464   0.975  53.628  1.00  0.00    -0.346 OA
HETATM   22  S1  UNL     1      22.864  -0.754  53.756  1.00  0.00    -0.124 SA
HETATM   23  C21 UNL     1      21.194  -1.176  54.304  1.00  0.00     0.106 C 
HETATM   24  C22 UNL     1      20.603   0.162  54.774  1.00  0.00     0.186 C 
BRANCH  18  25
HETATM   25  O1  UNL     1      20.148   3.317  52.423  1.00  0.00    -0.346 OA
BRANCH  25  26
HETATM   26  C13 UNL     1      19.135   3.696  51.641  1.00  0.00     0.207 C 
BRANCH  26  27
HETATM   27  C14 UNL     1      18.705   2.690  50.630  1.00  0.00     0.145 C 
HETATM   28  C15 UNL     1      17.383   3.152  50.022  1.00  0.00     0.036 C 
HETATM   29  C16 UNL     1      16.388   2.565  51.012  1.00  0.00     0.029 C 
HETATM   30  C17 UNL     1      17.118   1.298  51.431  1.00  0.00     0.168 C 
HETATM   31  O2  UNL     1      18.439   1.469  51.123  1.00  0.00    -0.384 OA
ENDBRANCH  26  27
ENDBRANCH  25  26
ENDBRANCH  18  25
ENDBRANCH   9  11
ENDBRANCH   7   9
TORSDOF 5
ENDMDL
MODEL 7
REMARK VINA RESULT:      -7.7      5.264      9.781
REMARK  5 active torsions:
REMARK  status: ('A' for Active; 'I' for Inactive)
REMARK    1  A    between atoms: C7_7  and  N1_8 
REMARK    2  A    between atoms: N1_8  and  C8_9 
REMARK    3  A    between atoms: C12_15  and  O1_16 
REMARK    4  A    between atoms: O1_16  and  C13_17 
REMARK    5  A    between atoms: C13_17  and  C14_18 
ROOT
HETATM    1  C1  UNL     1      24.401   8.323  43.918  1.00  0.00     0.018 C 
HETATM    2  C2  UNL     1      24.193   8.296  45.108  1.00  0.00    -0.078 C 
HETATM    3  C3  UNL     1      23.946   8.238  46.524  1.00  0.00     0.019 A 
HETATM    4  C4  UNL     1      23.752   9.456  47.128  1.00  0.00     0.021 A 
HETATM    5  C5  UNL     1      23.510   9.480  48.481  1.00  0.00     0.004 A 
HETATM    6  C6  UNL     1      23.461   8.319  49.215  1.00  0.00     0.029 A 
HETATM    7  C7  UNL     1      23.651   7.069  48.642  1.00  0.00     0.035 A 
HETATM    8  C23 UNL     1      23.897   7.072  47.260  1.00  0.00     0.050 A 
ENDROOT
BRANCH   7   9
HETATM    9  N1  UNL     1      23.646   5.748  49.235  1.00  0.00    -0.340 N 
HETATM   10  H5  UNL     1      22.630   5.799  49.354  1.00  0.00     0.167 HD
BRANCH   9  11
HETATM   11  C8  UNL     1      24.938   5.176  49.317  1.00  0.00     0.143 A 
HETATM   12  N2  UNL     1      25.930   5.755  48.627  1.00  0.00    -0.223 NA
HETATM   13  C9  UNL     1      27.199   5.331  48.596  1.00  0.00     0.236 A 
HETATM   14  N3  UNL     1      27.425   4.240  49.332  1.00  0.00    -0.241 NA
HETATM   15  C10 UNL     1      26.486   3.607  50.047  1.00  0.00     0.076 A 
HETATM   16  C11 UNL     1      26.792   2.487  50.780  1.00  0.00     0.072 A 
HETATM   17  C20 UNL     1      25.192   4.067  50.060  1.00  0.00     0.058 A 
HETATM   18  C12 UNL     1      25.932   1.743  51.547  1.00  0.00     0.105 A 
HETATM   19  C18 UNL     1      24.616   2.282  51.508  1.00  0.00     0.119 A 
HETATM   20  C19 UNL     1      24.235   3.420  50.785  1.00  0.00     0.053 A 
HETATM   21  O3  UNL     1      23.597   1.645  52.241  1.00  0.00    -0.346 OA
HETATM   22  S1  UNL     1      22.560   4.018  50.807  1.00  0.00    -0.124 SA
HETATM   23  C21 UNL     1      21.686   3.031  52.043  1.00  0.00     0.106 C 
HETATM   24  C22 UNL     1      22.241   1.612  51.852  1.00  0.00     0.186 C 
BRANCH  18  25
HETATM   25  O1  UNL     1      26.061   0.662  52.292  1.00  0.00    -0.346 OA
BRANCH  25  26
HETATM   26  C13 UNL     1      26.887  -0.381  52.395  1.00  0.00     0.207 C 
BRANCH  26  27
HETATM   27  C14 UNL     1      27.484  -0.588  53.744  1.00  0.00     0.145 C 
HETATM   28  C15 UNL     1      28.327   0.636  54.092  1.00  0.00     0.036 C 
HETATM   29  C16 UNL     1      29.658   0.261  53.457  1.00  0.00     0.029 C 
HETATM   30  C17 UNL     1      29.639  -1.251  53.632  1.00  0.00     0.168 C 
HETATM   31  O2  UNL     1      28.338  -1.620  53.833  1.00  0.00    -0.384 OA
ENDBRANCH  26  27
ENDBRANCH  25  26
ENDBRANCH  18  25
ENDBRANCH   9  11
ENDBRANCH   7   9
TORSDOF 5
ENDMDL
MODEL 8
REMARK VINA RESULT:      -7.6      6.406     10.049
REMARK  5 active torsions:
REMARK  status: ('A' for Active; 'I' for Inactive)
REMARK    1  A    between atoms: C7_7  and  N1_8 
REMARK    2  A    between atoms: N1_8  and  C8_9 
REMARK    3  A    between atoms: C12_15  and  O1_16 
REMARK    4  A    between atoms: O1_16  and  C13_17 
REMARK    5  A    between atoms: C13_17  and  C14_18 
ROOT
HETATM    1  C1  UNL     1      22.604   7.543  43.366  1.00  0.00     0.018 C 
HETATM    2  C2  UNL     1      23.607   7.853  43.964  1.00  0.00    -0.078 C 
HETATM    3  C3  UNL     1      24.791   8.214  44.697  1.00  0.00     0.019 A 
HETATM    4  C4  UNL     1      25.767   8.832  43.953  1.00  0.00     0.021 A 
HETATM    5  C5  UNL     1      26.928   9.208  44.587  1.00  0.00     0.004 A 
HETATM    6  C6  UNL     1      27.113   8.973  45.929  1.00  0.00     0.029 A 
HETATM    7  C7  UNL     1      26.152   8.353  46.714  1.00  0.00     0.035 A 
HETATM    8  C23 UNL     1      24.977   7.979  46.044  1.00  0.00     0.050 A 
ENDROOT
BRANCH   7   9
HETATM    9  N1  UNL     1      26.158   8.015  48.122  1.00  0.00    -0.340 N 
HETATM   10  H5  UNL     1      25.655   8.880  48.338  1.00  0.00     0.167 HD
BRANCH   9  11
HETATM   11  C8  UNL     1      26.806   6.784  48.390  1.00  0.00     0.143 A 
HETATM   12  N2  UNL     1      28.047   6.608  47.915  1.00  0.00    -0.223 NA
HETATM   13  C9  UNL     1      28.786   5.504  48.077  1.00  0.00     0.236 A 
HETATM   14  N3  UNL     1      28.178   4.542  48.775  1.00  0.00    -0.241 NA
HETATM   15  C10 UNL     1      26.942   4.645  49.280  1.00  0.00     0.076 A 
HETATM   16  C11 UNL     1      26.380   3.610  49.987  1.00  0.00     0.072 A 
HETATM   17  C20 UNL     1      26.208   5.791  49.098  1.00  0.00     0.058 A 
HETATM   18  C12 UNL     1      25.129   3.581  50.550  1.00  0.00     0.105 A 
HETATM   19  C18 UNL     1      24.436   4.800  50.319  1.00  0.00     0.119 A 
HETATM   20  C19 UNL     1      24.948   5.895  49.610  1.00  0.00     0.053 A 
HETATM   21  O3  UNL     1      23.132   4.950  50.827  1.00  0.00    -0.346 OA
HETATM   22  S1  UNL     1      24.000   7.381  49.380  1.00  0.00    -0.124 SA
HETATM   23  C21 UNL     1      22.511   7.193  50.387  1.00  0.00     0.106 C 
HETATM   24  C22 UNL     1      22.121   5.718  50.211  1.00  0.00     0.186 C 
BRANCH  18  25
HETATM   25  O1  UNL     1      24.450   2.685  51.241  1.00  0.00    -0.346 OA
BRANCH  25  26
HETATM   26  C13 UNL     1      24.628   1.448  51.710  1.00  0.00     0.207 C 
BRANCH  26  27
HETATM   27  C14 UNL     1      25.570   1.335  52.859  1.00  0.00     0.145 C 
HETATM   28  C15 UNL     1      26.902   0.799  52.341  1.00  0.00     0.036 C 
HETATM   29  C16 UNL     1      26.657  -0.701  52.407  1.00  0.00     0.029 C 
HETATM   30  C17 UNL     1      25.739  -0.785  53.618  1.00  0.00     0.168 C 
HETATM   31  O2  UNL     1      25.202   0.458  53.808  1.00  0.00    -0.384 OA
ENDBRANCH  26  27
ENDBRANCH  25  26
ENDBRANCH  18  25
ENDBRANCH   9  11
ENDBRANCH   7   9
TORSDOF 5
ENDMDL
MODEL 9
REMARK VINA RESULT:      -7.6      6.328     10.326
REMARK  5 active torsions:
REMARK  status: ('A' for Active; 'I' for Inactive)
REMARK    1  A    between atoms: C7_7  and  N1_8 
REMARK    2  A    between atoms: N1_8  and  C8_9 
REMARK    3  A    between atoms: C12_15  and  O1_16 
REMARK    4  A    between atoms: O1_16  and  C13_17 
REMARK    5  A    between atoms: C13_17  and  C14_18 
ROOT
HETATM    1  C1  UNL     1      21.593  -0.561  54.874  1.00  0.00     0.018 C 
HETATM    2  C2  UNL     1      21.704   0.034  53.828  1.00  0.00    -0.078 C 
HETATM    3  C3  UNL     1      21.846   0.763  52.596  1.00  0.00     0.019 A 
HETATM    4  C4  UNL     1      21.337   0.131  51.488  1.00  0.00     0.021 A 
HETATM    5  C5  UNL     1      21.436   0.769  50.273  1.00  0.00     0.004 A 
HETATM    6  C6  UNL     1      22.028   2.004  50.166  1.00  0.00     0.029 A 
HETATM    7  C7  UNL     1      22.553   2.675  51.261  1.00  0.00     0.035 A 
HETATM    8  C23 UNL     1      22.439   2.004  52.488  1.00  0.00     0.050 A 
ENDROOT
BRANCH   7   9
HETATM    9  N1  UNL     1      23.212   3.961  51.353  1.00  0.00    -0.340 N 
HETATM   10  H5  UNL     1      22.398   4.351  51.837  1.00  0.00     0.167 HD
BRANCH   9  11
HETATM   11  C8  UNL     1      24.501   3.963  50.767  1.00  0.00     0.143 A 
HETATM   12  N2  UNL     1      25.313   2.929  51.024  1.00  0.00    -0.223 NA
HETATM   13  C9  UNL     1      26.558   2.788  50.554  1.00  0.00     0.236 A 
HETATM   14  N3  UNL     1      26.960   3.795  49.774  1.00  0.00    -0.241 NA
HETATM   15  C10 UNL     1      26.207   4.860  49.473  1.00  0.00     0.076 A 
HETATM   16  C11 UNL     1      26.689   5.860  48.665  1.00  0.00     0.072 A 
HETATM   17  C20 UNL     1      24.932   4.976  49.970  1.00  0.00     0.058 A 
HETATM   18  C12 UNL     1      26.030   7.002  48.284  1.00  0.00     0.105 A 
HETATM   19  C18 UNL     1      24.722   7.046  48.838  1.00  0.00     0.119 A 
HETATM   20  C19 UNL     1      24.166   6.063  49.667  1.00  0.00     0.053 A 
HETATM   21  O3  UNL     1      23.898   8.151  48.551  1.00  0.00    -0.346 OA
HETATM   22  S1  UNL     1      22.513   6.210  50.306  1.00  0.00    -0.124 SA
HETATM   23  C21 UNL     1      21.783   7.651  49.495  1.00  0.00     0.106 C 
HETATM   24  C22 UNL     1      22.929   8.671  49.437  1.00  0.00     0.186 C 
BRANCH  18  25
HETATM   25  O1  UNL     1      26.345   8.041  47.533  1.00  0.00    -0.346 OA
BRANCH  25  26
HETATM   26  C13 UNL     1      27.072   8.296  46.444  1.00  0.00     0.207 C 
BRANCH  26  27
HETATM   27  C14 UNL     1      28.275   9.146  46.668  1.00  0.00     0.145 C 
HETATM   28  C15 UNL     1      28.978   9.353  45.329  1.00  0.00     0.036 C 
HETATM   29  C16 UNL     1      29.870   8.122  45.277  1.00  0.00     0.029 C 
HETATM   30  C17 UNL     1      30.175   7.930  46.755  1.00  0.00     0.168 C 
HETATM   31  O2  UNL     1      29.214   8.600  47.459  1.00  0.00    -0.384 OA
ENDBRANCH  26  27
ENDBRANCH  25  26
ENDBRANCH  18  25
ENDBRANCH   9  11
ENDBRANCH   7   9
TORSDOF 5
ENDMDL
