MODEL 1
REMARK VINA RESULT:      -7.9      0.000      0.000
REMARK  3 active torsions:
REMARK  status: ('A' for Active; 'I' for Inactive)
REMARK    1  A    between atoms: N1_1  and  C1_2 
REMARK    2  A    between atoms: N2_3  and  C2_4 
REMARK    3  A    between atoms: C5_7  and  O1_8 
ROOT
HETATM    1  C2  UNL     1      25.467   0.567  52.591  1.00  0.00     0.036 C 
HETATM    2  C3  UNL     1      26.434   1.211  51.965  1.00  0.00     0.032 C 
HETATM    3  C4  UNL     1      26.739   2.332  51.009  1.00  0.00     0.039 C 
HETATM    4  C5  UNL     1      26.247   3.324  50.237  1.00  0.00     0.065 C 
HETATM    5  C6  UNL     1      25.035   3.977  49.789  1.00  0.00     0.034 C 
HETATM    6  C7  UNL     1      23.721   3.782  49.986  1.00  0.00    -0.005 C 
HETATM    7  C8  UNL     1      23.543   2.592  50.846  1.00  0.00     0.147 C 
HETATM    8  N3  UNL     1      23.094   2.938  52.143  1.00  0.00    -0.386 N 
HETATM    9  C9  UNL     1      23.060   1.546  52.587  1.00  0.00     0.042 A 
HETATM   10  C10 UNL     1      21.730   1.294  52.805  1.00  0.00     0.057 A 
HETATM   11  C11 UNL     1      21.293   0.046  53.190  1.00  0.00     0.074 A 
HETATM   12 CL1  UNL     1      19.607  -0.347  53.483  1.00  0.00    -0.081 Cl
HETATM   13  C12 UNL     1      22.171  -0.996  53.372  1.00  0.00     0.139 A 
HETATM   14  F1  UNL     1      21.766  -2.231  53.749  1.00  0.00    -0.204 F 
HETATM   15  C13 UNL     1      23.487  -0.662  53.134  1.00  0.00     0.060 A 
HETATM   16  C14 UNL     1      24.028   0.548  52.749  1.00  0.00     0.019 A 
HETATM   17  H11 UNL     1      22.811   3.657  52.831  1.00  0.00     0.160 HD
ENDROOT
BRANCH   1  18
HETATM   18  N2  UNL     1      26.152  -0.460  53.377  1.00  0.00    -0.378 NA
HETATM   19  C1  UNL     1      26.687  -0.169  54.513  1.00  0.00     0.343 C 
BRANCH  19  20
HETATM   20  N1  UNL     1      26.658   1.134  55.081  1.00  0.00    -0.297 NA
HETATM   21  H1  UNL     1      26.456   1.166  56.104  1.00  0.00     0.124 HD
HETATM   22  H2  UNL     1      26.456   1.118  56.085  1.00  0.00     0.124 HD
ENDBRANCH  19  20
ENDBRANCH   1  18
BRANCH   4  23
HETATM   23  O1  UNL     1      27.238   4.056  49.550  1.00  0.00    -0.361 OA
HETATM   24  H6  UNL     1      27.429   4.976  49.971  1.00  0.00     0.217 HD
ENDBRANCH   4  23
TORSDOF 3
ENDMDL
MODEL 2
REMARK VINA RESULT:      -7.7      3.594      5.086
REMARK  3 active torsions:
REMARK  status: ('A' for Active; 'I' for Inactive)
REMARK    1  A    between atoms: N1_1  and  C1_2 
REMARK    2  A    between atoms: N2_3  and  C2_4 
REMARK    3  A    between atoms: C5_7  and  O1_8 
ROOT
HETATM    1  C2  UNL     1      25.221   0.755  52.460  1.00  0.00     0.036 C 
HETATM    2  C3  UNL     1      25.236  -0.078  53.483  1.00  0.00     0.032 C 
HETATM    3  C4  UNL     1      24.379  -0.803  54.485  1.00  0.00     0.039 C 
HETATM    4  C5  UNL     1      23.130  -1.042  54.940  1.00  0.00     0.065 C 
HETATM    5  C6  UNL     1      21.731  -0.724  54.760  1.00  0.00     0.034 C 
HETATM    6  C7  UNL     1      21.037   0.096  53.953  1.00  0.00    -0.005 C 
HETATM    7  C8  UNL     1      21.990   0.833  53.096  1.00  0.00     0.147 C 
HETATM    8  N3  UNL     1      21.931   0.405  51.748  1.00  0.00    -0.386 N 
HETATM    9  C9  UNL     1      22.961   1.349  51.322  1.00  0.00     0.042 A 
HETATM   10  C10 UNL     1      22.301   2.214  50.488  1.00  0.00     0.057 A 
HETATM   11  C11 UNL     1      22.946   3.292  49.921  1.00  0.00     0.074 A 
HETATM   12 CL1  UNL     1      22.162   4.440  48.849  1.00  0.00    -0.081 Cl
HETATM   13  C12 UNL     1      24.275   3.543  50.168  1.00  0.00     0.139 A 
HETATM   14  F1  UNL     1      24.929   4.595  49.625  1.00  0.00    -0.204 F 
HETATM   15  C13 UNL     1      24.865   2.628  51.014  1.00  0.00     0.060 A 
HETATM   16  C14 UNL     1      24.315   1.523  51.629  1.00  0.00     0.019 A 
HETATM   17  H11 UNL     1      21.525  -0.207  51.020  1.00  0.00     0.160 HD
ENDROOT
BRANCH   1  18
HETATM   18  N2  UNL     1      26.627   0.910  52.084  1.00  0.00    -0.378 NA
HETATM   19  C1  UNL     1      27.404   1.686  52.758  1.00  0.00     0.343 C 
BRANCH  19  20
HETATM   20  N1  UNL     1      26.975   2.435  53.888  1.00  0.00    -0.297 NA
HETATM   21  H1  UNL     1      27.729   2.956  54.385  1.00  0.00     0.124 HD
HETATM   22  H2  UNL     1      27.747   2.929  54.344  1.00  0.00     0.124 HD
ENDBRANCH  19  20
ENDBRANCH   1  18
BRANCH   4  23
HETATM   23  O1  UNL     1      23.085  -1.937  56.029  1.00  0.00    -0.361 OA
HETATM   24  H6  UNL     1      22.340  -1.716  56.706  1.00  0.00     0.217 HD
ENDBRANCH   4  23
TORSDOF 3
ENDMDL
MODEL 3
REMARK VINA RESULT:      -7.6      3.126      4.326
REMARK  3 active torsions:
REMARK  status: ('A' for Active; 'I' for Inactive)
REMARK    1  A    between atoms: N1_1  and  C1_2 
REMARK    2  A    between atoms: N2_3  and  C2_4 
REMARK    3  A    between atoms: C5_7  and  O1_8 
ROOT
HETATM    1  C2  UNL     1      23.768  -0.029  53.049  1.00  0.00     0.036 C 
HETATM    2  C3  UNL     1      24.748  -0.882  53.279  1.00  0.00     0.032 C 
HETATM    3  C4  UNL     1      26.237  -1.022  53.440  1.00  0.00     0.039 C 
HETATM    4  C5  UNL     1      27.436  -0.400  53.448  1.00  0.00     0.065 C 
HETATM    5  C6  UNL     1      28.103   0.873  53.280  1.00  0.00     0.034 C 
HETATM    6  C7  UNL     1      27.710   2.119  52.968  1.00  0.00    -0.005 C 
HETATM    7  C8  UNL     1      26.252   2.109  52.725  1.00  0.00     0.147 C 
HETATM    8  N3  UNL     1      25.538   2.767  53.755  1.00  0.00    -0.386 N 
HETATM    9  C9  UNL     1      24.244   2.524  53.120  1.00  0.00     0.042 A 
HETATM   10  C10 UNL     1      23.796   3.774  52.780  1.00  0.00     0.057 A 
HETATM   11  C11 UNL     1      22.609   3.948  52.103  1.00  0.00     0.074 A 
HETATM   12 CL1  UNL     1      21.977   5.517  51.634  1.00  0.00    -0.081 Cl
HETATM   13  C12 UNL     1      21.826   2.876  51.743  1.00  0.00     0.139 A 
HETATM   14  F1  UNL     1      20.658   3.021  51.077  1.00  0.00    -0.204 F 
HETATM   15  C13 UNL     1      22.346   1.657  52.121  1.00  0.00     0.060 A 
HETATM   16  C14 UNL     1      23.515   1.375  52.797  1.00  0.00     0.019 A 
HETATM   17  H11 UNL     1      25.532   3.284  54.651  1.00  0.00     0.160 HD
ENDROOT
BRANCH   1  18
HETATM   18  N2  UNL     1      22.552  -0.844  53.074  1.00  0.00    -0.378 NA
HETATM   19  C1  UNL     1      22.108  -1.327  54.183  1.00  0.00     0.343 C 
BRANCH  19  20
HETATM   20  N1  UNL     1      22.742  -1.116  55.438  1.00  0.00    -0.297 NA
HETATM   21  H1  UNL     1      23.739  -0.817  55.385  1.00  0.00     0.124 HD
HETATM   22  H2  UNL     1      23.718  -0.824  55.338  1.00  0.00     0.124 HD
ENDBRANCH  19  20
ENDBRANCH   1  18
BRANCH   4  23
HETATM   23  O1  UNL     1      28.522  -1.263  53.701  1.00  0.00    -0.361 OA
HETATM   24  H6  UNL     1      28.761  -1.333  54.701  1.00  0.00     0.217 HD
ENDBRANCH   4  23
TORSDOF 3
ENDMDL
MODEL 4
REMARK VINA RESULT:      -7.6      1.818      3.916
REMARK  3 active torsions:
REMARK  status: ('A' for Active; 'I' for Inactive)
REMARK    1  A    between atoms: N1_1  and  C1_2 
REMARK    2  A    between atoms: N2_3  and  C2_4 
REMARK    3  A    between atoms: C5_7  and  O1_8 
ROOT
HETATM    1  C2  UNL     1      24.706   2.044  51.736  1.00  0.00     0.036 C 
HETATM    2  C3  UNL     1      25.934   2.527  51.697  1.00  0.00     0.032 C 
HETATM    3  C4  UNL     1      27.306   2.432  52.305  1.00  0.00     0.039 C 
HETATM    4  C5  UNL     1      28.099   1.831  53.218  1.00  0.00     0.065 C 
HETATM    5  C6  UNL     1      28.137   0.845  54.276  1.00  0.00     0.034 C 
HETATM    6  C7  UNL     1      27.232   0.046  54.865  1.00  0.00    -0.005 C 
HETATM    7  C8  UNL     1      25.907   0.308  54.264  1.00  0.00     0.147 C 
HETATM    8  N3  UNL     1      25.470  -0.769  53.455  1.00  0.00    -0.386 N 
HETATM    9  C9  UNL     1      24.214  -0.104  53.113  1.00  0.00     0.042 A 
HETATM   10  C10 UNL     1      23.250  -0.886  53.694  1.00  0.00     0.057 A 
HETATM   11  C11 UNL     1      21.917  -0.542  53.630  1.00  0.00     0.074 A 
HETATM   12 CL1  UNL     1      20.631  -1.494  54.354  1.00  0.00    -0.081 Cl
HETATM   13  C12 UNL     1      21.501   0.596  52.980  1.00  0.00     0.139 A 
HETATM   14  F1  UNL     1      20.199   0.955  52.905  1.00  0.00    -0.204 F 
HETATM   15  C13 UNL     1      22.530   1.325  52.423  1.00  0.00     0.060 A 
HETATM   16  C14 UNL     1      23.886   1.072  52.428  1.00  0.00     0.019 A 
HETATM   17  H11 UNL     1      25.629  -1.708  53.051  1.00  0.00     0.160 HD
ENDROOT
BRANCH   1  18
HETATM   18  N2  UNL     1      23.982   2.784  50.702  1.00  0.00    -0.378 NA
HETATM   19  C1  UNL     1      23.677   4.024  50.874  1.00  0.00     0.343 C 
BRANCH  19  20
HETATM   20  N1  UNL     1      24.006   4.756  52.047  1.00  0.00    -0.297 NA
HETATM   21  H1  UNL     1      24.740   5.486  51.922  1.00  0.00     0.124 HD
HETATM   22  H2  UNL     1      24.729   5.461  51.878  1.00  0.00     0.124 HD
ENDBRANCH  19  20
ENDBRANCH   1  18
BRANCH   4  23
HETATM   23  O1  UNL     1      29.428   2.300  53.214  1.00  0.00    -0.361 OA
HETATM   24  H6  UNL     1      29.520   3.266  53.559  1.00  0.00     0.217 HD
ENDBRANCH   4  23
TORSDOF 3
ENDMDL
MODEL 5
REMARK VINA RESULT:      -6.9      2.671      4.303
REMARK  3 active torsions:
REMARK  status: ('A' for Active; 'I' for Inactive)
REMARK    1  A    between atoms: N1_1  and  C1_2 
REMARK    2  A    between atoms: N2_3  and  C2_4 
REMARK    3  A    between atoms: C5_7  and  O1_8 
ROOT
HETATM    1  C2  UNL     1      23.775   2.612  52.377  1.00  0.00     0.036 C 
HETATM    2  C3  UNL     1      25.033   2.726  52.760  1.00  0.00     0.032 C 
HETATM    3  C4  UNL     1      26.142   2.065  53.533  1.00  0.00     0.039 C 
HETATM    4  C5  UNL     1      26.525   1.005  54.277  1.00  0.00     0.065 C 
HETATM    5  C6  UNL     1      26.086  -0.244  54.859  1.00  0.00     0.034 C 
HETATM    6  C7  UNL     1      24.922  -0.912  54.912  1.00  0.00    -0.005 C 
HETATM    7  C8  UNL     1      23.888  -0.116  54.219  1.00  0.00     0.147 C 
HETATM    8  N3  UNL     1      23.501  -0.705  52.991  1.00  0.00    -0.386 N 
HETATM    9  C9  UNL     1      22.534   0.352  52.700  1.00  0.00     0.042 A 
HETATM   10  C10 UNL     1      21.319  -0.282  52.740  1.00  0.00     0.057 A 
HETATM   11  C11 UNL     1      20.144   0.413  52.562  1.00  0.00     0.074 A 
HETATM   12 CL1  UNL     1      18.555  -0.334  52.605  1.00  0.00    -0.081 Cl
HETATM   13  C12 UNL     1      20.141   1.769  52.335  1.00  0.00     0.139 A 
HETATM   14  F1  UNL     1      19.000   2.474  52.158  1.00  0.00    -0.204 F 
HETATM   15  C13 UNL     1      21.400   2.330  52.308  1.00  0.00     0.060 A 
HETATM   16  C14 UNL     1      22.631   1.729  52.472  1.00  0.00     0.019 A 
HETATM   17  H11 UNL     1      23.590  -1.465  52.294  1.00  0.00     0.160 HD
ENDROOT
BRANCH   1  18
HETATM   18  N2  UNL     1      23.515   3.818  51.590  1.00  0.00    -0.378 NA
HETATM   19  C1  UNL     1      23.507   4.978  52.151  1.00  0.00     0.343 C 
BRANCH  19  20
HETATM   20  N1  UNL     1      23.741   5.178  53.539  1.00  0.00    -0.297 NA
HETATM   21  H1  UNL     1      23.910   6.168  53.821  1.00  0.00     0.124 HD
HETATM   22  H2  UNL     1      23.901   6.163  53.770  1.00  0.00     0.124 HD
ENDBRANCH  19  20
ENDBRANCH   1  18
BRANCH   4  23
HETATM   23  O1  UNL     1      27.867   1.067  54.706  1.00  0.00    -0.361 OA
HETATM   24  H6  UNL     1      28.545   0.945  53.940  1.00  0.00     0.217 HD
ENDBRANCH   4  23
TORSDOF 3
ENDMDL
MODEL 6
REMARK VINA RESULT:      -6.7      3.817      6.183
REMARK  3 active torsions:
REMARK  status: ('A' for Active; 'I' for Inactive)
REMARK    1  A    between atoms: N1_1  and  C1_2 
REMARK    2  A    between atoms: N2_3  and  C2_4 
REMARK    3  A    between atoms: C5_7  and  O1_8 
ROOT
HETATM    1  C2  UNL     1      22.531   1.768  52.343  1.00  0.00     0.036 C 
HETATM    2  C3  UNL     1      21.221   1.646  52.448  1.00  0.00     0.032 C 
HETATM    3  C4  UNL     1      20.109   0.756  52.932  1.00  0.00     0.039 C 
HETATM    4  C5  UNL     1      19.771  -0.409  53.525  1.00  0.00     0.065 C 
HETATM    5  C6  UNL     1      20.290  -1.633  54.096  1.00  0.00     0.034 C 
HETATM    6  C7  UNL     1      21.512  -2.171  54.244  1.00  0.00    -0.005 C 
HETATM    7  C8  UNL     1      22.506  -1.262  53.634  1.00  0.00     0.147 C 
HETATM    8  N3  UNL     1      23.307  -0.622  54.610  1.00  0.00    -0.386 N 
HETATM    9  C9  UNL     1      24.081   0.109  53.608  1.00  0.00     0.042 A 
HETATM   10  C10 UNL     1      25.347  -0.404  53.719  1.00  0.00     0.057 A 
HETATM   11  C11 UNL     1      26.362   0.010  52.884  1.00  0.00     0.074 A 
HETATM   12 CL1  UNL     1      28.003  -0.608  52.968  1.00  0.00    -0.081 Cl
HETATM   13  C12 UNL     1      26.146   0.955  51.910  1.00  0.00     0.139 A 
HETATM   14  F1  UNL     1      27.126   1.377  51.078  1.00  0.00    -0.204 F 
HETATM   15  C13 UNL     1      24.850   1.422  51.865  1.00  0.00     0.060 A 
HETATM   16  C14 UNL     1      23.767   1.077  52.647  1.00  0.00     0.019 A 
HETATM   17  H11 UNL     1      23.557  -0.465  55.602  1.00  0.00     0.160 HD
ENDROOT
BRANCH   1  18
HETATM   18  N2  UNL     1      22.734   3.063  51.692  1.00  0.00    -0.378 NA
HETATM   19  C1  UNL     1      22.568   3.192  50.421  1.00  0.00     0.343 C 
BRANCH  19  20
HETATM   20  N1  UNL     1      22.186   2.120  49.569  1.00  0.00    -0.297 NA
HETATM   21  H1  UNL     1      22.678   1.218  49.745  1.00  0.00     0.124 HD
HETATM   22  H2  UNL     1      22.693   1.256  49.777  1.00  0.00     0.124 HD
ENDBRANCH  19  20
ENDBRANCH   1  18
BRANCH   4  23
HETATM   23  O1  UNL     1      18.381  -0.589  53.675  1.00  0.00    -0.361 OA
HETATM   24  H6  UNL     1      18.130  -1.153  54.499  1.00  0.00     0.217 HD
ENDBRANCH   4  23
TORSDOF 3
ENDMDL
MODEL 7
REMARK VINA RESULT:      -6.7      3.589      4.917
REMARK  3 active torsions:
REMARK  status: ('A' for Active; 'I' for Inactive)
REMARK    1  A    between atoms: N1_1  and  C1_2 
REMARK    2  A    between atoms: N2_3  and  C2_4 
REMARK    3  A    between atoms: C5_7  and  O1_8 
ROOT
HETATM    1  C2  UNL     1      25.568   3.561  50.034  1.00  0.00     0.036 C 
HETATM    2  C3  UNL     1      24.738   4.273  49.296  1.00  0.00     0.032 C 
HETATM    3  C4  UNL     1      23.364   4.882  49.240  1.00  0.00     0.039 C 
HETATM    4  C5  UNL     1      22.185   5.072  49.872  1.00  0.00     0.065 C 
HETATM    5  C6  UNL     1      21.433   4.780  51.072  1.00  0.00     0.034 C 
HETATM    6  C7  UNL     1      21.657   4.059  52.183  1.00  0.00    -0.005 C 
HETATM    7  C8  UNL     1      22.986   3.421  52.074  1.00  0.00     0.147 C 
HETATM    8  N3  UNL     1      23.926   3.998  52.961  1.00  0.00    -0.386 N 
HETATM    9  C9  UNL     1      24.999   3.106  52.529  1.00  0.00     0.042 A 
HETATM   10  C10 UNL     1      25.268   2.342  53.635  1.00  0.00     0.057 A 
HETATM   11  C11 UNL     1      26.205   1.333  53.596  1.00  0.00     0.074 A 
HETATM   12 CL1  UNL     1      26.597   0.316  54.973  1.00  0.00    -0.081 Cl
HETATM   13  C12 UNL     1      26.909   1.053  52.449  1.00  0.00     0.139 A 
HETATM   14  F1  UNL     1      27.833   0.068  52.386  1.00  0.00    -0.204 F 
HETATM   15  C13 UNL     1      26.581   1.865  51.384  1.00  0.00     0.060 A 
HETATM   16  C14 UNL     1      25.666   2.895  51.317  1.00  0.00     0.019 A 
HETATM   17  H11 UNL     1      24.158   4.691  53.694  1.00  0.00     0.160 HD
ENDROOT
BRANCH   1  18
HETATM   18  N2  UNL     1      26.782   3.446  49.225  1.00  0.00    -0.378 NA
HETATM   19  C1  UNL     1      27.484   4.489  48.944  1.00  0.00     0.343 C 
BRANCH  19  20
HETATM   20  N1  UNL     1      27.149   5.800  49.381  1.00  0.00    -0.297 NA
HETATM   21  H1  UNL     1      26.138   5.954  49.583  1.00  0.00     0.124 HD
HETATM   22  H2  UNL     1      26.148   5.906  49.567  1.00  0.00     0.124 HD
ENDBRANCH  19  20
ENDBRANCH   1  18
BRANCH   4  23
HETATM   23  O1  UNL     1      21.261   5.838  49.132  1.00  0.00    -0.361 OA
HETATM   24  H6  UNL     1      20.466   6.172  49.696  1.00  0.00     0.217 HD
ENDBRANCH   4  23
TORSDOF 3
ENDMDL
MODEL 8
REMARK VINA RESULT:      -6.7      4.012      6.490
REMARK  3 active torsions:
REMARK  status: ('A' for Active; 'I' for Inactive)
REMARK    1  A    between atoms: N1_1  and  C1_2 
REMARK    2  A    between atoms: N2_3  and  C2_4 
REMARK    3  A    between atoms: C5_7  and  O1_8 
ROOT
HETATM    1  C2  UNL     1      21.499   2.670  51.971  1.00  0.00     0.036 C 
HETATM    2  C3  UNL     1      20.804   1.858  52.746  1.00  0.00     0.032 C 
HETATM    3  C4  UNL     1      20.885   0.650  53.638  1.00  0.00     0.039 C 
HETATM    4  C5  UNL     1      21.672  -0.308  54.174  1.00  0.00     0.065 C 
HETATM    5  C6  UNL     1      23.019  -0.832  54.226  1.00  0.00     0.034 C 
HETATM    6  C7  UNL     1      24.183  -0.524  53.630  1.00  0.00    -0.005 C 
HETATM    7  C8  UNL     1      23.955   0.601  52.699  1.00  0.00     0.147 C 
HETATM    8  N3  UNL     1      24.545   1.801  53.162  1.00  0.00    -0.386 N 
HETATM    9  C9  UNL     1      24.095   2.563  51.999  1.00  0.00     0.042 A 
HETATM   10  C10 UNL     1      25.254   2.905  51.352  1.00  0.00     0.057 A 
HETATM   11  C11 UNL     1      25.230   3.597  50.161  1.00  0.00     0.074 A 
HETATM   12 CL1  UNL     1      26.673   4.064  49.278  1.00  0.00    -0.081 Cl
HETATM   13  C12 UNL     1      24.044   3.974  49.575  1.00  0.00     0.139 A 
HETATM   14  F1  UNL     1      23.994   4.653  48.407  1.00  0.00    -0.204 F 
HETATM   15  C13 UNL     1      22.927   3.594  50.288  1.00  0.00     0.060 A 
HETATM   16  C14 UNL     1      22.841   2.905  51.480  1.00  0.00     0.019 A 
HETATM   17  H11 UNL     1      25.090   2.314  53.877  1.00  0.00     0.160 HD
ENDROOT
BRANCH   1  18
HETATM   18  N2  UNL     1      20.520   3.639  51.475  1.00  0.00    -0.378 NA
HETATM   19  C1  UNL     1      19.688   3.314  50.546  1.00  0.00     0.343 C 
BRANCH  19  20
HETATM   20  N1  UNL     1      19.651   2.028  49.943  1.00  0.00    -0.297 NA
HETATM   21  H1  UNL     1      20.268   1.313  50.386  1.00  0.00     0.124 HD
HETATM   22  H2  UNL     1      20.271   1.360  50.409  1.00  0.00     0.124 HD
ENDBRANCH  19  20
ENDBRANCH   1  18
BRANCH   4  23
HETATM   23  O1  UNL     1      20.984  -1.200  55.022  1.00  0.00    -0.361 OA
HETATM   24  H6  UNL     1      20.056  -0.855  55.308  1.00  0.00     0.217 HD
ENDBRANCH   4  23
TORSDOF 3
ENDMDL
MODEL 9
REMARK VINA RESULT:      -6.6      3.670      5.547
REMARK  3 active torsions:
REMARK  status: ('A' for Active; 'I' for Inactive)
REMARK    1  A    between atoms: N1_1  and  C1_2 
REMARK    2  A    between atoms: N2_3  and  C2_4 
REMARK    3  A    between atoms: C5_7  and  O1_8 
ROOT
HETATM    1  C2  UNL     1      22.731   3.112  51.457  1.00  0.00     0.036 C 
HETATM    2  C3  UNL     1      21.479   3.462  51.228  1.00  0.00     0.032 C 
HETATM    3  C4  UNL     1      20.045   3.025  51.347  1.00  0.00     0.039 C 
HETATM    4  C5  UNL     1      19.187   2.058  51.737  1.00  0.00     0.065 C 
HETATM    5  C6  UNL     1      19.088   0.734  52.310  1.00  0.00     0.034 C 
HETATM    6  C7  UNL     1      19.968  -0.200  52.705  1.00  0.00    -0.005 C 
HETATM    7  C8  UNL     1      21.335   0.295  52.438  1.00  0.00     0.147 C 
HETATM    8  N3  UNL     1      22.026   0.616  53.631  1.00  0.00    -0.386 N 
HETATM    9  C9  UNL     1      23.234   1.021  52.915  1.00  0.00     0.042 A 
HETATM   10  C10 UNL     1      24.172   0.093  53.287  1.00  0.00     0.057 A 
HETATM   11  C11 UNL     1      25.447   0.117  52.764  1.00  0.00     0.074 A 
HETATM   12 CL1  UNL     1      26.695  -1.040  53.193  1.00  0.00    -0.081 Cl
HETATM   13  C12 UNL     1      25.829   1.072  51.851  1.00  0.00     0.139 A 
HETATM   14  F1  UNL     1      27.074   1.115  51.324  1.00  0.00    -0.204 F 
HETATM   15  C13 UNL     1      24.830   1.966  51.531  1.00  0.00     0.060 A 
HETATM   16  C14 UNL     1      23.532   2.031  51.993  1.00  0.00     0.019 A 
HETATM   17  H11 UNL     1      22.048   0.681  54.663  1.00  0.00     0.160 HD
ENDROOT
BRANCH   1  18
HETATM   18  N2  UNL     1      23.527   4.248  50.989  1.00  0.00    -0.378 NA
HETATM   19  C1  UNL     1      23.871   5.187  51.802  1.00  0.00     0.343 C 
BRANCH  19  20
HETATM   20  N1  UNL     1      23.517   5.200  53.179  1.00  0.00    -0.297 NA
HETATM   21  H1  UNL     1      24.175   5.717  53.800  1.00  0.00     0.124 HD
HETATM   22  H2  UNL     1      24.190   5.717  53.750  1.00  0.00     0.124 HD
ENDBRANCH  19  20
ENDBRANCH   1  18
BRANCH   4  23
HETATM   23  O1  UNL     1      17.831   2.383  51.527  1.00  0.00    -0.361 OA
HETATM   24  H6  UNL     1      17.687   3.361  51.235  1.00  0.00     0.217 HD
ENDBRANCH   4  23
TORSDOF 3
ENDMDL
