MODEL 1
REMARK VINA RESULT:      -8.4      0.000      0.000
REMARK  3 active torsions:
REMARK  status: ('A' for Active; 'I' for Inactive)
REMARK    1  A    between atoms: O1_2  and  C2_3 
REMARK    2  A    between atoms: C6_7  and  N1_8 
REMARK    3  A    between atoms: N1_8  and  C7_9 
ROOT
HETATM    1  C7  UNL     1      22.945   0.131  53.608  1.00  0.00     0.143 A 
HETATM    2  N2  UNL     1      22.835  -0.899  54.514  1.00  0.00    -0.223 NA
HETATM    3  C8  UNL     1      21.622  -1.525  54.614  1.00  0.00     0.236 A 
HETATM    4  N3  UNL     1      20.504  -1.214  53.887  1.00  0.00    -0.241 NA
HETATM    5  C9  UNL     1      20.611  -0.187  52.981  1.00  0.00     0.075 A 
HETATM    6  C10 UNL     1      21.850   0.506  52.827  1.00  0.00     0.052 A 
HETATM    7  C11 UNL     1      21.923   1.523  51.733  1.00  0.00     0.011 C 
HETATM    8  C12 UNL     1      23.015   1.440  50.993  1.00  0.00     0.148 C 
HETATM    9  O2  UNL     1      22.526   2.551  50.190  1.00  0.00    -0.362 OA
HETATM   10  C13 UNL     1      22.094   2.068  48.864  1.00  0.00     0.176 C 
HETATM   11  C14 UNL     1      20.789   1.366  48.982  1.00  0.00     0.053 C 
HETATM   12  C15 UNL     1      19.566   2.150  49.231  1.00  0.00     0.178 C 
HETATM   13  O3  UNL     1      18.644   1.332  50.066  1.00  0.00    -0.350 OA
HETATM   14  C16 UNL     1      19.235   1.005  51.312  1.00  0.00     0.076 C 
HETATM   15  C17 UNL     1      19.377   0.076  52.239  1.00  0.00     0.070 C 
HETATM   16  P1  UNL     1      20.278   2.430  51.983  1.00  0.00    -0.032 P 
HETATM   17  H17 UNL     1      20.209   3.608  51.259  1.00  0.00     0.069 HD
ENDROOT
BRANCH   1  18
HETATM   18  N1  UNL     1      24.138   0.880  53.421  1.00  0.00    -0.340 N 
HETATM   19  H7  UNL     1      24.117   1.919  53.275  1.00  0.00     0.167 HD
BRANCH  18  20
HETATM   20  C6  UNL     1      25.460   0.387  53.486  1.00  0.00     0.036 A 
HETATM   21  C5  UNL     1      25.853  -0.742  52.757  1.00  0.00     0.029 A 
HETATM   22  C4  UNL     1      27.109  -1.282  52.750  1.00  0.00     0.005 A 
HETATM   23  C3  UNL     1      28.094  -0.706  53.502  1.00  0.00     0.037 A 
HETATM   24  C2  UNL     1      27.788   0.406  54.246  1.00  0.00     0.070 A 
HETATM   25  C18 UNL     1      26.513   0.900  54.211  1.00  0.00     0.066 A 
BRANCH  24  26
HETATM   26  O1  UNL     1      28.765   0.996  55.004  1.00  0.00    -0.356 OA
HETATM   27  C1  UNL     1      29.586   2.047  54.619  1.00  0.00     0.210 C 
ENDBRANCH  24  26
ENDBRANCH  18  20
ENDBRANCH   1  18
TORSDOF 3
ENDMDL
MODEL 2
REMARK VINA RESULT:      -8.1      2.123      2.757
REMARK  3 active torsions:
REMARK  status: ('A' for Active; 'I' for Inactive)
REMARK    1  A    between atoms: O1_2  and  C2_3 
REMARK    2  A    between atoms: C6_7  and  N1_8 
REMARK    3  A    between atoms: N1_8  and  C7_9 
ROOT
HETATM    1  C7  UNL     1      24.198   1.005  52.360  1.00  0.00     0.143 A 
HETATM    2  N2  UNL     1      23.875  -0.100  53.112  1.00  0.00    -0.223 NA
HETATM    3  C8  UNL     1      22.594  -0.188  53.587  1.00  0.00     0.236 A 
HETATM    4  N3  UNL     1      21.602   0.734  53.376  1.00  0.00    -0.241 NA
HETATM    5  C9  UNL     1      21.922   1.837  52.624  1.00  0.00     0.075 A 
HETATM    6  C10 UNL     1      23.242   1.988  52.098  1.00  0.00     0.052 A 
HETATM    7  C11 UNL     1      23.475   3.148  51.184  1.00  0.00     0.011 C 
HETATM    8  C12 UNL     1      24.140   2.841  50.083  1.00  0.00     0.148 C 
HETATM    9  O2  UNL     1      24.030   4.230  49.660  1.00  0.00    -0.362 OA
HETATM   10  C13 UNL     1      23.068   4.346  48.546  1.00  0.00     0.176 C 
HETATM   11  C14 UNL     1      21.680   4.224  49.063  1.00  0.00     0.053 C 
HETATM   12  C15 UNL     1      21.099   5.331  49.844  1.00  0.00     0.178 C 
HETATM   13  O3  UNL     1      20.177   4.756  50.862  1.00  0.00    -0.350 OA
HETATM   14  C16 UNL     1      20.866   3.891  51.747  1.00  0.00     0.076 C 
HETATM   15  C17 UNL     1      20.807   2.767  52.436  1.00  0.00     0.070 C 
HETATM   16  P1  UNL     1      22.599   4.532  52.139  1.00  0.00    -0.032 P 
HETATM   17  H17 UNL     1      22.895   5.788  51.637  1.00  0.00     0.069 HD
ENDROOT
BRANCH   1  18
HETATM   18  N1  UNL     1      25.496   1.233  51.827  1.00  0.00    -0.340 N 
HETATM   19  H7  UNL     1      25.633   1.618  50.861  1.00  0.00     0.167 HD
BRANCH  18  20
HETATM   20  C6  UNL     1      26.724   1.069  52.505  1.00  0.00     0.036 A 
HETATM   21  C5  UNL     1      27.467   2.173  52.943  1.00  0.00     0.029 A 
HETATM   22  C4  UNL     1      28.656   2.111  53.615  1.00  0.00     0.005 A 
HETATM   23  C3  UNL     1      29.204   0.892  53.904  1.00  0.00     0.037 A 
HETATM   24  C2  UNL     1      28.535  -0.239  53.508  1.00  0.00     0.070 A 
HETATM   25  C18 UNL     1      27.349  -0.112  52.840  1.00  0.00     0.066 A 
BRANCH  24  26
HETATM   26  O1  UNL     1      29.070  -1.468  53.791  1.00  0.00    -0.356 OA
HETATM   27  C1  UNL     1      28.823  -2.653  53.109  1.00  0.00     0.210 C 
ENDBRANCH  24  26
ENDBRANCH  18  20
ENDBRANCH   1  18
TORSDOF 3
ENDMDL
MODEL 3
REMARK VINA RESULT:      -7.9      4.459      5.650
REMARK  3 active torsions:
REMARK  status: ('A' for Active; 'I' for Inactive)
REMARK    1  A    between atoms: O1_2  and  C2_3 
REMARK    2  A    between atoms: C6_7  and  N1_8 
REMARK    3  A    between atoms: N1_8  and  C7_9 
ROOT
HETATM    1  C7  UNL     1      25.664   3.202  50.510  1.00  0.00     0.143 A 
HETATM    2  N2  UNL     1      26.879   2.857  51.056  1.00  0.00    -0.223 NA
HETATM    3  C8  UNL     1      26.886   1.879  52.013  1.00  0.00     0.236 A 
HETATM    4  N3  UNL     1      25.784   1.210  52.475  1.00  0.00    -0.241 NA
HETATM    5  C9  UNL     1      24.570   1.551  51.931  1.00  0.00     0.075 A 
HETATM    6  C10 UNL     1      24.495   2.565  50.927  1.00  0.00     0.052 A 
HETATM    7  C11 UNL     1      23.158   2.788  50.293  1.00  0.00     0.011 C 
HETATM    8  C12 UNL     1      23.196   2.876  48.975  1.00  0.00     0.148 C 
HETATM    9  O2  UNL     1      21.750   3.048  48.970  1.00  0.00    -0.362 OA
HETATM   10  C13 UNL     1      21.097   1.829  48.453  1.00  0.00     0.176 C 
HETATM   11  C14 UNL     1      21.130   0.760  49.486  1.00  0.00     0.053 C 
HETATM   12  C15 UNL     1      20.261   0.873  50.671  1.00  0.00     0.178 C 
HETATM   13  O3  UNL     1      20.965   0.260  51.831  1.00  0.00    -0.350 OA
HETATM   14  C16 UNL     1      22.186   0.927  52.100  1.00  0.00     0.076 C 
HETATM   15  C17 UNL     1      23.445   0.785  52.470  1.00  0.00     0.070 C 
HETATM   16  P1  UNL     1      22.038   2.790  51.822  1.00  0.00    -0.032 P 
HETATM   17  H17 UNL     1      20.762   3.248  51.541  1.00  0.00     0.069 HD
ENDROOT
BRANCH   1  18
HETATM   18  N1  UNL     1      25.512   4.218  49.527  1.00  0.00    -0.340 N 
HETATM   19  H7  UNL     1      24.568   4.480  49.150  1.00  0.00     0.167 HD
BRANCH  18  20
HETATM   20  C6  UNL     1      26.533   5.041  49.002  1.00  0.00     0.036 A 
HETATM   21  C5  UNL     1      26.311   6.399  48.741  1.00  0.00     0.029 A 
HETATM   22  C4  UNL     1      27.239   7.271  48.245  1.00  0.00     0.005 A 
HETATM   23  C3  UNL     1      28.501   6.825  47.966  1.00  0.00     0.037 A 
HETATM   24  C2  UNL     1      28.798   5.505  48.196  1.00  0.00     0.070 A 
HETATM   25  C18 UNL     1      27.826   4.681  48.694  1.00  0.00     0.066 A 
BRANCH  24  26
HETATM   26  O1  UNL     1      30.058   5.044  47.923  1.00  0.00    -0.356 OA
HETATM   27  C1  UNL     1      31.255   5.651  48.280  1.00  0.00     0.210 C 
ENDBRANCH  24  26
ENDBRANCH  18  20
ENDBRANCH   1  18
TORSDOF 3
ENDMDL
MODEL 4
REMARK VINA RESULT:      -7.7      2.804      4.571
REMARK  3 active torsions:
REMARK  status: ('A' for Active; 'I' for Inactive)
REMARK    1  A    between atoms: O1_2  and  C2_3 
REMARK    2  A    between atoms: C6_7  and  N1_8 
REMARK    3  A    between atoms: N1_8  and  C7_9 
ROOT
HETATM    1  C7  UNL     1      25.750   2.668  50.734  1.00  0.00     0.143 A 
HETATM    2  N2  UNL     1      26.840   3.384  50.296  1.00  0.00    -0.223 NA
HETATM    3  C8  UNL     1      26.610   4.412  49.422  1.00  0.00     0.236 A 
HETATM    4  N3  UNL     1      25.383   4.792  48.946  1.00  0.00    -0.241 NA
HETATM    5  C9  UNL     1      24.294   4.081  49.383  1.00  0.00     0.075 A 
HETATM    6  C10 UNL     1      24.465   2.996  50.297  1.00  0.00     0.052 A 
HETATM    7  C11 UNL     1      23.221   2.355  50.825  1.00  0.00     0.011 C 
HETATM    8  C12 UNL     1      23.231   2.157  52.132  1.00  0.00     0.148 C 
HETATM    9  O2  UNL     1      21.892   1.596  52.031  1.00  0.00    -0.362 OA
HETATM   10  C13 UNL     1      20.904   2.533  52.601  1.00  0.00     0.176 C 
HETATM   11  C14 UNL     1      20.677   3.662  51.661  1.00  0.00     0.053 C 
HETATM   12  C15 UNL     1      19.921   3.427  50.417  1.00  0.00     0.178 C 
HETATM   13  O3  UNL     1      20.470   4.316  49.357  1.00  0.00    -0.350 OA
HETATM   14  C16 UNL     1      21.839   4.038  49.114  1.00  0.00     0.076 C 
HETATM   15  C17 UNL     1      23.021   4.555  48.836  1.00  0.00     0.070 C 
HETATM   16  P1  UNL     1      22.206   2.189  49.233  1.00  0.00    -0.032 P 
HETATM   17  H17 UNL     1      21.099   1.373  49.395  1.00  0.00     0.069 HD
ENDROOT
BRANCH   1  18
HETATM   18  N1  UNL     1      25.849   1.562  51.622  1.00  0.00    -0.340 N 
HETATM   19  H7  UNL     1      25.091   0.839  51.685  1.00  0.00     0.167 HD
BRANCH  18  20
HETATM   20  C6  UNL     1      26.953   1.237  52.441  1.00  0.00     0.036 A 
HETATM   21  C5  UNL     1      27.705   2.232  53.077  1.00  0.00     0.029 A 
HETATM   22  C4  UNL     1      28.779   2.012  53.894  1.00  0.00     0.005 A 
HETATM   23  C3  UNL     1      29.188   0.731  54.138  1.00  0.00     0.037 A 
HETATM   24  C2  UNL     1      28.500  -0.301  53.551  1.00  0.00     0.070 A 
HETATM   25  C18 UNL     1      27.434  -0.018  52.744  1.00  0.00     0.066 A 
BRANCH  24  26
HETATM   26  O1  UNL     1      28.897  -1.591  53.787  1.00  0.00    -0.356 OA
HETATM   27  C1  UNL     1      28.587  -2.704  53.016  1.00  0.00     0.210 C 
ENDBRANCH  24  26
ENDBRANCH  18  20
ENDBRANCH   1  18
TORSDOF 3
ENDMDL
MODEL 5
REMARK VINA RESULT:      -7.6      3.022      6.795
REMARK  3 active torsions:
REMARK  status: ('A' for Active; 'I' for Inactive)
REMARK    1  A    between atoms: O1_2  and  C2_3 
REMARK    2  A    between atoms: C6_7  and  N1_8 
REMARK    3  A    between atoms: N1_8  and  C7_9 
ROOT
HETATM    1  C7  UNL     1      23.432   1.613  51.513  1.00  0.00     0.143 A 
HETATM    2  N2  UNL     1      22.085   1.497  51.771  1.00  0.00    -0.223 NA
HETATM    3  C8  UNL     1      21.712   0.747  52.853  1.00  0.00     0.236 A 
HETATM    4  N3  UNL     1      22.567   0.100  53.706  1.00  0.00    -0.241 NA
HETATM    5  C9  UNL     1      23.911   0.215  53.452  1.00  0.00     0.075 A 
HETATM    6  C10 UNL     1      24.367   0.985  52.338  1.00  0.00     0.052 A 
HETATM    7  C11 UNL     1      25.845   1.168  52.204  1.00  0.00     0.011 C 
HETATM    8  C12 UNL     1      26.212   2.412  51.948  1.00  0.00     0.148 C 
HETATM    9  O2  UNL     1      27.601   1.978  51.958  1.00  0.00    -0.362 OA
HETATM   10  C13 UNL     1      28.278   2.471  53.173  1.00  0.00     0.176 C 
HETATM   11  C14 UNL     1      27.850   1.670  54.351  1.00  0.00     0.053 C 
HETATM   12  C15 UNL     1      28.329   0.284  54.496  1.00  0.00     0.178 C 
HETATM   13  O3  UNL     1      27.263  -0.517  55.157  1.00  0.00    -0.350 OA
HETATM   14  C16 UNL     1      26.075  -0.527  54.383  1.00  0.00     0.076 C 
HETATM   15  C17 UNL     1      24.757  -0.496  54.413  1.00  0.00     0.070 C 
HETATM   16  P1  UNL     1      26.452  -0.597  52.533  1.00  0.00    -0.032 P 
HETATM   17  H17 UNL     1      27.786  -0.767  52.204  1.00  0.00     0.069 HD
ENDROOT
BRANCH   1  18
HETATM   18  N1  UNL     1      23.954   2.340  50.410  1.00  0.00    -0.340 N 
HETATM   19  H7  UNL     1      24.777   1.990  49.861  1.00  0.00     0.167 HD
BRANCH  18  20
HETATM   20  C6  UNL     1      23.426   3.530  49.860  1.00  0.00     0.036 A 
HETATM   21  C5  UNL     1      22.853   3.549  48.582  1.00  0.00     0.029 A 
HETATM   22  C4  UNL     1      22.309   4.647  47.976  1.00  0.00     0.005 A 
HETATM   23  C3  UNL     1      22.302   5.846  48.633  1.00  0.00     0.037 A 
HETATM   24  C2  UNL     1      22.845   5.908  49.892  1.00  0.00     0.070 A 
HETATM   25  C18 UNL     1      23.374   4.775  50.446  1.00  0.00     0.066 A 
BRANCH  24  26
HETATM   26  O1  UNL     1      22.845   7.102  50.564  1.00  0.00    -0.356 OA
HETATM   27  C1  UNL     1      23.797   8.107  50.459  1.00  0.00     0.210 C 
ENDBRANCH  24  26
ENDBRANCH  18  20
ENDBRANCH   1  18
TORSDOF 3
ENDMDL
MODEL 6
REMARK VINA RESULT:      -7.4      3.190      6.389
REMARK  3 active torsions:
REMARK  status: ('A' for Active; 'I' for Inactive)
REMARK    1  A    between atoms: O1_2  and  C2_3 
REMARK    2  A    between atoms: C6_7  and  N1_8 
REMARK    3  A    between atoms: N1_8  and  C7_9 
ROOT
HETATM    1  C7  UNL     1      24.472   1.795  52.565  1.00  0.00     0.143 A 
HETATM    2  N2  UNL     1      25.348   0.811  52.962  1.00  0.00    -0.223 NA
HETATM    3  C8  UNL     1      26.558   0.750  52.325  1.00  0.00     0.236 A 
HETATM    4  N3  UNL     1      26.974   1.588  51.324  1.00  0.00    -0.241 NA
HETATM    5  C9  UNL     1      26.102   2.572  50.928  1.00  0.00     0.075 A 
HETATM    6  C10 UNL     1      24.823   2.690  51.553  1.00  0.00     0.052 A 
HETATM    7  C11 UNL     1      23.985   3.863  51.156  1.00  0.00     0.011 C 
HETATM    8  C12 UNL     1      23.440   4.504  52.176  1.00  0.00     0.148 C 
HETATM    9  O2  UNL     1      22.842   5.440  51.235  1.00  0.00    -0.362 OA
HETATM   10  C13 UNL     1      23.523   6.747  51.316  1.00  0.00     0.176 C 
HETATM   11  C14 UNL     1      24.849   6.669  50.647  1.00  0.00     0.053 C 
HETATM   12  C15 UNL     1      24.912   6.588  49.177  1.00  0.00     0.178 C 
HETATM   13  O3  UNL     1      26.089   5.758  48.801  1.00  0.00    -0.350 OA
HETATM   14  C16 UNL     1      25.977   4.444  49.322  1.00  0.00     0.076 C 
HETATM   15  C17 UNL     1      26.625   3.429  49.862  1.00  0.00     0.070 C 
HETATM   16  P1  UNL     1      24.193   3.826  49.273  1.00  0.00    -0.032 P 
HETATM   17  H17 UNL     1      23.294   4.657  48.626  1.00  0.00     0.069 HD
ENDROOT
BRANCH   1  18
HETATM   18  N1  UNL     1      23.175   1.955  53.125  1.00  0.00    -0.340 N 
HETATM   19  H7  UNL     1      22.816   2.896  53.419  1.00  0.00     0.167 HD
BRANCH  18  20
HETATM   20  C6  UNL     1      22.196   0.949  53.280  1.00  0.00     0.036 A 
HETATM   21  C5  UNL     1      22.337  -0.063  54.238  1.00  0.00     0.029 A 
HETATM   22  C4  UNL     1      21.439  -1.067  54.467  1.00  0.00     0.005 A 
HETATM   23  C3  UNL     1      20.294  -1.129  53.722  1.00  0.00     0.037 A 
HETATM   24  C2  UNL     1      20.081  -0.172  52.762  1.00  0.00     0.070 A 
HETATM   25  C18 UNL     1      21.017   0.809  52.581  1.00  0.00     0.066 A 
BRANCH  24  26
HETATM   26  O1  UNL     1      18.938  -0.220  52.009  1.00  0.00    -0.356 OA
HETATM   27  C1  UNL     1      18.218   0.868  51.531  1.00  0.00     0.210 C 
ENDBRANCH  24  26
ENDBRANCH  18  20
ENDBRANCH   1  18
TORSDOF 3
ENDMDL
MODEL 7
REMARK VINA RESULT:      -7.2      2.168      7.066
REMARK  3 active torsions:
REMARK  status: ('A' for Active; 'I' for Inactive)
REMARK    1  A    between atoms: O1_2  and  C2_3 
REMARK    2  A    between atoms: C6_7  and  N1_8 
REMARK    3  A    between atoms: N1_8  and  C7_9 
ROOT
HETATM    1  C7  UNL     1      22.213  -0.156  52.762  1.00  0.00     0.143 A 
HETATM    2  N2  UNL     1      21.143  -0.585  53.513  1.00  0.00    -0.223 NA
HETATM    3  C8  UNL     1      21.408  -1.102  54.752  1.00  0.00     0.236 A 
HETATM    4  N3  UNL     1      22.652  -1.229  55.311  1.00  0.00    -0.241 NA
HETATM    5  C9  UNL     1      23.722  -0.800  54.565  1.00  0.00     0.075 A 
HETATM    6  C10 UNL     1      23.512  -0.249  53.264  1.00  0.00     0.052 A 
HETATM    7  C11 UNL     1      24.711   0.313  52.568  1.00  0.00     0.011 C 
HETATM    8  C12 UNL     1      24.509   1.498  52.019  1.00  0.00     0.148 C 
HETATM    9  O2  UNL     1      25.896   1.502  51.576  1.00  0.00    -0.362 OA
HETATM   10  C13 UNL     1      26.679   2.468  52.371  1.00  0.00     0.176 C 
HETATM   11  C14 UNL     1      26.942   1.913  53.725  1.00  0.00     0.053 C 
HETATM   12  C15 UNL     1      27.911   0.812  53.880  1.00  0.00     0.178 C 
HETATM   13  O3  UNL     1      27.456  -0.062  54.996  1.00  0.00    -0.350 OA
HETATM   14  C16 UNL     1      26.180  -0.616  54.725  1.00  0.00     0.076 C 
HETATM   15  C17 UNL     1      25.013  -0.961  55.236  1.00  0.00     0.070 C 
HETATM   16  P1  UNL     1      25.984  -1.053  52.898  1.00  0.00    -0.032 P 
HETATM   17  H17 UNL     1      27.125  -0.909  52.127  1.00  0.00     0.069 HD
ENDROOT
BRANCH   1  18
HETATM   18  N1  UNL     1      22.081   0.379  51.452  1.00  0.00    -0.340 N 
HETATM   19  H7  UNL     1      22.766   0.145  50.692  1.00  0.00     0.167 HD
BRANCH  18  20
HETATM   20  C6  UNL     1      21.025   1.186  50.975  1.00  0.00     0.036 A 
HETATM   21  C5  UNL     1      21.148   2.579  50.904  1.00  0.00     0.029 A 
HETATM   22  C4  UNL     1      20.187   3.437  50.447  1.00  0.00     0.005 A 
HETATM   23  C3  UNL     1      18.990   2.938  50.014  1.00  0.00     0.037 A 
HETATM   24  C2  UNL     1      18.792   1.581  50.052  1.00  0.00     0.070 A 
HETATM   25  C18 UNL     1      19.792   0.774  50.519  1.00  0.00     0.066 A 
BRANCH  24  26
HETATM   26  O1  UNL     1      17.597   1.065  49.621  1.00  0.00    -0.356 OA
HETATM   27  C1  UNL     1      17.053  -0.163  49.975  1.00  0.00     0.210 C 
ENDBRANCH  24  26
ENDBRANCH  18  20
ENDBRANCH   1  18
TORSDOF 3
ENDMDL
MODEL 8
REMARK VINA RESULT:      -7.1      3.796      5.413
REMARK  3 active torsions:
REMARK  status: ('A' for Active; 'I' for Inactive)
REMARK    1  A    between atoms: O1_2  and  C2_3 
REMARK    2  A    between atoms: C6_7  and  N1_8 
REMARK    3  A    between atoms: N1_8  and  C7_9 
ROOT
HETATM    1  C7  UNL     1      22.900   2.654  50.007  1.00  0.00     0.143 A 
HETATM    2  N2  UNL     1      22.339   1.526  49.455  1.00  0.00    -0.223 NA
HETATM    3  C8  UNL     1      21.842   1.627  48.183  1.00  0.00     0.236 A 
HETATM    4  N3  UNL     1      21.857   2.758  47.410  1.00  0.00    -0.241 NA
HETATM    5  C9  UNL     1      22.419   3.885  47.959  1.00  0.00     0.075 A 
HETATM    6  C10 UNL     1      22.956   3.846  49.282  1.00  0.00     0.052 A 
HETATM    7  C11 UNL     1      23.664   5.074  49.759  1.00  0.00     0.011 C 
HETATM    8  C12 UNL     1      24.823   4.833  50.347  1.00  0.00     0.148 C 
HETATM    9  O2  UNL     1      24.996   6.266  50.536  1.00  0.00    -0.362 OA
HETATM   10  C13 UNL     1      26.039   6.775  49.624  1.00  0.00     0.176 C 
HETATM   11  C14 UNL     1      25.504   6.858  48.240  1.00  0.00     0.053 C 
HETATM   12  C15 UNL     1      24.524   7.907  47.905  1.00  0.00     0.178 C 
HETATM   13  O3  UNL     1      23.590   7.368  46.879  1.00  0.00    -0.350 OA
HETATM   14  C16 UNL     1      22.891   6.235  47.366  1.00  0.00     0.076 C 
HETATM   15  C17 UNL     1      22.404   5.046  47.068  1.00  0.00     0.070 C 
HETATM   16  P1  UNL     1      22.455   6.420  49.195  1.00  0.00    -0.032 P 
HETATM   17  H17 UNL     1      22.742   7.655  49.752  1.00  0.00     0.069 HD
ENDROOT
BRANCH   1  18
HETATM   18  N1  UNL     1      23.430   2.695  51.326  1.00  0.00    -0.340 N 
HETATM   19  H7  UNL     1      23.325   3.543  51.934  1.00  0.00     0.167 HD
BRANCH  18  20
HETATM   20  C6  UNL     1      24.064   1.634  52.011  1.00  0.00     0.036 A 
HETATM   21  C5  UNL     1      23.336   0.754  52.821  1.00  0.00     0.029 A 
HETATM   22  C4  UNL     1      23.861  -0.304  53.511  1.00  0.00     0.005 A 
HETATM   23  C3  UNL     1      25.201  -0.561  53.433  1.00  0.00     0.037 A 
HETATM   24  C2  UNL     1      25.983   0.258  52.657  1.00  0.00     0.070 A 
HETATM   25  C18 UNL     1      25.400   1.300  51.990  1.00  0.00     0.066 A 
BRANCH  24  26
HETATM   26  O1  UNL     1      27.328   0.013  52.568  1.00  0.00    -0.356 OA
HETATM   27  C1  UNL     1      28.004  -1.082  53.091  1.00  0.00     0.210 C 
ENDBRANCH  24  26
ENDBRANCH  18  20
ENDBRANCH   1  18
TORSDOF 3
ENDMDL
MODEL 9
REMARK VINA RESULT:      -7.0      4.169      5.677
REMARK  3 active torsions:
REMARK  status: ('A' for Active; 'I' for Inactive)
REMARK    1  A    between atoms: O1_2  and  C2_3 
REMARK    2  A    between atoms: C6_7  and  N1_8 
REMARK    3  A    between atoms: N1_8  and  C7_9 
ROOT
HETATM    1  C7  UNL     1      23.382   3.953  51.020  1.00  0.00     0.143 A 
HETATM    2  N2  UNL     1      22.826   5.210  50.956  1.00  0.00    -0.223 NA
HETATM    3  C8  UNL     1      21.545   5.358  51.414  1.00  0.00     0.236 A 
HETATM    4  N3  UNL     1      20.766   4.359  51.934  1.00  0.00    -0.241 NA
HETATM    5  C9  UNL     1      21.319   3.104  52.000  1.00  0.00     0.075 A 
HETATM    6  C10 UNL     1      22.652   2.883  51.539  1.00  0.00     0.052 A 
HETATM    7  C11 UNL     1      23.227   1.520  51.764  1.00  0.00     0.011 C 
HETATM    8  C12 UNL     1      24.454   1.527  52.254  1.00  0.00     0.148 C 
HETATM    9  O2  UNL     1      24.432   0.072  52.264  1.00  0.00    -0.362 OA
HETATM   10  C13 UNL     1      24.330  -0.424  53.650  1.00  0.00     0.176 C 
HETATM   11  C14 UNL     1      22.943  -0.238  54.153  1.00  0.00     0.053 C 
HETATM   12  C15 UNL     1      21.864  -1.097  53.634  1.00  0.00     0.178 C 
HETATM   13  O3  UNL     1      20.605  -0.303  53.600  1.00  0.00    -0.350 OA
HETATM   14  C16 UNL     1      20.734   0.824  52.751  1.00  0.00     0.076 C 
HETATM   15  C17 UNL     1      20.426   2.095  52.576  1.00  0.00     0.070 C 
HETATM   16  P1  UNL     1      21.773   0.430  51.223  1.00  0.00    -0.032 P 
HETATM   17  H17 UNL     1      22.135  -0.898  51.077  1.00  0.00     0.069 HD
ENDROOT
BRANCH   1  18
HETATM   18  N1  UNL     1      24.692   3.656  50.556  1.00  0.00    -0.340 N 
HETATM   19  H7  UNL     1      25.128   2.713  50.707  1.00  0.00     0.167 HD
BRANCH  18  20
HETATM   20  C6  UNL     1      25.526   4.501  49.791  1.00  0.00     0.036 A 
HETATM   21  C5  UNL     1      25.091   5.763  49.366  1.00  0.00     0.029 A 
HETATM   22  C4  UNL     1      25.830   6.650  48.635  1.00  0.00     0.005 A 
HETATM   23  C3  UNL     1      27.104   6.321  48.263  1.00  0.00     0.037 A 
HETATM   24  C2  UNL     1      27.604   5.100  48.643  1.00  0.00     0.070 A 
HETATM   25  C18 UNL     1      26.816   4.256  49.374  1.00  0.00     0.066 A 
BRANCH  24  26
HETATM   26  O1  UNL     1      28.879   4.756  48.279  1.00  0.00    -0.356 OA
HETATM   27  C1  UNL     1      29.957   5.620  48.131  1.00  0.00     0.210 C 
ENDBRANCH  24  26
ENDBRANCH  18  20
ENDBRANCH   1  18
TORSDOF 3
ENDMDL
