MODEL 1
REMARK VINA RESULT:      -8.1      0.000      0.000
REMARK  4 active torsions:
REMARK  status: ('A' for Active; 'I' for Inactive)
REMARK    1  A    between atoms: N1_1  and  C1_2 
REMARK    2  A    between atoms: C1_2  and  N2_3 
REMARK    3  A    between atoms: C1_2  and  C6_9 
REMARK    4  A    between atoms: N2_3  and  C2_4 
ROOT
HETATM    1  C6  UNL     1      24.638   0.686  52.878  1.00  0.00     0.003 A 
HETATM    2  C7  UNL     1      25.324   1.871  52.685  1.00  0.00     0.012 A 
HETATM    3  C8  UNL     1      24.679   3.081  52.519  1.00  0.00     0.002 A 
HETATM    4  C9  UNL     1      23.290   3.125  52.544  1.00  0.00     0.018 A 
HETATM    5  C10 UNL     1      22.638   1.919  52.740  1.00  0.00     0.041 A 
HETATM    6  C11 UNL     1      23.237   0.685  52.911  1.00  0.00    -0.009 A 
HETATM    7  C12 UNL     1      22.269  -0.376  53.083  1.00  0.00     0.122 A 
HETATM    8  C13 UNL     1      22.159  -1.052  54.398  1.00  0.00     0.032 C 
HETATM    9  C14 UNL     1      20.673  -1.446  54.464  1.00  0.00     0.022 C 
HETATM   10  C15 UNL     1      20.100  -0.758  53.243  1.00  0.00     0.127 C 
HETATM   11  N4  UNL     1      20.994   0.357  53.029  1.00  0.00    -0.339 N 
HETATM   12  C16 UNL     1      21.175   1.745  52.811  1.00  0.00     0.255 A 
HETATM   13  O1  UNL     1      20.199   2.533  52.720  1.00  0.00    -0.267 OA
ENDROOT
BRANCH   1  14
HETATM   14  C1  UNL     1      25.433  -0.557  53.045  1.00  0.00     0.350 C 
BRANCH  14  15
HETATM   15  N1  UNL     1      25.629  -0.894  54.454  1.00  0.00    -0.399 N 
HETATM   16  H1  UNL     1      26.539  -0.619  54.833  1.00  0.00     0.152 HD
HETATM   17  H2  UNL     1      24.803  -0.764  55.042  1.00  0.00     0.152 HD
ENDBRANCH  14  15
BRANCH  14  18
HETATM   18  N2  UNL     1      26.782  -0.412  52.531  1.00  0.00     0.138 N 
HETATM   19  H4  UNL     1      26.921   0.567  52.197  1.00  0.00     0.322 HD
BRANCH  18  20
HETATM   20  C2  UNL     1      27.708  -0.637  53.614  1.00  0.00     0.367 A 
HETATM   21  C3  UNL     1      28.963  -1.305  53.202  1.00  0.00     0.033 A 
HETATM   22  C4  UNL     1      30.015  -0.542  53.541  1.00  0.00     0.019 A 
HETATM   23  C5  UNL     1      29.472   0.641  54.180  1.00  0.00     0.113 A 
HETATM   24  N3  UNL     1      28.182   0.578  54.216  1.00  0.00    -0.262 NA
ENDBRANCH  18  20
ENDBRANCH  14  18
ENDBRANCH   1  14
TORSDOF 4
ENDMDL
MODEL 2
REMARK VINA RESULT:      -8.0      1.350      3.137
REMARK  4 active torsions:
REMARK  status: ('A' for Active; 'I' for Inactive)
REMARK    1  A    between atoms: N1_1  and  C1_2 
REMARK    2  A    between atoms: C1_2  and  N2_3 
REMARK    3  A    between atoms: C1_2  and  C6_9 
REMARK    4  A    between atoms: N2_3  and  C2_4 
ROOT
HETATM    1  C6  UNL     1      24.097   0.157  53.597  1.00  0.00     0.003 A 
HETATM    2  C7  UNL     1      23.600  -0.921  54.308  1.00  0.00     0.012 A 
HETATM    3  C8  UNL     1      22.251  -1.094  54.543  1.00  0.00     0.002 A 
HETATM    4  C9  UNL     1      21.346  -0.158  54.055  1.00  0.00     0.018 A 
HETATM    5  C10 UNL     1      21.880   0.906  53.348  1.00  0.00     0.041 A 
HETATM    6  C11 UNL     1      23.220   1.123  53.086  1.00  0.00    -0.009 A 
HETATM    7  C12 UNL     1      23.442   2.335  52.329  1.00  0.00     0.122 A 
HETATM    8  C13 UNL     1      23.925   2.239  50.931  1.00  0.00     0.032 C 
HETATM    9  C14 UNL     1      23.302   3.477  50.261  1.00  0.00     0.022 C 
HETATM   10  C15 UNL     1      22.383   4.003  51.344  1.00  0.00     0.127 C 
HETATM   11  N4  UNL     1      22.071   2.829  52.126  1.00  0.00    -0.339 N 
HETATM   12  C16 UNL     1      21.099   1.999  52.737  1.00  0.00     0.255 A 
HETATM   13  O1  UNL     1      19.872   2.269  52.684  1.00  0.00    -0.267 OA
ENDROOT
BRANCH   1  14
HETATM   14  C1  UNL     1      25.567   0.243  53.403  1.00  0.00     0.350 C 
BRANCH  14  15
HETATM   15  N1  UNL     1      25.992  -0.401  52.162  1.00  0.00    -0.399 N 
HETATM   16  H1  UNL     1      25.566  -1.317  51.992  1.00  0.00     0.152 HD
HETATM   17  H2  UNL     1      26.102   0.233  51.369  1.00  0.00     0.152 HD
ENDBRANCH  14  15
BRANCH  14  18
HETATM   18  N2  UNL     1      26.293  -0.474  54.435  1.00  0.00     0.138 N 
HETATM   19  H4  UNL     1      26.677  -1.358  54.036  1.00  0.00     0.322 HD
BRANCH  18  20
HETATM   20  C2  UNL     1      27.411   0.337  54.852  1.00  0.00     0.367 A 
HETATM   21  C3  UNL     1      28.730  -0.221  54.479  1.00  0.00     0.033 A 
HETATM   22  C4  UNL     1      29.406   0.670  53.736  1.00  0.00     0.019 A 
HETATM   23  C5  UNL     1      28.544   1.829  53.606  1.00  0.00     0.113 A 
HETATM   24  N3  UNL     1      27.432   1.633  54.233  1.00  0.00    -0.262 NA
ENDBRANCH  18  20
ENDBRANCH  14  18
ENDBRANCH   1  14
TORSDOF 4
ENDMDL
MODEL 3
REMARK VINA RESULT:      -7.5      2.824      6.278
REMARK  4 active torsions:
REMARK  status: ('A' for Active; 'I' for Inactive)
REMARK    1  A    between atoms: N1_1  and  C1_2 
REMARK    2  A    between atoms: C1_2  and  N2_3 
REMARK    3  A    between atoms: C1_2  and  C6_9 
REMARK    4  A    between atoms: N2_3  and  C2_4 
ROOT
HETATM    1  C6  UNL     1      24.096   0.299  53.008  1.00  0.00     0.003 A 
HETATM    2  C7  UNL     1      25.006  -0.698  53.312  1.00  0.00     0.012 A 
HETATM    3  C8  UNL     1      26.323  -0.646  52.903  1.00  0.00     0.002 A 
HETATM    4  C9  UNL     1      26.767   0.440  52.159  1.00  0.00     0.018 A 
HETATM    5  C10 UNL     1      25.829   1.418  51.875  1.00  0.00     0.041 A 
HETATM    6  C11 UNL     1      24.500   1.413  52.260  1.00  0.00    -0.009 A 
HETATM    7  C12 UNL     1      23.788   2.581  51.793  1.00  0.00     0.122 A 
HETATM    8  C13 UNL     1      23.321   3.588  52.775  1.00  0.00     0.032 C 
HETATM    9  C14 UNL     1      23.379   4.904  51.979  1.00  0.00     0.022 C 
HETATM   10  C15 UNL     1      24.065   4.478  50.698  1.00  0.00     0.127 C 
HETATM   11  N4  UNL     1      24.846   3.329  51.095  1.00  0.00    -0.339 N 
HETATM   12  C16 UNL     1      26.090   2.654  51.112  1.00  0.00     0.255 A 
HETATM   13  O1  UNL     1      27.110   3.131  50.552  1.00  0.00    -0.267 OA
ENDROOT
BRANCH   1  14
HETATM   14  C1  UNL     1      22.703   0.140  53.498  1.00  0.00     0.350 C 
BRANCH  14  15
HETATM   15  N1  UNL     1      22.602  -0.889  54.531  1.00  0.00    -0.399 N 
HETATM   16  H1  UNL     1      21.812  -1.530  54.416  1.00  0.00     0.152 HD
HETATM   17  H2  UNL     1      23.497  -1.279  54.833  1.00  0.00     0.152 HD
ENDBRANCH  14  15
BRANCH  14  18
HETATM   18  N2  UNL     1      21.810  -0.326  52.453  1.00  0.00     0.138 N 
HETATM   19  H4  UNL     1      21.672  -1.356  52.550  1.00  0.00     0.322 HD
BRANCH  18  20
HETATM   20  C2  UNL     1      20.525   0.303  52.640  1.00  0.00     0.367 A 
HETATM   21  C3  UNL     1      19.749   0.467  51.390  1.00  0.00     0.033 A 
HETATM   22  C4  UNL     1      18.559  -0.142  51.512  1.00  0.00     0.019 A 
HETATM   23  C5  UNL     1      18.530  -0.717  52.842  1.00  0.00     0.113 A 
HETATM   24  N3  UNL     1      19.633  -0.463  53.465  1.00  0.00    -0.262 NA
ENDBRANCH  18  20
ENDBRANCH  14  18
ENDBRANCH   1  14
TORSDOF 4
ENDMDL
MODEL 4
REMARK VINA RESULT:      -7.5      2.749      6.268
REMARK  4 active torsions:
REMARK  status: ('A' for Active; 'I' for Inactive)
REMARK    1  A    between atoms: N1_1  and  C1_2 
REMARK    2  A    between atoms: C1_2  and  N2_3 
REMARK    3  A    between atoms: C1_2  and  C6_9 
REMARK    4  A    between atoms: N2_3  and  C2_4 
ROOT
HETATM    1  C6  UNL     1      22.106   0.732  53.030  1.00  0.00     0.003 A 
HETATM    2  C7  UNL     1      21.332   0.100  53.987  1.00  0.00     0.012 A 
HETATM    3  C8  UNL     1      21.864  -0.789  54.900  1.00  0.00     0.002 A 
HETATM    4  C9  UNL     1      23.225  -1.069  54.870  1.00  0.00     0.018 A 
HETATM    5  C10 UNL     1      23.967  -0.416  53.900  1.00  0.00     0.041 A 
HETATM    6  C11 UNL     1      23.483   0.480  52.965  1.00  0.00    -0.009 A 
HETATM    7  C12 UNL     1      24.522   0.974  52.089  1.00  0.00     0.122 A 
HETATM    8  C13 UNL     1      24.931   2.397  52.178  1.00  0.00     0.032 C 
HETATM    9  C14 UNL     1      26.419   2.357  51.787  1.00  0.00     0.022 C 
HETATM   10  C15 UNL     1      26.696   0.869  51.717  1.00  0.00     0.127 C 
HETATM   11  N4  UNL     1      25.718   0.298  52.615  1.00  0.00    -0.339 N 
HETATM   12  C16 UNL     1      25.423  -0.561  53.701  1.00  0.00     0.255 A 
HETATM   13  O1  UNL     1      26.316  -1.237  54.272  1.00  0.00    -0.267 OA
ENDROOT
BRANCH   1  14
HETATM   14  C1  UNL     1      21.430   1.669  52.098  1.00  0.00     0.350 C 
BRANCH  14  15
HETATM   15  N1  UNL     1      20.177   2.179  52.652  1.00  0.00    -0.399 N 
HETATM   16  H1  UNL     1      20.285   2.732  53.507  1.00  0.00     0.152 HD
HETATM   17  H2  UNL     1      19.502   2.499  51.955  1.00  0.00     0.152 HD
ENDBRANCH  14  15
BRANCH  14  18
HETATM   18  N2  UNL     1      21.025   1.013  50.868  1.00  0.00     0.138 N 
HETATM   19  H4  UNL     1      20.037   0.689  50.957  1.00  0.00     0.322 HD
BRANCH  18  20
HETATM   20  C2  UNL     1      21.070   1.982  49.800  1.00  0.00     0.367 A 
HETATM   21  C3  UNL     1      22.236   2.891  49.863  1.00  0.00     0.033 A 
HETATM   22  C4  UNL     1      22.939   2.808  48.722  1.00  0.00     0.019 A 
HETATM   23  C5  UNL     1      22.250   1.842  47.889  1.00  0.00     0.113 A 
HETATM   24  N3  UNL     1      21.206   1.386  48.500  1.00  0.00    -0.262 NA
ENDBRANCH  18  20
ENDBRANCH  14  18
ENDBRANCH   1  14
TORSDOF 4
ENDMDL
MODEL 5
REMARK VINA RESULT:      -7.4      2.048      3.860
REMARK  4 active torsions:
REMARK  status: ('A' for Active; 'I' for Inactive)
REMARK    1  A    between atoms: N1_1  and  C1_2 
REMARK    2  A    between atoms: C1_2  and  N2_3 
REMARK    3  A    between atoms: C1_2  and  C6_9 
REMARK    4  A    between atoms: N2_3  and  C2_4 
ROOT
HETATM    1  C6  UNL     1      24.076   2.037  52.514  1.00  0.00     0.003 A 
HETATM    2  C7  UNL     1      23.864   0.769  53.026  1.00  0.00     0.012 A 
HETATM    3  C8  UNL     1      22.601   0.283  53.296  1.00  0.00     0.002 A 
HETATM    4  C9  UNL     1      21.491   1.083  53.050  1.00  0.00     0.018 A 
HETATM    5  C10 UNL     1      21.743   2.345  52.537  1.00  0.00     0.041 A 
HETATM    6  C11 UNL     1      22.987   2.877  52.250  1.00  0.00    -0.009 A 
HETATM    7  C12 UNL     1      22.901   4.225  51.734  1.00  0.00     0.122 A 
HETATM    8  C13 UNL     1      23.262   4.486  50.319  1.00  0.00     0.032 C 
HETATM    9  C14 UNL     1      22.353   5.668  49.940  1.00  0.00     0.022 C 
HETATM   10  C15 UNL     1      21.454   5.789  51.153  1.00  0.00     0.127 C 
HETATM   11  N4  UNL     1      21.447   4.454  51.706  1.00  0.00    -0.339 N 
HETATM   12  C16 UNL     1      20.714   3.346  52.195  1.00  0.00     0.255 A 
HETATM   13  O1  UNL     1      19.458   3.361  52.263  1.00  0.00    -0.267 OA
ENDROOT
BRANCH   1  14
HETATM   14  C1  UNL     1      25.478   2.458  52.261  1.00  0.00     0.350 C 
BRANCH  14  15
HETATM   15  N1  UNL     1      26.181   1.518  51.390  1.00  0.00    -0.399 N 
HETATM   16  H1  UNL     1      25.592   0.773  51.006  1.00  0.00     0.152 HD
HETATM   17  H2  UNL     1      26.877   1.944  50.776  1.00  0.00     0.152 HD
ENDBRANCH  14  15
BRANCH  14  18
HETATM   18  N2  UNL     1      26.270   2.465  53.477  1.00  0.00     0.138 N 
HETATM   19  H4  UNL     1      25.745   1.976  54.235  1.00  0.00     0.322 HD
BRANCH  18  20
HETATM   20  C2  UNL     1      27.480   1.718  53.236  1.00  0.00     0.367 A 
HETATM   21  C3  UNL     1      28.712   2.414  53.671  1.00  0.00     0.033 A 
HETATM   22  C4  UNL     1      29.380   1.648  54.548  1.00  0.00     0.019 A 
HETATM   23  C5  UNL     1      28.600   0.435  54.706  1.00  0.00     0.113 A 
HETATM   24  N3  UNL     1      27.541   0.484  53.969  1.00  0.00    -0.262 NA
ENDBRANCH  18  20
ENDBRANCH  14  18
ENDBRANCH   1  14
TORSDOF 4
ENDMDL
MODEL 6
REMARK VINA RESULT:      -7.4      2.627      4.923
REMARK  4 active torsions:
REMARK  status: ('A' for Active; 'I' for Inactive)
REMARK    1  A    between atoms: N1_1  and  C1_2 
REMARK    2  A    between atoms: C1_2  and  N2_3 
REMARK    3  A    between atoms: C1_2  and  C6_9 
REMARK    4  A    between atoms: N2_3  and  C2_4 
ROOT
HETATM    1  C6  UNL     1      24.761   1.346  52.936  1.00  0.00     0.003 A 
HETATM    2  C7  UNL     1      25.944   0.893  53.492  1.00  0.00     0.012 A 
HETATM    3  C8  UNL     1      25.995  -0.200  54.335  1.00  0.00     0.002 A 
HETATM    4  C9  UNL     1      24.823  -0.880  54.646  1.00  0.00     0.018 A 
HETATM    5  C10 UNL     1      23.660  -0.398  54.069  1.00  0.00     0.041 A 
HETATM    6  C11 UNL     1      23.556   0.689  53.221  1.00  0.00    -0.009 A 
HETATM    7  C12 UNL     1      22.194   0.933  52.803  1.00  0.00     0.122 A 
HETATM    8  C13 UNL     1      21.817   0.706  51.387  1.00  0.00     0.032 C 
HETATM    9  C14 UNL     1      20.341   0.281  51.483  1.00  0.00     0.022 C 
HETATM   10  C15 UNL     1      20.141   0.139  52.978  1.00  0.00     0.127 C 
HETATM   11  N4  UNL     1      21.466  -0.157  53.472  1.00  0.00    -0.339 N 
HETATM   12  C16 UNL     1      22.314  -0.976  54.257  1.00  0.00     0.255 A 
HETATM   13  O1  UNL     1      21.869  -1.950  54.916  1.00  0.00    -0.267 OA
ENDROOT
BRANCH   1  14
HETATM   14  C1  UNL     1      24.823   2.530  52.043  1.00  0.00     0.350 C 
BRANCH  14  15
HETATM   15  N1  UNL     1      26.198   2.868  51.680  1.00  0.00    -0.399 N 
HETATM   16  H1  UNL     1      26.310   3.218  50.724  1.00  0.00     0.152 HD
HETATM   17  H2  UNL     1      26.737   3.317  52.423  1.00  0.00     0.152 HD
ENDBRANCH  14  15
BRANCH  14  18
HETATM   18  N2  UNL     1      24.330   3.729  52.697  1.00  0.00     0.138 N 
HETATM   19  H4  UNL     1      25.128   4.376  52.880  1.00  0.00     0.322 HD
BRANCH  18  20
HETATM   20  C2  UNL     1      23.425   4.399  51.795  1.00  0.00     0.367 A 
HETATM   21  C3  UNL     1      23.750   5.825  51.568  1.00  0.00     0.033 A 
HETATM   22  C4  UNL     1      23.930   6.047  50.256  1.00  0.00     0.019 A 
HETATM   23  C5  UNL     1      23.727   4.771  49.597  1.00  0.00     0.113 A 
HETATM   24  N3  UNL     1      23.446   3.857  50.465  1.00  0.00    -0.262 NA
ENDBRANCH  18  20
ENDBRANCH  14  18
ENDBRANCH   1  14
TORSDOF 4
ENDMDL
MODEL 7
REMARK VINA RESULT:      -7.3      1.831      3.724
REMARK  4 active torsions:
REMARK  status: ('A' for Active; 'I' for Inactive)
REMARK    1  A    between atoms: N1_1  and  C1_2 
REMARK    2  A    between atoms: C1_2  and  N2_3 
REMARK    3  A    between atoms: C1_2  and  C6_9 
REMARK    4  A    between atoms: N2_3  and  C2_4 
ROOT
HETATM    1  C6  UNL     1      24.235   0.566  53.220  1.00  0.00     0.003 A 
HETATM    2  C7  UNL     1      23.081  -0.048  53.674  1.00  0.00     0.012 A 
HETATM    3  C8  UNL     1      21.821   0.419  53.357  1.00  0.00     0.002 A 
HETATM    4  C9  UNL     1      21.690   1.545  52.553  1.00  0.00     0.018 A 
HETATM    5  C10 UNL     1      22.866   2.131  52.117  1.00  0.00     0.041 A 
HETATM    6  C11 UNL     1      24.149   1.704  52.406  1.00  0.00    -0.009 A 
HETATM    7  C12 UNL     1      25.157   2.545  51.801  1.00  0.00     0.122 A 
HETATM    8  C13 UNL     1      25.997   2.000  50.707  1.00  0.00     0.032 C 
HETATM    9  C14 UNL     1      26.299   3.241  49.849  1.00  0.00     0.022 C 
HETATM   10  C15 UNL     1      25.416   4.296  50.482  1.00  0.00     0.127 C 
HETATM   11  N4  UNL     1      24.342   3.531  51.074  1.00  0.00    -0.339 N 
HETATM   12  C16 UNL     1      22.953   3.323  51.250  1.00  0.00     0.255 A 
HETATM   13  O1  UNL     1      22.098   4.076  50.718  1.00  0.00    -0.267 OA
ENDROOT
BRANCH   1  14
HETATM   14  C1  UNL     1      25.538  -0.020  53.623  1.00  0.00     0.350 C 
BRANCH  14  15
HETATM   15  N1  UNL     1      25.384  -1.012  54.686  1.00  0.00    -0.399 N 
HETATM   16  H1  UNL     1      25.285  -0.615  55.625  1.00  0.00     0.152 HD
HETATM   17  H2  UNL     1      24.803  -1.815  54.439  1.00  0.00     0.152 HD
ENDBRANCH  14  15
BRANCH  14  18
HETATM   18  N2  UNL     1      26.425   0.973  54.199  1.00  0.00     0.138 N 
HETATM   19  H4  UNL     1      26.518   0.801  55.224  1.00  0.00     0.322 HD
BRANCH  18  20
HETATM   20  C2  UNL     1      27.733   0.810  53.611  1.00  0.00     0.367 A 
HETATM   21  C3  UNL     1      28.819   0.635  54.600  1.00  0.00     0.033 A 
HETATM   22  C4  UNL     1      29.464  -0.519  54.367  1.00  0.00     0.019 A 
HETATM   23  C5  UNL     1      28.814  -1.124  53.220  1.00  0.00     0.113 A 
HETATM   24  N3  UNL     1      27.848  -0.373  52.805  1.00  0.00    -0.262 NA
ENDBRANCH  18  20
ENDBRANCH  14  18
ENDBRANCH   1  14
TORSDOF 4
ENDMDL
MODEL 8
REMARK VINA RESULT:      -7.1      3.134      5.779
REMARK  4 active torsions:
REMARK  status: ('A' for Active; 'I' for Inactive)
REMARK    1  A    between atoms: N1_1  and  C1_2 
REMARK    2  A    between atoms: C1_2  and  N2_3 
REMARK    3  A    between atoms: C1_2  and  C6_9 
REMARK    4  A    between atoms: N2_3  and  C2_4 
ROOT
HETATM    1  C6  UNL     1      24.225   2.137  51.453  1.00  0.00     0.003 A 
HETATM    2  C7  UNL     1      25.415   2.510  50.853  1.00  0.00     0.012 A 
HETATM    3  C8  UNL     1      26.624   1.932  51.185  1.00  0.00     0.002 A 
HETATM    4  C9  UNL     1      26.664   0.937  52.155  1.00  0.00     0.018 A 
HETATM    5  C10 UNL     1      25.454   0.590  52.732  1.00  0.00     0.041 A 
HETATM    6  C11 UNL     1      24.219   1.138  52.435  1.00  0.00    -0.009 A 
HETATM    7  C12 UNL     1      23.157   0.558  53.226  1.00  0.00     0.122 A 
HETATM    8  C13 UNL     1      22.136  -0.288  52.562  1.00  0.00     0.032 C 
HETATM    9  C14 UNL     1      21.743  -1.289  53.662  1.00  0.00     0.022 C 
HETATM   10  C15 UNL     1      22.752  -0.986  54.751  1.00  0.00     0.127 C 
HETATM   11  N4  UNL     1      23.879  -0.441  54.030  1.00  0.00    -0.339 N 
HETATM   12  C16 UNL     1      25.271  -0.444  53.769  1.00  0.00     0.255 A 
HETATM   13  O1  UNL     1      26.055  -1.220  54.373  1.00  0.00    -0.267 OA
ENDROOT
BRANCH   1  14
HETATM   14  C1  UNL     1      22.984   2.826  51.019  1.00  0.00     0.350 C 
BRANCH  14  15
HETATM   15  N1  UNL     1      22.252   2.052  50.018  1.00  0.00    -0.399 N 
HETATM   16  H1  UNL     1      22.208   2.489  49.093  1.00  0.00     0.152 HD
HETATM   17  H2  UNL     1      22.401   1.043  50.067  1.00  0.00     0.152 HD
ENDBRANCH  14  15
BRANCH  14  18
HETATM   18  N2  UNL     1      23.266   4.083  50.350  1.00  0.00     0.138 N 
HETATM   19  H4  UNL     1      22.636   4.184  49.524  1.00  0.00     0.322 HD
BRANCH  18  20
HETATM   20  C2  UNL     1      22.965   5.160  51.261  1.00  0.00     0.367 A 
HETATM   21  C3  UNL     1      23.837   6.345  51.100  1.00  0.00     0.033 A 
HETATM   22  C4  UNL     1      23.087   7.430  50.852  1.00  0.00     0.019 A 
HETATM   23  C5  UNL     1      21.708   6.980  50.844  1.00  0.00     0.113 A 
HETATM   24  N3  UNL     1      21.651   5.710  51.074  1.00  0.00    -0.262 NA
ENDBRANCH  18  20
ENDBRANCH  14  18
ENDBRANCH   1  14
TORSDOF 4
ENDMDL
MODEL 9
REMARK VINA RESULT:      -7.1      2.500      3.033
REMARK  4 active torsions:
REMARK  status: ('A' for Active; 'I' for Inactive)
REMARK    1  A    between atoms: N1_1  and  C1_2 
REMARK    2  A    between atoms: C1_2  and  N2_3 
REMARK    3  A    between atoms: C1_2  and  C6_9 
REMARK    4  A    between atoms: N2_3  and  C2_4 
ROOT
HETATM    1  C6  UNL     1      24.274   2.815  51.638  1.00  0.00     0.003 A 
HETATM    2  C7  UNL     1      25.100   3.533  50.792  1.00  0.00     0.012 A 
HETATM    3  C8  UNL     1      24.854   3.646  49.438  1.00  0.00     0.002 A 
HETATM    4  C9  UNL     1      23.740   3.021  48.890  1.00  0.00     0.018 A 
HETATM    5  C10 UNL     1      22.936   2.313  49.768  1.00  0.00     0.041 A 
HETATM    6  C11 UNL     1      23.139   2.170  51.129  1.00  0.00    -0.009 A 
HETATM    7  C12 UNL     1      22.120   1.359  51.754  1.00  0.00     0.122 A 
HETATM    8  C13 UNL     1      21.163   1.991  52.694  1.00  0.00     0.032 C 
HETATM    9  C14 UNL     1      19.886   1.153  52.509  1.00  0.00     0.022 C 
HETATM   10  C15 UNL     1      20.246   0.270  51.332  1.00  0.00     0.127 C 
HETATM   11  N4  UNL     1      21.239   1.040  50.619  1.00  0.00    -0.339 N 
HETATM   12  C16 UNL     1      21.705   1.588  49.399  1.00  0.00     0.255 A 
HETATM   13  O1  UNL     1      21.092   1.408  48.316  1.00  0.00    -0.267 OA
ENDROOT
BRANCH   1  14
HETATM   14  C1  UNL     1      24.635   2.759  53.077  1.00  0.00     0.350 C 
BRANCH  14  15
HETATM   15  N1  UNL     1      24.443   4.049  53.738  1.00  0.00    -0.399 N 
HETATM   16  H1  UNL     1      24.875   4.120  54.664  1.00  0.00     0.152 HD
HETATM   17  H2  UNL     1      24.499   4.859  53.117  1.00  0.00     0.152 HD
ENDBRANCH  14  15
BRANCH  14  18
HETATM   18  N2  UNL     1      26.045   2.474  53.273  1.00  0.00     0.138 N 
HETATM   19  H4  UNL     1      26.413   3.067  54.049  1.00  0.00     0.322 HD
BRANCH  18  20
HETATM   20  C2  UNL     1      26.178   1.096  53.678  1.00  0.00     0.367 A 
HETATM   21  C3  UNL     1      26.811   0.229  52.659  1.00  0.00     0.033 A 
HETATM   22  C4  UNL     1      27.900  -0.361  53.179  1.00  0.00     0.019 A 
HETATM   23  C5  UNL     1      28.002   0.106  54.547  1.00  0.00     0.113 A 
HETATM   24  N3  UNL     1      27.035   0.920  54.817  1.00  0.00    -0.262 NA
ENDBRANCH  18  20
ENDBRANCH  14  18
ENDBRANCH   1  14
TORSDOF 4
ENDMDL
