MODEL 1
REMARK VINA RESULT:      -7.5      0.000      0.000
REMARK  6 active torsions:
REMARK  status: ('A' for Active; 'I' for Inactive)
REMARK    1  A    between atoms: C2_2  and  C3_3 
REMARK    2  A    between atoms: C2_2  and  C7_7 
REMARK    3  A    between atoms: C4_4  and  C5_5 
REMARK    4  A    between atoms: C8_8  and  S1_9 
REMARK    5  A    between atoms: S1_9  and  C9_10 
REMARK    6  A    between atoms: C10_12  and  C11_13 
ROOT
HETATM    1  C9  UNL     1      23.925   4.089  51.562  1.00  0.00     0.409 C 
HETATM    2  N1  UNL     1      24.752   3.279  52.428  1.00  0.00    -0.246 NA
HETATM    3  C10 UNL     1      25.615   2.614  51.779  1.00  0.00     0.070 C 
HETATM    4  C19 UNL     1      25.424   2.943  50.321  1.00  0.00     0.333 C 
HETATM    5  N2  UNL     1      24.116   3.562  50.250  1.00  0.00     0.124 N 
HETATM    6  H24 UNL     1      24.038   4.268  49.487  1.00  0.00     0.320 HD
ENDROOT
BRANCH   1   7
HETATM    7  S1  UNL     1      22.191   4.081  52.082  1.00  0.00    -0.084 SA
BRANCH   7   8
HETATM    8  C8  UNL     1      21.724   2.335  52.175  1.00  0.00     0.045 C 
HETATM    9  C7  UNL     1      22.113   1.180  52.714  1.00  0.00    -0.012 C 
BRANCH   9  10
HETATM   10  C2  UNL     1      21.387  -0.104  52.521  1.00  0.00     0.027 C 
HETATM   11  C1  UNL     1      20.056   0.241  51.871  1.00  0.00     0.018 C 
BRANCH  10  12
HETATM   12  C3  UNL     1      21.148  -0.814  53.790  1.00  0.00    -0.019 C 
HETATM   13  C4  UNL     1      21.763  -1.340  54.831  1.00  0.00    -0.007 C 
BRANCH  13  14
HETATM   14  C5  UNL     1      23.130  -1.498  55.294  1.00  0.00    -0.027 C 
HETATM   15  C6  UNL     1      24.280  -0.907  54.965  1.00  0.00     0.031 C 
ENDBRANCH  13  14
ENDBRANCH  10  12
ENDBRANCH   9  10
ENDBRANCH   7   8
ENDBRANCH   1   7
BRANCH   3  16
HETATM   16  C11 UNL     1      26.612   1.699  52.294  1.00  0.00    -0.009 A 
HETATM   17  C12 UNL     1      27.781   2.101  52.909  1.00  0.00     0.014 A 
HETATM   18  C13 UNL     1      28.668   1.118  53.365  1.00  0.00     0.008 A 
HETATM   19  C14 UNL     1      28.408  -0.228  53.219  1.00  0.00    -0.056 A 
HETATM   20  C15 UNL     1      29.378  -1.233  53.720  1.00  0.00     0.049 C 
HETATM   21  C16 UNL     1      27.248  -0.657  52.610  1.00  0.00    -0.055 A 
HETATM   22  C17 UNL     1      26.921  -2.095  52.428  1.00  0.00     0.049 C 
HETATM   23  C18 UNL     1      26.401   0.341  52.174  1.00  0.00     0.020 A 
ENDBRANCH   3  16
TORSDOF 6
ENDMDL
MODEL 2
REMARK VINA RESULT:      -7.5      1.504      5.956
REMARK  6 active torsions:
REMARK  status: ('A' for Active; 'I' for Inactive)
REMARK    1  A    between atoms: C2_2  and  C3_3 
REMARK    2  A    between atoms: C2_2  and  C7_7 
REMARK    3  A    between atoms: C4_4  and  C5_5 
REMARK    4  A    between atoms: C8_8  and  S1_9 
REMARK    5  A    between atoms: S1_9  and  C9_10 
REMARK    6  A    between atoms: C10_12  and  C11_13 
ROOT
HETATM    1  C9  UNL     1      24.654   3.337  50.831  1.00  0.00     0.409 C 
HETATM    2  N1  UNL     1      23.792   2.186  50.976  1.00  0.00    -0.246 NA
HETATM    3  C10 UNL     1      22.842   2.401  51.789  1.00  0.00     0.070 C 
HETATM    4  C19 UNL     1      23.001   3.811  52.296  1.00  0.00     0.333 C 
HETATM    5  N2  UNL     1      24.358   4.178  51.946  1.00  0.00     0.124 N 
HETATM    6  H24 UNL     1      24.471   5.197  51.758  1.00  0.00     0.320 HD
ENDROOT
BRANCH   1   7
HETATM    7  S1  UNL     1      26.400   2.865  50.745  1.00  0.00    -0.084 SA
BRANCH   7   8
HETATM    8  C8  UNL     1      26.546   1.370  51.755  1.00  0.00     0.045 C 
HETATM    9  C7  UNL     1      26.602   0.044  51.649  1.00  0.00    -0.012 C 
BRANCH   9  10
HETATM   10  C2  UNL     1      26.732  -0.871  52.816  1.00  0.00     0.027 C 
HETATM   11  C1  UNL     1      25.796  -0.341  53.891  1.00  0.00     0.018 C 
BRANCH  10  12
HETATM   12  C3  UNL     1      28.108  -0.924  53.341  1.00  0.00    -0.019 C 
HETATM   13  C4  UNL     1      29.031  -0.203  53.945  1.00  0.00    -0.007 C 
BRANCH  13  14
HETATM   14  C5  UNL     1      29.162   1.152  54.451  1.00  0.00    -0.027 C 
HETATM   15  C6  UNL     1      29.069   2.355  53.880  1.00  0.00     0.031 C 
ENDBRANCH  13  14
ENDBRANCH  10  12
ENDBRANCH   9  10
ENDBRANCH   7   8
ENDBRANCH   1   7
BRANCH   3  16
HETATM   16  C11 UNL     1      21.785   1.495  52.188  1.00  0.00    -0.009 A 
HETATM   17  C12 UNL     1      20.482   1.588  51.741  1.00  0.00     0.014 A 
HETATM   18  C13 UNL     1      19.549   0.650  52.202  1.00  0.00     0.008 A 
HETATM   19  C14 UNL     1      19.893  -0.354  53.081  1.00  0.00    -0.056 A 
HETATM   20  C15 UNL     1      18.869  -1.325  53.541  1.00  0.00     0.049 C 
HETATM   21  C16 UNL     1      21.186  -0.471  53.543  1.00  0.00    -0.055 A 
HETATM   22  C17 UNL     1      21.608  -1.535  54.491  1.00  0.00     0.049 C 
HETATM   23  C18 UNL     1      22.075   0.471  53.066  1.00  0.00     0.020 A 
ENDBRANCH   3  16
TORSDOF 6
ENDMDL
MODEL 3
REMARK VINA RESULT:      -7.5      2.406      6.526
REMARK  6 active torsions:
REMARK  status: ('A' for Active; 'I' for Inactive)
REMARK    1  A    between atoms: C2_2  and  C3_3 
REMARK    2  A    between atoms: C2_2  and  C7_7 
REMARK    3  A    between atoms: C4_4  and  C5_5 
REMARK    4  A    between atoms: C8_8  and  S1_9 
REMARK    5  A    between atoms: S1_9  and  C9_10 
REMARK    6  A    between atoms: C10_12  and  C11_13 
ROOT
HETATM    1  C9  UNL     1      26.070   0.566  53.941  1.00  0.00     0.409 C 
HETATM    2  N1  UNL     1      24.800   0.812  53.298  1.00  0.00    -0.246 NA
HETATM    3  C10 UNL     1      23.898   0.018  53.703  1.00  0.00     0.070 C 
HETATM    4  C19 UNL     1      24.533  -0.894  54.720  1.00  0.00     0.333 C 
HETATM    5  N2  UNL     1      25.959  -0.734  54.520  1.00  0.00     0.124 N 
HETATM    6  H24 UNL     1      26.512  -0.863  55.395  1.00  0.00     0.320 HD
ENDROOT
BRANCH   1   7
HETATM    7  S1  UNL     1      27.453   0.707  52.781  1.00  0.00    -0.084 SA
BRANCH   7   8
HETATM    8  C8  UNL     1      26.807   1.641  51.371  1.00  0.00     0.045 C 
HETATM    9  C7  UNL     1      26.485   2.880  51.003  1.00  0.00    -0.012 C 
BRANCH   9  10
HETATM   10  C2  UNL     1      25.952   3.226  49.658  1.00  0.00     0.027 C 
HETATM   11  C1  UNL     1      26.359   4.666  49.387  1.00  0.00     0.018 C 
BRANCH  10  12
HETATM   12  C3  UNL     1      24.486   3.103  49.582  1.00  0.00    -0.019 C 
HETATM   13  C4  UNL     1      23.374   3.378  50.234  1.00  0.00    -0.007 C 
BRANCH  13  14
HETATM   14  C5  UNL     1      23.001   4.009  51.487  1.00  0.00    -0.027 C 
HETATM   15  C6  UNL     1      23.640   4.192  52.644  1.00  0.00     0.031 C 
ENDBRANCH  13  14
ENDBRANCH  10  12
ENDBRANCH   9  10
ENDBRANCH   7   8
ENDBRANCH   1   7
BRANCH   3  16
HETATM   16  C11 UNL     1      22.510  -0.043  53.294  1.00  0.00    -0.009 A 
HETATM   17  C12 UNL     1      21.495  -0.545  54.084  1.00  0.00     0.014 A 
HETATM   18  C13 UNL     1      20.191  -0.550  53.573  1.00  0.00     0.008 A 
HETATM   19  C14 UNL     1      19.895  -0.070  52.316  1.00  0.00    -0.056 A 
HETATM   20  C15 UNL     1      18.496  -0.096  51.819  1.00  0.00     0.049 C 
HETATM   21  C16 UNL     1      20.888   0.437  51.505  1.00  0.00    -0.055 A 
HETATM   22  C17 UNL     1      20.621   0.966  50.142  1.00  0.00     0.049 C 
HETATM   23  C18 UNL     1      22.158   0.424  52.044  1.00  0.00     0.020 A 
ENDBRANCH   3  16
TORSDOF 6
ENDMDL
MODEL 4
REMARK VINA RESULT:      -7.4      1.970      4.935
REMARK  6 active torsions:
REMARK  status: ('A' for Active; 'I' for Inactive)
REMARK    1  A    between atoms: C2_2  and  C3_3 
REMARK    2  A    between atoms: C2_2  and  C7_7 
REMARK    3  A    between atoms: C4_4  and  C5_5 
REMARK    4  A    between atoms: C8_8  and  S1_9 
REMARK    5  A    between atoms: S1_9  and  C9_10 
REMARK    6  A    between atoms: C10_12  and  C11_13 
ROOT
HETATM    1  C9  UNL     1      22.336   1.352  52.085  1.00  0.00     0.409 C 
HETATM    2  N1  UNL     1      23.779   1.410  52.027  1.00  0.00    -0.246 NA
HETATM    3  C10 UNL     1      24.323   0.503  52.727  1.00  0.00     0.070 C 
HETATM    4  C19 UNL     1      23.211  -0.294  53.360  1.00  0.00     0.333 C 
HETATM    5  N2  UNL     1      22.033   0.535  53.216  1.00  0.00     0.124 N 
HETATM    6  H24 UNL     1      21.153  -0.016  53.124  1.00  0.00     0.320 HD
ENDROOT
BRANCH   1   7
HETATM    7  S1  UNL     1      21.596   3.001  52.184  1.00  0.00    -0.084 SA
BRANCH   7   8
HETATM    8  C8  UNL     1      22.301   3.930  50.799  1.00  0.00     0.045 C 
HETATM    9  C7  UNL     1      23.202   4.873  50.530  1.00  0.00    -0.012 C 
BRANCH   9  10
HETATM   10  C2  UNL     1      23.482   5.376  49.157  1.00  0.00     0.027 C 
HETATM   11  C1  UNL     1      23.146   4.242  48.201  1.00  0.00     0.018 C 
BRANCH  10  12
HETATM   12  C3  UNL     1      24.889   5.775  48.978  1.00  0.00    -0.019 C 
HETATM   13  C4  UNL     1      26.125   5.320  49.033  1.00  0.00    -0.007 C 
BRANCH  13  14
HETATM   14  C5  UNL     1      26.785   4.060  49.328  1.00  0.00    -0.027 C 
HETATM   15  C6  UNL     1      26.422   2.977  50.018  1.00  0.00     0.031 C 
ENDBRANCH  13  14
ENDBRANCH  10  12
ENDBRANCH   9  10
ENDBRANCH   7   8
ENDBRANCH   1   7
BRANCH   3  16
HETATM   16  C11 UNL     1      25.735   0.244  52.915  1.00  0.00    -0.009 A 
HETATM   17  C12 UNL     1      26.306  -1.010  52.832  1.00  0.00     0.014 A 
HETATM   18  C13 UNL     1      27.686  -1.131  53.035  1.00  0.00     0.008 A 
HETATM   19  C14 UNL     1      28.483  -0.042  53.314  1.00  0.00    -0.056 A 
HETATM   20  C15 UNL     1      29.942  -0.220  53.521  1.00  0.00     0.049 C 
HETATM   21  C16 UNL     1      27.940   1.222  53.404  1.00  0.00    -0.055 A 
HETATM   22  C17 UNL     1      28.756   2.428  53.701  1.00  0.00     0.049 C 
HETATM   23  C18 UNL     1      26.578   1.299  53.197  1.00  0.00     0.020 A 
ENDBRANCH   3  16
TORSDOF 6
ENDMDL
MODEL 5
REMARK VINA RESULT:      -7.3      0.836      1.657
REMARK  6 active torsions:
REMARK  status: ('A' for Active; 'I' for Inactive)
REMARK    1  A    between atoms: C2_2  and  C3_3 
REMARK    2  A    between atoms: C2_2  and  C7_7 
REMARK    3  A    between atoms: C4_4  and  C5_5 
REMARK    4  A    between atoms: C8_8  and  S1_9 
REMARK    5  A    between atoms: S1_9  and  C9_10 
REMARK    6  A    between atoms: C10_12  and  C11_13 
ROOT
HETATM    1  C9  UNL     1      23.402   4.079  52.076  1.00  0.00     0.409 C 
HETATM    2  N1  UNL     1      24.100   2.986  52.714  1.00  0.00    -0.246 NA
HETATM    3  C10 UNL     1      25.154   2.661  52.087  1.00  0.00     0.070 C 
HETATM    4  C19 UNL     1      25.256   3.572  50.891  1.00  0.00     0.333 C 
HETATM    5  N2  UNL     1      23.937   4.153  50.755  1.00  0.00     0.124 N 
HETATM    6  H24 UNL     1      23.953   5.114  50.352  1.00  0.00     0.320 HD
ENDROOT
BRANCH   1   7
HETATM    7  S1  UNL     1      21.607   3.840  52.100  1.00  0.00    -0.084 SA
BRANCH   7   8
HETATM    8  C8  UNL     1      21.359   2.093  52.505  1.00  0.00     0.045 C 
HETATM    9  C7  UNL     1      20.707   1.305  53.359  1.00  0.00    -0.012 C 
BRANCH   9  10
HETATM   10  C2  UNL     1      20.791  -0.181  53.335  1.00  0.00     0.027 C 
HETATM   11  C1  UNL     1      19.365  -0.695  53.214  1.00  0.00     0.018 C 
BRANCH  10  12
HETATM   12  C3  UNL     1      21.413  -0.730  54.553  1.00  0.00    -0.019 C 
HETATM   13  C4  UNL     1      22.578  -1.020  55.098  1.00  0.00    -0.007 C 
BRANCH  13  14
HETATM   14  C5  UNL     1      23.979  -0.929  54.729  1.00  0.00    -0.027 C 
HETATM   15  C6  UNL     1      25.113  -0.944  55.433  1.00  0.00     0.031 C 
ENDBRANCH  13  14
ENDBRANCH  10  12
ENDBRANCH   9  10
ENDBRANCH   7   8
ENDBRANCH   1   7
BRANCH   3  16
HETATM   16  C11 UNL     1      26.106   1.622  52.417  1.00  0.00    -0.009 A 
HETATM   17  C12 UNL     1      25.993   0.311  51.998  1.00  0.00     0.014 A 
HETATM   18  C13 UNL     1      26.981  -0.603  52.385  1.00  0.00     0.008 A 
HETATM   19  C14 UNL     1      28.055  -0.233  53.165  1.00  0.00    -0.056 A 
HETATM   20  C15 UNL     1      29.078  -1.238  53.549  1.00  0.00     0.049 C 
HETATM   21  C16 UNL     1      28.194   1.069  53.599  1.00  0.00    -0.055 A 
HETATM   22  C17 UNL     1      29.332   1.518  54.441  1.00  0.00     0.049 C 
HETATM   23  C18 UNL     1      27.200   1.938  53.196  1.00  0.00     0.020 A 
ENDBRANCH   3  16
TORSDOF 6
ENDMDL
MODEL 6
REMARK VINA RESULT:      -7.1      6.373      9.934
REMARK  6 active torsions:
REMARK  status: ('A' for Active; 'I' for Inactive)
REMARK    1  A    between atoms: C2_2  and  C3_3 
REMARK    2  A    between atoms: C2_2  and  C7_7 
REMARK    3  A    between atoms: C4_4  and  C5_5 
REMARK    4  A    between atoms: C8_8  and  S1_9 
REMARK    5  A    between atoms: S1_9  and  C9_10 
REMARK    6  A    between atoms: C10_12  and  C11_13 
ROOT
HETATM    1  C9  UNL     1      29.476   5.904  47.870  1.00  0.00     0.409 C 
HETATM    2  N1  UNL     1      28.690   4.872  48.508  1.00  0.00    -0.246 NA
HETATM    3  C10 UNL     1      27.490   5.235  48.698  1.00  0.00     0.070 C 
HETATM    4  C19 UNL     1      27.362   6.639  48.169  1.00  0.00     0.333 C 
HETATM    5  N2  UNL     1      28.726   7.107  48.029  1.00  0.00     0.124 N 
HETATM    6  H24 UNL     1      28.845   7.793  47.253  1.00  0.00     0.320 HD
ENDROOT
BRANCH   1   7
HETATM    7  S1  UNL     1      31.143   6.012  48.569  1.00  0.00    -0.084 SA
BRANCH   7   8
HETATM    8  C8  UNL     1      32.048   4.604  47.880  1.00  0.00     0.045 C 
HETATM    9  C7  UNL     1      31.931   3.634  46.974  1.00  0.00    -0.012 C 
BRANCH   9  10
HETATM   10  C2  UNL     1      32.988   2.619  46.714  1.00  0.00     0.027 C 
HETATM   11  C1  UNL     1      33.144   1.816  47.996  1.00  0.00     0.018 C 
BRANCH  10  12
HETATM   12  C3  UNL     1      34.279   3.229  46.352  1.00  0.00    -0.019 C 
HETATM   13  C4  UNL     1      34.846   4.062  45.501  1.00  0.00    -0.007 C 
BRANCH  13  14
HETATM   14  C5  UNL     1      34.432   4.883  44.378  1.00  0.00    -0.027 C 
HETATM   15  C6  UNL     1      33.471   4.760  43.460  1.00  0.00     0.031 C 
ENDBRANCH  13  14
ENDBRANCH  10  12
ENDBRANCH   9  10
ENDBRANCH   7   8
ENDBRANCH   1   7
BRANCH   3  16
HETATM   16  C11 UNL     1      26.413   4.480  49.305  1.00  0.00    -0.009 A 
HETATM   17  C12 UNL     1      25.075   4.770  49.129  1.00  0.00     0.014 A 
HETATM   18  C13 UNL     1      24.126   3.964  49.771  1.00  0.00     0.008 A 
HETATM   19  C14 UNL     1      24.489   2.899  50.567  1.00  0.00    -0.056 A 
HETATM   20  C15 UNL     1      23.446   2.074  51.227  1.00  0.00     0.049 C 
HETATM   21  C16 UNL     1      25.817   2.587  50.761  1.00  0.00    -0.055 A 
HETATM   22  C17 UNL     1      26.260   1.449  51.608  1.00  0.00     0.049 C 
HETATM   23  C18 UNL     1      26.720   3.403  50.111  1.00  0.00     0.020 A 
ENDBRANCH   3  16
TORSDOF 6
ENDMDL
MODEL 7
REMARK VINA RESULT:      -7.0      2.979      6.181
REMARK  6 active torsions:
REMARK  status: ('A' for Active; 'I' for Inactive)
REMARK    1  A    between atoms: C2_2  and  C3_3 
REMARK    2  A    between atoms: C2_2  and  C7_7 
REMARK    3  A    between atoms: C4_4  and  C5_5 
REMARK    4  A    between atoms: C8_8  and  S1_9 
REMARK    5  A    between atoms: S1_9  and  C9_10 
REMARK    6  A    between atoms: C10_12  and  C11_13 
ROOT
HETATM    1  C9  UNL     1      23.414   3.430  51.249  1.00  0.00     0.409 C 
HETATM    2  N1  UNL     1      24.790   3.009  51.379  1.00  0.00    -0.246 NA
HETATM    3  C10 UNL     1      24.916   2.026  52.170  1.00  0.00     0.070 C 
HETATM    4  C19 UNL     1      23.539   1.682  52.674  1.00  0.00     0.333 C 
HETATM    5  N2  UNL     1      22.729   2.839  52.353  1.00  0.00     0.124 N 
HETATM    6  H24 UNL     1      21.732   2.600  52.163  1.00  0.00     0.320 HD
ENDROOT
BRANCH   1   7
HETATM    7  S1  UNL     1      23.260   5.233  51.204  1.00  0.00    -0.084 SA
BRANCH   7   8
HETATM    8  C8  UNL     1      24.741   5.822  50.346  1.00  0.00     0.045 C 
HETATM    9  C7  UNL     1      25.231   6.006  49.122  1.00  0.00    -0.012 C 
BRANCH   9  10
HETATM   10  C2  UNL     1      26.589   6.552  48.851  1.00  0.00     0.027 C 
HETATM   11  C1  UNL     1      26.459   7.459  47.637  1.00  0.00     0.018 C 
BRANCH  10  12
HETATM   12  C3  UNL     1      27.578   5.496  48.577  1.00  0.00    -0.019 C 
HETATM   13  C4  UNL     1      28.832   5.297  48.222  1.00  0.00    -0.007 C 
BRANCH  13  14
HETATM   14  C5  UNL     1      29.987   6.112  47.891  1.00  0.00    -0.027 C 
HETATM   15  C6  UNL     1      30.822   6.855  48.620  1.00  0.00     0.031 C 
ENDBRANCH  13  14
ENDBRANCH  10  12
ENDBRANCH   9  10
ENDBRANCH   7   8
ENDBRANCH   1   7
BRANCH   3  16
HETATM   16  C11 UNL     1      26.130   1.333  52.549  1.00  0.00    -0.009 A 
HETATM   17  C12 UNL     1      27.256   1.963  53.040  1.00  0.00     0.014 A 
HETATM   18  C13 UNL     1      28.370   1.181  53.371  1.00  0.00     0.008 A 
HETATM   19  C14 UNL     1      28.372  -0.189  53.221  1.00  0.00    -0.056 A 
HETATM   20  C15 UNL     1      29.577  -0.976  53.586  1.00  0.00     0.049 C 
HETATM   21  C16 UNL     1      27.263  -0.845  52.733  1.00  0.00    -0.055 A 
HETATM   22  C17 UNL     1      27.215  -2.319  52.554  1.00  0.00     0.049 C 
HETATM   23  C18 UNL     1      26.187  -0.040  52.420  1.00  0.00     0.020 A 
ENDBRANCH   3  16
TORSDOF 6
ENDMDL
MODEL 8
REMARK VINA RESULT:      -7.0      2.534      4.737
REMARK  6 active torsions:
REMARK  status: ('A' for Active; 'I' for Inactive)
REMARK    1  A    between atoms: C2_2  and  C3_3 
REMARK    2  A    between atoms: C2_2  and  C7_7 
REMARK    3  A    between atoms: C4_4  and  C5_5 
REMARK    4  A    between atoms: C8_8  and  S1_9 
REMARK    5  A    between atoms: S1_9  and  C9_10 
REMARK    6  A    between atoms: C10_12  and  C11_13 
ROOT
HETATM    1  C9  UNL     1      20.454  -0.744  53.119  1.00  0.00     0.409 C 
HETATM    2  N1  UNL     1      21.785  -0.438  52.645  1.00  0.00    -0.246 NA
HETATM    3  C10 UNL     1      22.623  -0.359  53.593  1.00  0.00     0.070 C 
HETATM    4  C19 UNL     1      21.872  -0.620  54.873  1.00  0.00     0.333 C 
HETATM    5  N2  UNL     1      20.476  -0.467  54.519  1.00  0.00     0.124 N 
HETATM    6  H24 UNL     1      19.842  -1.070  55.086  1.00  0.00     0.320 HD
ENDROOT
BRANCH   1   7
HETATM    7  S1  UNL     1      19.188   0.197  52.232  1.00  0.00    -0.084 SA
BRANCH   7   8
HETATM    8  C8  UNL     1      19.903   1.839  51.969  1.00  0.00     0.045 C 
HETATM    9  C7  UNL     1      20.664   2.752  52.571  1.00  0.00    -0.012 C 
BRANCH   9  10
HETATM   10  C2  UNL     1      21.032   4.054  51.953  1.00  0.00     0.027 C 
HETATM   11  C1  UNL     1      19.989   4.339  50.884  1.00  0.00     0.018 C 
BRANCH  10  12
HETATM   12  C3  UNL     1      22.373   4.031  51.343  1.00  0.00    -0.019 C 
HETATM   13  C4  UNL     1      23.070   3.500  50.358  1.00  0.00    -0.007 C 
BRANCH  13  14
HETATM   14  C5  UNL     1      22.835   2.574  49.265  1.00  0.00    -0.027 C 
HETATM   15  C6  UNL     1      22.023   1.525  49.113  1.00  0.00     0.031 C 
ENDBRANCH  13  14
ENDBRANCH  10  12
ENDBRANCH   9  10
ENDBRANCH   7   8
ENDBRANCH   1   7
BRANCH   3  16
HETATM   16  C11 UNL     1      24.040  -0.072  53.512  1.00  0.00    -0.009 A 
HETATM   17  C12 UNL     1      24.987  -0.620  54.355  1.00  0.00     0.014 A 
HETATM   18  C13 UNL     1      26.329  -0.263  54.175  1.00  0.00     0.008 A 
HETATM   19  C14 UNL     1      26.728   0.613  53.188  1.00  0.00    -0.056 A 
HETATM   20  C15 UNL     1      28.163   0.961  53.037  1.00  0.00     0.049 C 
HETATM   21  C16 UNL     1      25.805   1.175  52.333  1.00  0.00    -0.055 A 
HETATM   22  C17 UNL     1      26.183   2.124  51.254  1.00  0.00     0.049 C 
HETATM   23  C18 UNL     1      24.494   0.798  52.542  1.00  0.00     0.020 A 
ENDBRANCH   3  16
TORSDOF 6
ENDMDL
MODEL 9
REMARK VINA RESULT:      -6.9      2.416      6.401
REMARK  6 active torsions:
REMARK  status: ('A' for Active; 'I' for Inactive)
REMARK    1  A    between atoms: C2_2  and  C3_3 
REMARK    2  A    between atoms: C2_2  and  C7_7 
REMARK    3  A    between atoms: C4_4  and  C5_5 
REMARK    4  A    between atoms: C8_8  and  S1_9 
REMARK    5  A    between atoms: S1_9  and  C9_10 
REMARK    6  A    between atoms: C10_12  and  C11_13 
ROOT
HETATM    1  C9  UNL     1      25.921   1.408  53.213  1.00  0.00     0.409 C 
HETATM    2  N1  UNL     1      24.483   1.355  53.070  1.00  0.00    -0.246 NA
HETATM    3  C10 UNL     1      24.002   0.260  53.492  1.00  0.00     0.070 C 
HETATM    4  C19 UNL     1      25.157  -0.571  53.986  1.00  0.00     0.333 C 
HETATM    5  N2  UNL     1      26.333   0.058  53.422  1.00  0.00     0.124 N 
HETATM    6  H24 UNL     1      27.180  -0.044  54.022  1.00  0.00     0.320 HD
ENDROOT
BRANCH   1   7
HETATM    7  S1  UNL     1      26.714   2.176  51.778  1.00  0.00    -0.084 SA
BRANCH   7   8
HETATM    8  C8  UNL     1      25.423   3.168  50.986  1.00  0.00     0.045 C 
HETATM    9  C7  UNL     1      24.669   3.211  49.889  1.00  0.00    -0.012 C 
BRANCH   9  10
HETATM   10  C2  UNL     1      23.665   4.277  49.621  1.00  0.00     0.027 C 
HETATM   11  C1  UNL     1      22.730   4.304  50.821  1.00  0.00     0.018 C 
BRANCH  10  12
HETATM   12  C3  UNL     1      22.889   4.026  48.394  1.00  0.00    -0.019 C 
HETATM   13  C4  UNL     1      22.210   3.096  47.752  1.00  0.00    -0.007 C 
BRANCH  13  14
HETATM   14  C5  UNL     1      21.849   1.705  47.960  1.00  0.00    -0.027 C 
HETATM   15  C6  UNL     1      21.615   0.975  49.052  1.00  0.00     0.031 C 
ENDBRANCH  13  14
ENDBRANCH  10  12
ENDBRANCH   9  10
ENDBRANCH   7   8
ENDBRANCH   1   7
BRANCH   3  16
HETATM   16  C11 UNL     1      22.615  -0.157  53.515  1.00  0.00    -0.009 A 
HETATM   17  C12 UNL     1      22.151  -1.249  54.222  1.00  0.00     0.014 A 
HETATM   18  C13 UNL     1      20.785  -1.551  54.163  1.00  0.00     0.008 A 
HETATM   19  C14 UNL     1      19.899  -0.795  53.426  1.00  0.00    -0.056 A 
HETATM   20  C15 UNL     1      18.459  -1.155  53.396  1.00  0.00     0.049 C 
HETATM   21  C16 UNL     1      20.334   0.300  52.711  1.00  0.00    -0.055 A 
HETATM   22  C17 UNL     1      19.420   1.147  51.903  1.00  0.00     0.049 C 
HETATM   23  C18 UNL     1      21.686   0.564  52.795  1.00  0.00     0.020 A 
ENDBRANCH   3  16
TORSDOF 6
ENDMDL
