MODEL 1
REMARK VINA RESULT:      -8.3      0.000      0.000
REMARK  9 active torsions:
REMARK  status: ('A' for Active; 'I' for Inactive)
REMARK    1  A    between atoms: O1_2  and  C2_3 
REMARK    2  A    between atoms: C2_3  and  C3_5 
REMARK    3  A    between atoms: C3_5  and  C4_6 
REMARK    4  A    between atoms: C9_11  and  C10_12 
REMARK    5  A    between atoms: C13_15  and  O3_16 
REMARK    6  A    between atoms: C22_27  and  C23_28 
REMARK    7  A    between atoms: C23_28  and  C24_29 
REMARK    8  A    between atoms: C24_29  and  C25_30 
REMARK    9  A    between atoms: C25_30  and  N2_31 
ROOT
HETATM    1  C4  UNL     1      25.866   2.035  51.596  1.00  0.00    -0.056 A 
HETATM    2  C5  UNL     1      24.981   1.159  51.691  1.00  0.00     0.012 A 
HETATM    3  C6  UNL     1      24.027   1.775  50.809  1.00  0.00    -0.044 A 
HETATM    4  C7  UNL     1      23.022   2.244  50.080  1.00  0.00     0.009 C 
HETATM    5  C8  UNL     1      21.635   1.867  50.245  1.00  0.00     0.013 C 
HETATM    6  C9  UNL     1      21.101   1.086  51.125  1.00  0.00    -0.024 C 
HETATM    7  C17 UNL     1      21.930   1.597  52.306  1.00  0.00     0.037 C 
HETATM    8  C18 UNL     1      22.864   2.579  52.553  1.00  0.00     0.013 C 
HETATM    9  C19 UNL     1      23.907   3.608  52.985  1.00  0.00     0.072 C 
HETATM   10  C20 UNL     1      24.560   4.045  51.688  1.00  0.00     0.101 C 
HETATM   11  C21 UNL     1      23.349   4.609  51.057  1.00  0.00     0.227 C 
HETATM   12  O4  UNL     1      23.283   5.537  50.271  1.00  0.00    -0.273 OA
HETATM   13  N1  UNL     1      22.390   3.710  51.686  1.00  0.00    -0.330 N 
HETATM   14  C22 UNL     1      25.010   2.873  50.800  1.00  0.00     0.023 A 
HETATM   15  H20 UNL     1      21.357   3.987  51.423  1.00  0.00     0.168 HD
ENDROOT
BRANCH   6  16
HETATM   16  C10 UNL     1      20.212   0.308  51.901  1.00  0.00    -0.026 A 
HETATM   17  C11 UNL     1      19.026   0.237  51.146  1.00  0.00     0.015 A 
HETATM   18  C12 UNL     1      17.908  -0.486  51.577  1.00  0.00     0.037 A 
HETATM   19  C13 UNL     1      18.048  -1.131  52.803  1.00  0.00     0.068 A 
HETATM   20  C15 UNL     1      19.206  -1.044  53.511  1.00  0.00     0.037 A 
HETATM   21  C16 UNL     1      20.290  -0.346  53.097  1.00  0.00     0.015 A 
BRANCH  19  22
HETATM   22  O3  UNL     1      17.010  -1.870  53.318  1.00  0.00    -0.356 OA
HETATM   23  C14 UNL     1      17.147  -3.245  53.553  1.00  0.00     0.210 C 
ENDBRANCH  19  22
ENDBRANCH   6  16
BRANCH  14  24
HETATM   24  C23 UNL     1      25.538   3.380  49.522  1.00  0.00     0.021 C 
BRANCH  24  25
HETATM   25  C24 UNL     1      26.798   4.180  49.628  1.00  0.00     0.031 C 
BRANCH  25  26
HETATM   26  C25 UNL     1      26.510   5.516  48.930  1.00  0.00     0.267 C 
BRANCH  26  27
HETATM   27  N2  UNL     1      26.329   6.509  49.977  1.00  0.00     0.078 N 
HETATM   28  H27 UNL     1      27.173   6.609  50.555  1.00  0.00     0.312 HD
HETATM   29  H28 UNL     1      26.053   7.416  49.543  1.00  0.00     0.312 HD
ENDBRANCH  26  27
ENDBRANCH  25  26
ENDBRANCH  24  25
ENDBRANCH  14  24
BRANCH   1  30
HETATM   30  C3  UNL     1      27.203   2.124  52.213  1.00  0.00     0.146 C 
BRANCH  30  31
HETATM   31  C2  UNL     1      27.240   1.873  53.661  1.00  0.00     0.262 C 
HETATM   32  O2  UNL     1      26.483   1.810  54.663  1.00  0.00    -0.265 OA
BRANCH  31  33
HETATM   33  O1  UNL     1      28.341   1.581  54.457  1.00  0.00    -0.326 OA
HETATM   34  C1  UNL     1      28.688   0.246  54.771  1.00  0.00     0.213 C 
ENDBRANCH  31  33
ENDBRANCH  30  31
ENDBRANCH   1  30
TORSDOF 9
ENDMDL
MODEL 2
REMARK VINA RESULT:      -8.1      3.281      6.086
REMARK  9 active torsions:
REMARK  status: ('A' for Active; 'I' for Inactive)
REMARK    1  A    between atoms: O1_2  and  C2_3 
REMARK    2  A    between atoms: C2_3  and  C3_5 
REMARK    3  A    between atoms: C3_5  and  C4_6 
REMARK    4  A    between atoms: C9_11  and  C10_12 
REMARK    5  A    between atoms: C13_15  and  O3_16 
REMARK    6  A    between atoms: C22_27  and  C23_28 
REMARK    7  A    between atoms: C23_28  and  C24_29 
REMARK    8  A    between atoms: C24_29  and  C25_30 
REMARK    9  A    between atoms: C25_30  and  N2_31 
ROOT
HETATM    1  C4  UNL     1      24.103   5.206  49.016  1.00  0.00    -0.056 A 
HETATM    2  C5  UNL     1      24.721   4.188  49.392  1.00  0.00     0.012 A 
HETATM    3  C6  UNL     1      23.570   3.410  49.766  1.00  0.00    -0.044 A 
HETATM    4  C7  UNL     1      22.621   2.599  50.214  1.00  0.00     0.009 C 
HETATM    5  C8  UNL     1      22.829   1.534  51.171  1.00  0.00     0.013 C 
HETATM    6  C9  UNL     1      23.908   1.202  51.802  1.00  0.00    -0.024 C 
HETATM    7  C17 UNL     1      24.356   2.634  52.100  1.00  0.00     0.037 C 
HETATM    8  C18 UNL     1      23.875   3.914  51.932  1.00  0.00     0.013 C 
HETATM    9  C19 UNL     1      23.488   5.387  51.814  1.00  0.00     0.072 C 
HETATM   10  C20 UNL     1      22.433   5.410  50.725  1.00  0.00     0.101 C 
HETATM   11  C21 UNL     1      21.443   4.555  51.414  1.00  0.00     0.227 C 
HETATM   12  O4  UNL     1      20.230   4.600  51.322  1.00  0.00    -0.273 OA
HETATM   13  N1  UNL     1      22.400   3.744  52.156  1.00  0.00    -0.330 N 
HETATM   14  C22 UNL     1      22.848   4.655  49.451  1.00  0.00     0.023 A 
HETATM   15  H20 UNL     1      21.884   3.048  52.836  1.00  0.00     0.168 HD
ENDROOT
BRANCH   6  16
HETATM   16  C10 UNL     1      24.872   0.576  52.624  1.00  0.00    -0.026 A 
HETATM   17  C11 UNL     1      26.112   0.859  52.021  1.00  0.00     0.015 A 
HETATM   18  C12 UNL     1      27.326   0.428  52.569  1.00  0.00     0.037 A 
HETATM   19  C13 UNL     1      27.223  -0.299  53.752  1.00  0.00     0.068 A 
HETATM   20  C15 UNL     1      26.011  -0.557  54.312  1.00  0.00     0.037 A 
HETATM   21  C16 UNL     1      24.835  -0.142  53.784  1.00  0.00     0.015 A 
BRANCH  19  22
HETATM   22  O3  UNL     1      28.355  -0.769  54.375  1.00  0.00    -0.356 OA
HETATM   23  C14 UNL     1      29.510  -1.074  53.643  1.00  0.00     0.210 C 
ENDBRANCH  19  22
ENDBRANCH   6  16
BRANCH  14  24
HETATM   24  C23 UNL     1      21.733   4.638  48.488  1.00  0.00     0.021 C 
BRANCH  24  25
HETATM   25  C24 UNL     1      21.072   5.960  48.257  1.00  0.00     0.031 C 
BRANCH  25  26
HETATM   26  C25 UNL     1      19.571   5.668  48.144  1.00  0.00     0.267 C 
BRANCH  26  27
HETATM   27  N2  UNL     1      18.920   6.368  49.240  1.00  0.00     0.078 N 
HETATM   28  H27 UNL     1      19.542   6.462  50.053  1.00  0.00     0.312 HD
HETATM   29  H28 UNL     1      18.587   7.296  48.903  1.00  0.00     0.312 HD
ENDBRANCH  26  27
ENDBRANCH  25  26
ENDBRANCH  24  25
ENDBRANCH  14  24
BRANCH   1  30
HETATM   30  C3  UNL     1      24.596   6.481  48.462  1.00  0.00     0.146 C 
BRANCH  30  31
HETATM   31  C2  UNL     1      25.684   7.113  49.223  1.00  0.00     0.262 C 
HETATM   32  O2  UNL     1      25.908   7.685  50.320  1.00  0.00    -0.265 OA
BRANCH  31  33
HETATM   33  O1  UNL     1      27.014   7.274  48.852  1.00  0.00    -0.326 OA
HETATM   34  C1  UNL     1      27.784   6.182  48.387  1.00  0.00     0.213 C 
ENDBRANCH  31  33
ENDBRANCH  30  31
ENDBRANCH   1  30
TORSDOF 9
ENDMDL
MODEL 3
REMARK VINA RESULT:      -8.1      2.246      7.383
REMARK  9 active torsions:
REMARK  status: ('A' for Active; 'I' for Inactive)
REMARK    1  A    between atoms: O1_2  and  C2_3 
REMARK    2  A    between atoms: C2_3  and  C3_5 
REMARK    3  A    between atoms: C3_5  and  C4_6 
REMARK    4  A    between atoms: C9_11  and  C10_12 
REMARK    5  A    between atoms: C13_15  and  O3_16 
REMARK    6  A    between atoms: C22_27  and  C23_28 
REMARK    7  A    between atoms: C23_28  and  C24_29 
REMARK    8  A    between atoms: C24_29  and  C25_30 
REMARK    9  A    between atoms: C25_30  and  N2_31 
ROOT
HETATM    1  C4  UNL     1      19.433   0.572  51.853  1.00  0.00    -0.056 A 
HETATM    2  C5  UNL     1      20.486   0.420  52.507  1.00  0.00     0.012 A 
HETATM    3  C6  UNL     1      20.974   1.767  52.371  1.00  0.00    -0.044 A 
HETATM    4  C7  UNL     1      21.586   2.940  52.281  1.00  0.00     0.009 C 
HETATM    5  C8  UNL     1      23.009   3.143  52.441  1.00  0.00     0.013 C 
HETATM    6  C9  UNL     1      23.942   2.269  52.633  1.00  0.00    -0.024 C 
HETATM    7  C17 UNL     1      23.395   1.240  51.642  1.00  0.00     0.037 C 
HETATM    8  C18 UNL     1      22.370   1.144  50.727  1.00  0.00     0.013 C 
HETATM    9  C19 UNL     1      21.286   0.879  49.683  1.00  0.00     0.072 C 
HETATM   10  C20 UNL     1      20.203   1.891  50.004  1.00  0.00     0.101 C 
HETATM   11  C21 UNL     1      21.014   3.105  49.771  1.00  0.00     0.227 C 
HETATM   12  O4  UNL     1      20.631   4.189  49.369  1.00  0.00    -0.273 OA
HETATM   13  N1  UNL     1      22.296   2.537  50.169  1.00  0.00    -0.330 N 
HETATM   14  C22 UNL     1      19.802   1.913  51.489  1.00  0.00     0.023 A 
HETATM   15  H20 UNL     1      23.114   3.255  50.004  1.00  0.00     0.168 HD
ENDROOT
BRANCH   6  16
HETATM   16  C10 UNL     1      25.173   1.611  52.857  1.00  0.00    -0.026 A 
HETATM   17  C11 UNL     1      24.830   0.361  53.406  1.00  0.00     0.015 A 
HETATM   18  C12 UNL     1      25.792  -0.600  53.736  1.00  0.00     0.037 A 
HETATM   19  C13 UNL     1      27.112  -0.235  53.485  1.00  0.00     0.068 A 
HETATM   20  C15 UNL     1      27.414   0.980  52.954  1.00  0.00     0.037 A 
HETATM   21  C16 UNL     1      26.485   1.912  52.634  1.00  0.00     0.015 A 
BRANCH  19  22
HETATM   22  O3  UNL     1      28.136  -1.106  53.772  1.00  0.00    -0.356 OA
HETATM   23  C14 UNL     1      29.476  -0.716  53.643  1.00  0.00     0.210 C 
ENDBRANCH  19  22
ENDBRANCH   6  16
BRANCH  14  24
HETATM   24  C23 UNL     1      18.824   2.987  51.733  1.00  0.00     0.021 C 
BRANCH  24  25
HETATM   25  C24 UNL     1      17.644   2.993  50.814  1.00  0.00     0.031 C 
BRANCH  25  26
HETATM   26  C25 UNL     1      17.094   4.425  50.842  1.00  0.00     0.267 C 
BRANCH  26  27
HETATM   27  N2  UNL     1      17.844   5.185  49.855  1.00  0.00     0.078 N 
HETATM   28  H27 UNL     1      18.855   5.151  50.039  1.00  0.00     0.312 HD
HETATM   29  H28 UNL     1      17.616   4.828  48.903  1.00  0.00     0.312 HD
ENDBRANCH  26  27
ENDBRANCH  25  26
ENDBRANCH  24  25
ENDBRANCH  14  24
BRANCH   1  30
HETATM   30  C3  UNL     1      18.349  -0.379  51.540  1.00  0.00     0.146 C 
BRANCH  30  31
HETATM   31  C2  UNL     1      17.510  -0.768  52.683  1.00  0.00     0.262 C 
HETATM   32  O2  UNL     1      16.376  -0.553  53.183  1.00  0.00    -0.265 OA
BRANCH  31  33
HETATM   33  O1  UNL     1      17.812  -1.650  53.712  1.00  0.00    -0.326 OA
HETATM   34  C1  UNL     1      17.552  -3.036  53.593  1.00  0.00     0.213 C 
ENDBRANCH  31  33
ENDBRANCH  30  31
ENDBRANCH   1  30
TORSDOF 9
ENDMDL
MODEL 4
REMARK VINA RESULT:      -7.9      1.339      1.617
REMARK  9 active torsions:
REMARK  status: ('A' for Active; 'I' for Inactive)
REMARK    1  A    between atoms: O1_2  and  C2_3 
REMARK    2  A    between atoms: C2_3  and  C3_5 
REMARK    3  A    between atoms: C3_5  and  C4_6 
REMARK    4  A    between atoms: C9_11  and  C10_12 
REMARK    5  A    between atoms: C13_15  and  O3_16 
REMARK    6  A    between atoms: C22_27  and  C23_28 
REMARK    7  A    between atoms: C23_28  and  C24_29 
REMARK    8  A    between atoms: C24_29  and  C25_30 
REMARK    9  A    between atoms: C25_30  and  N2_31 
ROOT
HETATM    1  C4  UNL     1      24.303   2.192  52.561  1.00  0.00    -0.056 A 
HETATM    2  C5  UNL     1      23.433   1.297  52.606  1.00  0.00     0.012 A 
HETATM    3  C6  UNL     1      22.870   1.533  51.304  1.00  0.00    -0.044 A 
HETATM    4  C7  UNL     1      22.203   1.668  50.166  1.00  0.00     0.009 C 
HETATM    5  C8  UNL     1      20.845   1.219  49.945  1.00  0.00     0.013 C 
HETATM    6  C9  UNL     1      20.019   0.677  50.779  1.00  0.00    -0.024 C 
HETATM    7  C17 UNL     1      20.372   1.588  51.957  1.00  0.00     0.037 C 
HETATM    8  C18 UNL     1      21.165   2.687  52.200  1.00  0.00     0.013 C 
HETATM    9  C19 UNL     1      21.994   3.896  52.631  1.00  0.00     0.072 C 
HETATM   10  C20 UNL     1      23.077   4.002  51.575  1.00  0.00     0.101 C 
HETATM   11  C21 UNL     1      22.183   4.235  50.421  1.00  0.00     0.227 C 
HETATM   12  O4  UNL     1      22.417   4.884  49.418  1.00  0.00    -0.273 OA
HETATM   13  N1  UNL     1      21.050   3.465  50.921  1.00  0.00    -0.330 N 
HETATM   14  C22 UNL     1      23.803   2.674  51.302  1.00  0.00     0.023 A 
HETATM   15  H20 UNL     1      20.186   3.551  50.244  1.00  0.00     0.168 HD
ENDROOT
BRANCH   6  16
HETATM   16  C10 UNL     1      18.901   0.072  51.396  1.00  0.00    -0.026 A 
HETATM   17  C11 UNL     1      17.871   0.132  50.438  1.00  0.00     0.015 A 
HETATM   18  C12 UNL     1      16.599  -0.402  50.672  1.00  0.00     0.037 A 
HETATM   19  C13 UNL     1      16.422  -0.998  51.918  1.00  0.00     0.068 A 
HETATM   20  C15 UNL     1      17.435  -1.041  52.825  1.00  0.00     0.037 A 
HETATM   21  C16 UNL     1      18.666  -0.525  52.601  1.00  0.00     0.015 A 
BRANCH  19  22
HETATM   22  O3  UNL     1      15.210  -1.556  52.251  1.00  0.00    -0.356 OA
HETATM   23  C14 UNL     1      15.053  -2.947  52.336  1.00  0.00     0.210 C 
ENDBRANCH  19  22
ENDBRANCH   6  16
BRANCH  14  24
HETATM   24  C23 UNL     1      24.763   2.839  50.198  1.00  0.00     0.021 C 
BRANCH  24  25
HETATM   25  C24 UNL     1      25.592   4.083  50.257  1.00  0.00     0.031 C 
BRANCH  25  26
HETATM   26  C25 UNL     1      26.795   3.834  49.339  1.00  0.00     0.267 C 
BRANCH  26  27
HETATM   27  N2  UNL     1      27.546   5.078  49.278  1.00  0.00     0.078 N 
HETATM   28  H27 UNL     1      28.309   5.095  49.966  1.00  0.00     0.312 HD
HETATM   29  H28 UNL     1      27.902   5.215  48.308  1.00  0.00     0.312 HD
ENDBRANCH  26  27
ENDBRANCH  25  26
ENDBRANCH  24  25
ENDBRANCH  14  24
BRANCH   1  30
HETATM   30  C3  UNL     1      25.328   2.589  53.545  1.00  0.00     0.146 C 
BRANCH  30  31
HETATM   31  C2  UNL     1      26.470   1.669  53.663  1.00  0.00     0.262 C 
HETATM   32  O2  UNL     1      27.258   0.993  52.954  1.00  0.00    -0.265 OA
BRANCH  31  33
HETATM   33  O1  UNL     1      27.101   1.222  54.816  1.00  0.00    -0.326 OA
HETATM   34  C1  UNL     1      28.168   0.295  54.759  1.00  0.00     0.213 C 
ENDBRANCH  31  33
ENDBRANCH  30  31
ENDBRANCH   1  30
TORSDOF 9
ENDMDL
MODEL 5
REMARK VINA RESULT:      -7.7      2.647      7.138
REMARK  9 active torsions:
REMARK  status: ('A' for Active; 'I' for Inactive)
REMARK    1  A    between atoms: O1_2  and  C2_3 
REMARK    2  A    between atoms: C2_3  and  C3_5 
REMARK    3  A    between atoms: C3_5  and  C4_6 
REMARK    4  A    between atoms: C9_11  and  C10_12 
REMARK    5  A    between atoms: C13_15  and  O3_16 
REMARK    6  A    between atoms: C22_27  and  C23_28 
REMARK    7  A    between atoms: C23_28  and  C24_29 
REMARK    8  A    between atoms: C24_29  and  C25_30 
REMARK    9  A    between atoms: C25_30  and  N2_31 
ROOT
HETATM    1  C4  UNL     1      24.646   1.259  52.498  1.00  0.00    -0.056 A 
HETATM    2  C5  UNL     1      24.855   2.488  52.425  1.00  0.00     0.012 A 
HETATM    3  C6  UNL     1      23.491   2.910  52.607  1.00  0.00    -0.044 A 
HETATM    4  C7  UNL     1      22.285   3.453  52.696  1.00  0.00     0.009 C 
HETATM    5  C8  UNL     1      21.930   4.763  52.197  1.00  0.00     0.013 C 
HETATM    6  C9  UNL     1      22.653   5.611  51.542  1.00  0.00    -0.024 C 
HETATM    7  C17 UNL     1      23.326   4.574  50.640  1.00  0.00     0.037 C 
HETATM    8  C18 UNL     1      23.244   3.220  50.398  1.00  0.00     0.013 C 
HETATM    9  C19 UNL     1      23.280   1.741  50.019  1.00  0.00     0.072 C 
HETATM   10  C20 UNL     1      22.641   1.037  51.201  1.00  0.00     0.101 C 
HETATM   11  C21 UNL     1      21.313   1.678  51.096  1.00  0.00     0.227 C 
HETATM   12  O4  UNL     1      20.232   1.205  51.399  1.00  0.00    -0.273 OA
HETATM   13  N1  UNL     1      21.774   2.947  50.548  1.00  0.00    -0.330 N 
HETATM   14  C22 UNL     1      23.223   1.462  52.559  1.00  0.00     0.023 A 
HETATM   15  H20 UNL     1      20.925   3.602  50.298  1.00  0.00     0.168 HD
ENDROOT
BRANCH   6  16
HETATM   16  C10 UNL     1      23.143   6.742  50.850  1.00  0.00    -0.026 A 
HETATM   17  C11 UNL     1      24.544   6.673  50.972  1.00  0.00     0.015 A 
HETATM   18  C12 UNL     1      25.393   7.615  50.381  1.00  0.00     0.037 A 
HETATM   19  C13 UNL     1      24.759   8.626  49.664  1.00  0.00     0.068 A 
HETATM   20  C15 UNL     1      23.403   8.668  49.564  1.00  0.00     0.037 A 
HETATM   21  C16 UNL     1      22.578   7.757  50.134  1.00  0.00     0.015 A 
BRANCH  19  22
HETATM   22  O3  UNL     1      25.500   9.603  49.043  1.00  0.00    -0.356 OA
HETATM   23  C14 UNL     1      25.561   9.686  47.645  1.00  0.00     0.210 C 
ENDBRANCH  19  22
ENDBRANCH   6  16
BRANCH  14  24
HETATM   24  C23 UNL     1      22.481   0.812  53.653  1.00  0.00     0.021 C 
BRANCH  24  25
HETATM   25  C24 UNL     1      22.231  -0.652  53.470  1.00  0.00     0.031 C 
BRANCH  25  26
HETATM   26  C25 UNL     1      21.147  -1.026  54.489  1.00  0.00     0.267 C 
BRANCH  26  27
HETATM   27  N2  UNL     1      19.890  -0.502  53.980  1.00  0.00     0.078 N 
HETATM   28  H27 UNL     1      19.409   0.077  54.680  1.00  0.00     0.312 HD
HETATM   29  H28 UNL     1      20.071   0.030  53.103  1.00  0.00     0.312 HD
ENDBRANCH  26  27
ENDBRANCH  25  26
ENDBRANCH  24  25
ENDBRANCH  14  24
BRANCH   1  30
HETATM   30  C3  UNL     1      25.576   0.117  52.417  1.00  0.00     0.146 C 
BRANCH  30  31
HETATM   31  C2  UNL     1      25.982  -0.450  53.712  1.00  0.00     0.262 C 
HETATM   32  O2  UNL     1      25.495  -0.878  54.789  1.00  0.00    -0.265 OA
BRANCH  31  33
HETATM   33  O1  UNL     1      27.266  -0.713  54.173  1.00  0.00    -0.326 OA
HETATM   34  C1  UNL     1      28.149   0.333  54.529  1.00  0.00     0.213 C 
ENDBRANCH  31  33
ENDBRANCH  30  31
ENDBRANCH   1  30
TORSDOF 9
ENDMDL
MODEL 6
REMARK VINA RESULT:      -7.3      3.229      9.202
REMARK  9 active torsions:
REMARK  status: ('A' for Active; 'I' for Inactive)
REMARK    1  A    between atoms: O1_2  and  C2_3 
REMARK    2  A    between atoms: C2_3  and  C3_5 
REMARK    3  A    between atoms: C3_5  and  C4_6 
REMARK    4  A    between atoms: C9_11  and  C10_12 
REMARK    5  A    between atoms: C13_15  and  O3_16 
REMARK    6  A    between atoms: C22_27  and  C23_28 
REMARK    7  A    between atoms: C23_28  and  C24_29 
REMARK    8  A    between atoms: C24_29  and  C25_30 
REMARK    9  A    between atoms: C25_30  and  N2_31 
ROOT
HETATM    1  C4  UNL     1      21.865   4.037  49.068  1.00  0.00    -0.056 A 
HETATM    2  C5  UNL     1      22.847   4.368  48.371  1.00  0.00     0.012 A 
HETATM    3  C6  UNL     1      23.857   3.733  49.175  1.00  0.00    -0.044 A 
HETATM    4  C7  UNL     1      24.904   3.261  49.839  1.00  0.00     0.009 C 
HETATM    5  C8  UNL     1      26.252   3.771  49.725  1.00  0.00     0.013 C 
HETATM    6  C9  UNL     1      26.690   4.775  49.038  1.00  0.00    -0.024 C 
HETATM    7  C17 UNL     1      25.516   5.703  49.358  1.00  0.00     0.037 C 
HETATM    8  C18 UNL     1      24.384   5.688  50.142  1.00  0.00     0.013 C 
HETATM    9  C19 UNL     1      23.093   5.826  50.948  1.00  0.00     0.072 C 
HETATM   10  C20 UNL     1      22.709   4.398  51.284  1.00  0.00     0.101 C 
HETATM   11  C21 UNL     1      23.911   4.070  52.078  1.00  0.00     0.227 C 
HETATM   12  O4  UNL     1      23.994   3.302  53.020  1.00  0.00    -0.273 OA
HETATM   13  N1  UNL     1      24.837   4.937  51.361  1.00  0.00    -0.330 N 
HETATM   14  C22 UNL     1      22.719   3.456  50.069  1.00  0.00     0.023 A 
HETATM   15  H20 UNL     1      25.832   4.929  51.833  1.00  0.00     0.168 HD
ENDROOT
BRANCH   6  16
HETATM   16  C10 UNL     1      27.490   5.764  48.422  1.00  0.00    -0.026 A 
HETATM   17  C11 UNL     1      28.791   5.227  48.398  1.00  0.00     0.015 A 
HETATM   18  C12 UNL     1      29.872   5.909  47.828  1.00  0.00     0.037 A 
HETATM   19  C13 UNL     1      29.573   7.156  47.287  1.00  0.00     0.068 A 
HETATM   20  C15 UNL     1      28.306   7.651  47.325  1.00  0.00     0.037 A 
HETATM   21  C16 UNL     1      27.259   6.993  47.875  1.00  0.00     0.015 A 
BRANCH  19  22
HETATM   22  O3  UNL     1      30.561   7.910  46.700  1.00  0.00    -0.356 OA
HETATM   23  C14 UNL     1      31.551   7.315  45.906  1.00  0.00     0.210 C 
ENDBRANCH  19  22
ENDBRANCH   6  16
BRANCH  14  24
HETATM   24  C23 UNL     1      22.436   2.075  50.497  1.00  0.00     0.021 C 
BRANCH  24  25
HETATM   25  C24 UNL     1      21.218   1.911  51.349  1.00  0.00     0.031 C 
BRANCH  25  26
HETATM   26  C25 UNL     1      21.623   0.969  52.490  1.00  0.00     0.267 C 
BRANCH  26  27
HETATM   27  N2  UNL     1      22.994   0.557  52.231  1.00  0.00     0.078 N 
HETATM   28  H27 UNL     1      23.671   1.206  52.653  1.00  0.00     0.312 HD
HETATM   29  H28 UNL     1      23.130  -0.416  52.578  1.00  0.00     0.312 HD
ENDBRANCH  26  27
ENDBRANCH  25  26
ENDBRANCH  24  25
ENDBRANCH  14  24
BRANCH   1  30
HETATM   30  C3  UNL     1      20.425   4.304  48.892  1.00  0.00     0.146 C 
BRANCH  30  31
HETATM   31  C2  UNL     1      19.658   3.210  48.278  1.00  0.00     0.262 C 
HETATM   32  O2  UNL     1      19.044   2.156  48.582  1.00  0.00    -0.265 OA
BRANCH  31  33
HETATM   33  O1  UNL     1      19.349   3.020  46.938  1.00  0.00    -0.326 OA
HETATM   34  C1  UNL     1      19.959   3.798  45.925  1.00  0.00     0.213 C 
ENDBRANCH  31  33
ENDBRANCH  30  31
ENDBRANCH   1  30
TORSDOF 9
ENDMDL
MODEL 7
REMARK VINA RESULT:      -7.2      2.635      8.409
REMARK  9 active torsions:
REMARK  status: ('A' for Active; 'I' for Inactive)
REMARK    1  A    between atoms: O1_2  and  C2_3 
REMARK    2  A    between atoms: C2_3  and  C3_5 
REMARK    3  A    between atoms: C3_5  and  C4_6 
REMARK    4  A    between atoms: C9_11  and  C10_12 
REMARK    5  A    between atoms: C13_15  and  O3_16 
REMARK    6  A    between atoms: C22_27  and  C23_28 
REMARK    7  A    between atoms: C23_28  and  C24_29 
REMARK    8  A    between atoms: C24_29  and  C25_30 
REMARK    9  A    between atoms: C25_30  and  N2_31 
ROOT
HETATM    1  C4  UNL     1      22.288   1.696  51.128  1.00  0.00    -0.056 A 
HETATM    2  C5  UNL     1      22.797   2.344  50.190  1.00  0.00     0.012 A 
HETATM    3  C6  UNL     1      24.169   2.194  50.595  1.00  0.00    -0.044 A 
HETATM    4  C7  UNL     1      25.467   2.202  50.868  1.00  0.00     0.009 C 
HETATM    5  C8  UNL     1      26.407   3.189  50.383  1.00  0.00     0.013 C 
HETATM    6  C9  UNL     1      26.188   4.245  49.672  1.00  0.00    -0.024 C 
HETATM    7  C17 UNL     1      24.911   4.661  50.406  1.00  0.00     0.037 C 
HETATM    8  C18 UNL     1      24.177   4.250  51.497  1.00  0.00     0.013 C 
HETATM    9  C19 UNL     1      23.254   3.919  52.668  1.00  0.00     0.072 C 
HETATM   10  C20 UNL     1      23.574   2.473  52.998  1.00  0.00     0.101 C 
HETATM   11  C21 UNL     1      24.993   2.680  53.358  1.00  0.00     0.227 C 
HETATM   12  O4  UNL     1      25.653   2.055  54.168  1.00  0.00    -0.273 OA
HETATM   13  N1  UNL     1      25.240   3.799  52.457  1.00  0.00    -0.330 N 
HETATM   14  C22 UNL     1      23.566   1.545  51.772  1.00  0.00     0.023 A 
HETATM   15  H20 UNL     1      26.254   4.203  52.598  1.00  0.00     0.168 HD
ENDROOT
BRANCH   6  16
HETATM   16  C10 UNL     1      26.310   5.433  48.916  1.00  0.00    -0.026 A 
HETATM   17  C11 UNL     1      27.684   5.552  48.632  1.00  0.00     0.015 A 
HETATM   18  C12 UNL     1      28.201   6.601  47.864  1.00  0.00     0.037 A 
HETATM   19  C13 UNL     1      27.264   7.520  47.399  1.00  0.00     0.068 A 
HETATM   20  C15 UNL     1      25.943   7.380  47.689  1.00  0.00     0.037 A 
HETATM   21  C16 UNL     1      25.439   6.366  48.432  1.00  0.00     0.015 A 
BRANCH  19  22
HETATM   22  O3  UNL     1      27.666   8.589  46.634  1.00  0.00    -0.356 OA
HETATM   23  C14 UNL     1      27.315   8.682  45.280  1.00  0.00     0.210 C 
ENDBRANCH  19  22
ENDBRANCH   6  16
BRANCH  14  24
HETATM   24  C23 UNL     1      23.984   0.188  52.162  1.00  0.00     0.021 C 
BRANCH  24  25
HETATM   25  C24 UNL     1      23.498  -0.267  53.502  1.00  0.00     0.031 C 
BRANCH  25  26
HETATM   26  C25 UNL     1      22.382  -1.282  53.224  1.00  0.00     0.267 C 
BRANCH  26  27
HETATM   27  N2  UNL     1      21.739  -1.562  54.498  1.00  0.00     0.078 N 
HETATM   28  H27 UNL     1      21.198  -2.436  54.466  1.00  0.00     0.312 HD
HETATM   29  H28 UNL     1      22.463  -1.588  55.248  1.00  0.00     0.312 HD
ENDBRANCH  26  27
ENDBRANCH  25  26
ENDBRANCH  24  25
ENDBRANCH  14  24
BRANCH   1  30
HETATM   30  C3  UNL     1      20.879   1.374  51.424  1.00  0.00     0.146 C 
BRANCH  30  31
HETATM   31  C2  UNL     1      19.977   2.532  51.501  1.00  0.00     0.262 C 
HETATM   32  O2  UNL     1      19.485   3.335  52.334  1.00  0.00    -0.265 OA
BRANCH  31  33
HETATM   33  O1  UNL     1      19.300   3.167  50.468  1.00  0.00    -0.326 OA
HETATM   34  C1  UNL     1      18.624   2.428  49.468  1.00  0.00     0.213 C 
ENDBRANCH  31  33
ENDBRANCH  30  31
ENDBRANCH   1  30
TORSDOF 9
ENDMDL
MODEL 8
REMARK VINA RESULT:      -7.2      3.806      6.538
REMARK  9 active torsions:
REMARK  status: ('A' for Active; 'I' for Inactive)
REMARK    1  A    between atoms: O1_2  and  C2_3 
REMARK    2  A    between atoms: C2_3  and  C3_5 
REMARK    3  A    between atoms: C3_5  and  C4_6 
REMARK    4  A    between atoms: C9_11  and  C10_12 
REMARK    5  A    between atoms: C13_15  and  O3_16 
REMARK    6  A    between atoms: C22_27  and  C23_28 
REMARK    7  A    between atoms: C23_28  and  C24_29 
REMARK    8  A    between atoms: C24_29  and  C25_30 
REMARK    9  A    between atoms: C25_30  and  N2_31 
ROOT
HETATM    1  C4  UNL     1      25.450   7.046  48.399  1.00  0.00    -0.056 A 
HETATM    2  C5  UNL     1      25.863   5.950  48.831  1.00  0.00     0.012 A 
HETATM    3  C6  UNL     1      24.615   5.241  48.737  1.00  0.00    -0.044 A 
HETATM    4  C7  UNL     1      23.533   4.475  48.772  1.00  0.00     0.009 C 
HETATM    5  C8  UNL     1      23.371   3.313  49.619  1.00  0.00     0.013 C 
HETATM    6  C9  UNL     1      24.173   2.836  50.513  1.00  0.00    -0.024 C 
HETATM    7  C17 UNL     1      24.575   4.193  51.097  1.00  0.00     0.037 C 
HETATM    8  C18 UNL     1      24.238   5.518  50.933  1.00  0.00     0.013 C 
HETATM    9  C19 UNL     1      23.984   7.023  50.867  1.00  0.00     0.072 C 
HETATM   10  C20 UNL     1      23.335   7.233  49.513  1.00  0.00     0.101 C 
HETATM   11  C21 UNL     1      22.135   6.405  49.757  1.00  0.00     0.227 C 
HETATM   12  O4  UNL     1      21.018   6.560  49.297  1.00  0.00    -0.273 OA
HETATM   13  N1  UNL     1      22.762   5.452  50.664  1.00  0.00    -0.330 N 
HETATM   14  C22 UNL     1      24.096   6.566  48.355  1.00  0.00     0.023 A 
HETATM   15  H20 UNL     1      22.022   4.743  51.066  1.00  0.00     0.168 HD
ENDROOT
BRANCH   6  16
HETATM   16  C10 UNL     1      24.792   2.059  51.519  1.00  0.00    -0.026 A 
HETATM   17  C11 UNL     1      26.169   2.322  51.395  1.00  0.00     0.015 A 
HETATM   18  C12 UNL     1      27.119   1.752  52.250  1.00  0.00     0.037 A 
HETATM   19  C13 UNL     1      26.609   0.907  53.232  1.00  0.00     0.068 A 
HETATM   20  C15 UNL     1      25.273   0.671  53.328  1.00  0.00     0.037 A 
HETATM   21  C16 UNL     1      24.351   1.221  52.502  1.00  0.00     0.015 A 
BRANCH  19  22
HETATM   22  O3  UNL     1      27.456   0.296  54.126  1.00  0.00    -0.356 OA
HETATM   23  C14 UNL     1      28.828   0.580  54.134  1.00  0.00     0.210 C 
ENDBRANCH  19  22
ENDBRANCH   6  16
BRANCH  14  24
HETATM   24  C23 UNL     1      23.347   6.730  47.097  1.00  0.00     0.021 C 
BRANCH  24  25
HETATM   25  C24 UNL     1      22.850   8.115  46.829  1.00  0.00     0.031 C 
BRANCH  25  26
HETATM   26  C25 UNL     1      21.536   7.950  46.055  1.00  0.00     0.267 C 
BRANCH  26  27
HETATM   27  N2  UNL     1      21.106   6.573  46.240  1.00  0.00     0.078 N 
HETATM   28  H27 UNL     1      20.209   6.520  46.741  1.00  0.00     0.312 HD
HETATM   29  H28 UNL     1      21.053   6.104  45.311  1.00  0.00     0.312 HD
ENDBRANCH  26  27
ENDBRANCH  25  26
ENDBRANCH  24  25
ENDBRANCH  14  24
BRANCH   1  30
HETATM   30  C3  UNL     1      26.158   8.321  48.174  1.00  0.00     0.146 C 
BRANCH  30  31
HETATM   31  C2  UNL     1      26.694   8.960  49.386  1.00  0.00     0.262 C 
HETATM   32  O2  UNL     1      26.327   9.638  50.378  1.00  0.00    -0.265 OA
BRANCH  31  33
HETATM   33  O1  UNL     1      28.007   8.982  49.838  1.00  0.00    -0.326 OA
HETATM   34  C1  UNL     1      28.971   9.840  49.257  1.00  0.00     0.213 C 
ENDBRANCH  31  33
ENDBRANCH  30  31
ENDBRANCH   1  30
TORSDOF 9
ENDMDL
MODEL 9
REMARK VINA RESULT:      -7.2      2.865      7.642
REMARK  9 active torsions:
REMARK  status: ('A' for Active; 'I' for Inactive)
REMARK    1  A    between atoms: O1_2  and  C2_3 
REMARK    2  A    between atoms: C2_3  and  C3_5 
REMARK    3  A    between atoms: C3_5  and  C4_6 
REMARK    4  A    between atoms: C9_11  and  C10_12 
REMARK    5  A    between atoms: C13_15  and  O3_16 
REMARK    6  A    between atoms: C22_27  and  C23_28 
REMARK    7  A    between atoms: C23_28  and  C24_29 
REMARK    8  A    between atoms: C24_29  and  C25_30 
REMARK    9  A    between atoms: C25_30  and  N2_31 
ROOT
HETATM    1  C4  UNL     1      22.250   1.191  50.925  1.00  0.00    -0.056 A 
HETATM    2  C5  UNL     1      22.535   1.914  49.948  1.00  0.00     0.012 A 
HETATM    3  C6  UNL     1      23.859   2.279  50.378  1.00  0.00    -0.044 A 
HETATM    4  C7  UNL     1      25.062   2.756  50.665  1.00  0.00     0.009 C 
HETATM    5  C8  UNL     1      25.618   3.976  50.121  1.00  0.00     0.013 C 
HETATM    6  C9  UNL     1      25.071   4.842  49.333  1.00  0.00    -0.024 C 
HETATM    7  C17 UNL     1      23.704   4.831  50.020  1.00  0.00     0.037 C 
HETATM    8  C18 UNL     1      23.120   4.261  51.129  1.00  0.00     0.013 C 
HETATM    9  C19 UNL     1      22.327   3.704  52.310  1.00  0.00     0.072 C 
HETATM   10  C20 UNL     1      23.117   2.485  52.748  1.00  0.00     0.101 C 
HETATM   11  C21 UNL     1      24.362   3.197  53.108  1.00  0.00     0.227 C 
HETATM   12  O4  UNL     1      25.169   2.895  53.969  1.00  0.00    -0.273 OA
HETATM   13  N1  UNL     1      24.238   4.271  52.132  1.00  0.00    -0.330 N 
HETATM   14  C22 UNL     1      23.476   1.537  51.592  1.00  0.00     0.023 A 
HETATM   15  H20 UNL     1      25.043   5.012  52.255  1.00  0.00     0.168 HD
ENDROOT
BRANCH   6  16
HETATM   16  C10 UNL     1      24.801   5.947  48.494  1.00  0.00    -0.026 A 
HETATM   17  C11 UNL     1      23.517   5.707  47.969  1.00  0.00     0.015 A 
HETATM   18  C12 UNL     1      22.882   6.608  47.107  1.00  0.00     0.037 A 
HETATM   19  C13 UNL     1      23.606   7.759  46.804  1.00  0.00     0.068 A 
HETATM   20  C15 UNL     1      24.845   7.963  47.327  1.00  0.00     0.037 A 
HETATM   21  C16 UNL     1      25.463   7.093  48.160  1.00  0.00     0.015 A 
BRANCH  19  22
HETATM   22  O3  UNL     1      23.073   8.711  45.968  1.00  0.00    -0.356 OA
HETATM   23  C14 UNL     1      22.840   8.436  44.614  1.00  0.00     0.210 C 
ENDBRANCH  19  22
ENDBRANCH   6  16
BRANCH  14  24
HETATM   24  C23 UNL     1      24.326   0.439  52.084  1.00  0.00     0.021 C 
BRANCH  24  25
HETATM   25  C24 UNL     1      23.839  -0.233  53.329  1.00  0.00     0.031 C 
BRANCH  25  26
HETATM   26  C25 UNL     1      25.095  -0.607  54.127  1.00  0.00     0.267 C 
BRANCH  26  27
HETATM   27  N2  UNL     1      26.219   0.048  53.477  1.00  0.00     0.078 N 
HETATM   28  H27 UNL     1      26.320  -0.253  52.499  1.00  0.00     0.312 HD
HETATM   29  H28 UNL     1      26.100   1.081  53.549  1.00  0.00     0.312 HD
ENDBRANCH  26  27
ENDBRANCH  25  26
ENDBRANCH  24  25
ENDBRANCH  14  24
BRANCH   1  30
HETATM   30  C3  UNL     1      21.031   0.417  51.227  1.00  0.00     0.146 C 
BRANCH  30  31
HETATM   31  C2  UNL     1      19.770   1.052  50.816  1.00  0.00     0.262 C 
HETATM   32  O2  UNL     1      19.044   1.221  49.804  1.00  0.00    -0.265 OA
BRANCH  31  33
HETATM   33  O1  UNL     1      18.876   1.775  51.596  1.00  0.00    -0.326 OA
HETATM   34  C1  UNL     1      18.763   3.180  51.476  1.00  0.00     0.213 C 
ENDBRANCH  31  33
ENDBRANCH  30  31
ENDBRANCH   1  30
TORSDOF 9
ENDMDL
