MODEL 1
REMARK VINA RESULT:      -7.7      0.000      0.000
REMARK  4 active torsions:
REMARK  status: ('A' for Active; 'I' for Inactive)
REMARK    1  A    between atoms: O1_2  and  C2_3 
REMARK    2  A    between atoms: C6_9  and  N3_10 
REMARK    3  A    between atoms: N3_10  and  C8_12 
REMARK    4  A    between atoms: C16_21  and  O3_22 
ROOT
HETATM    1  C2  UNL     1      20.684  -0.135  52.800  1.00  0.00     0.103 A 
HETATM    2  C3  UNL     1      20.723   0.530  51.577  1.00  0.00     0.072 A 
HETATM    3  C4  UNL     1      21.860   1.203  51.180  1.00  0.00     0.075 A 
HETATM    4  N1  UNL     1      21.997   1.872  50.028  1.00  0.00    -0.241 NA
HETATM    5  C5  UNL     1      23.133   2.507  49.704  1.00  0.00     0.236 A 
HETATM    6  N2  UNL     1      24.181   2.468  50.578  1.00  0.00    -0.224 NA
HETATM    7  C6  UNL     1      24.104   1.809  51.757  1.00  0.00     0.141 A 
HETATM    8  C14 UNL     1      22.921   1.167  52.059  1.00  0.00     0.041 A 
HETATM    9  C15 UNL     1      22.926   0.521  53.277  1.00  0.00     0.057 A 
HETATM   10  C16 UNL     1      21.773  -0.149  53.655  1.00  0.00     0.102 A 
ENDROOT
BRANCH   7  11
HETATM   11  N3  UNL     1      25.300   1.890  52.515  1.00  0.00    -0.339 N 
HETATM   12  C7  UNL     1      25.396   2.534  53.811  1.00  0.00     0.154 C 
BRANCH  11  13
HETATM   13  C8  UNL     1      26.471   1.281  51.924  1.00  0.00     0.253 A 
HETATM   14  C9  UNL     1      26.409  -0.172  52.210  1.00  0.00     0.027 A 
HETATM   15  C10 UNL     1      27.292  -0.949  52.800  1.00  0.00     0.009 A 
HETATM   16  C11 UNL     1      28.519  -0.294  53.241  1.00  0.00    -0.040 A 
HETATM   17  C12 UNL     1      29.623  -0.999  53.919  1.00  0.00     0.050 C 
HETATM   18  C13 UNL     1      28.596   1.000  52.995  1.00  0.00     0.144 A 
HETATM   19  O2  UNL     1      27.668   1.822  52.374  1.00  0.00    -0.334 OA
ENDBRANCH  11  13
ENDBRANCH   7  11
BRANCH  10  20
HETATM   20  O3  UNL     1      21.725  -0.818  54.875  1.00  0.00    -0.353 OA
HETATM   21  C17 UNL     1      22.947  -1.337  55.381  1.00  0.00     0.210 C 
ENDBRANCH  10  20
BRANCH   1  22
HETATM   22  O1  UNL     1      19.572  -0.818  53.232  1.00  0.00    -0.353 OA
HETATM   23  C1  UNL     1      18.275  -0.743  52.746  1.00  0.00     0.210 C 
ENDBRANCH   1  22
TORSDOF 4
ENDMDL
MODEL 2
REMARK VINA RESULT:      -7.5      2.757      5.579
REMARK  4 active torsions:
REMARK  status: ('A' for Active; 'I' for Inactive)
REMARK    1  A    between atoms: O1_2  and  C2_3 
REMARK    2  A    between atoms: C6_9  and  N3_10 
REMARK    3  A    between atoms: N3_10  and  C8_12 
REMARK    4  A    between atoms: C16_21  and  O3_22 
ROOT
HETATM    1  C2  UNL     1      26.431   0.336  54.335  1.00  0.00     0.103 A 
HETATM    2  C3  UNL     1      25.273  -0.367  54.014  1.00  0.00     0.072 A 
HETATM    3  C4  UNL     1      24.252   0.244  53.315  1.00  0.00     0.075 A 
HETATM    4  N1  UNL     1      23.102  -0.342  52.960  1.00  0.00    -0.241 NA
HETATM    5  C5  UNL     1      22.148   0.312  52.280  1.00  0.00     0.236 A 
HETATM    6  N2  UNL     1      22.360   1.618  51.942  1.00  0.00    -0.224 NA
HETATM    7  C6  UNL     1      23.501   2.265  52.273  1.00  0.00     0.141 A 
HETATM    8  C14 UNL     1      24.461   1.563  52.971  1.00  0.00     0.041 A 
HETATM    9  C15 UNL     1      25.591   2.295  53.268  1.00  0.00     0.057 A 
HETATM   10  C16 UNL     1      26.603   1.660  53.970  1.00  0.00     0.102 A 
ENDROOT
BRANCH   7  11
HETATM   11  N3  UNL     1      23.521   3.612  51.826  1.00  0.00    -0.339 N 
HETATM   12  C7  UNL     1      23.301   4.754  52.691  1.00  0.00     0.154 C 
BRANCH  11  13
HETATM   13  C8  UNL     1      23.782   3.812  50.418  1.00  0.00     0.253 A 
HETATM   14  C9  UNL     1      25.045   3.106  50.095  1.00  0.00     0.027 A 
HETATM   15  C10 UNL     1      26.147   3.569  49.542  1.00  0.00     0.009 A 
HETATM   16  C11 UNL     1      26.132   4.985  49.188  1.00  0.00    -0.040 A 
HETATM   17  C12 UNL     1      27.270   5.681  48.560  1.00  0.00     0.050 C 
HETATM   18  C13 UNL     1      25.017   5.632  49.466  1.00  0.00     0.144 A 
HETATM   19  O2  UNL     1      23.855   5.149  50.049  1.00  0.00    -0.334 OA
ENDBRANCH  11  13
ENDBRANCH   7  11
BRANCH  10  20
HETATM   20  O3  UNL     1      27.766   2.355  54.295  1.00  0.00    -0.353 OA
HETATM   21  C17 UNL     1      28.703   2.578  53.252  1.00  0.00     0.210 C 
ENDBRANCH  10  20
BRANCH   1  22
HETATM   22  O1  UNL     1      27.471  -0.236  55.028  1.00  0.00    -0.353 OA
HETATM   23  C1  UNL     1      28.724  -0.596  54.556  1.00  0.00     0.210 C 
ENDBRANCH   1  22
TORSDOF 4
ENDMDL
MODEL 3
REMARK VINA RESULT:      -7.5      1.750      6.091
REMARK  4 active torsions:
REMARK  status: ('A' for Active; 'I' for Inactive)
REMARK    1  A    between atoms: O1_2  and  C2_3 
REMARK    2  A    between atoms: C6_9  and  N3_10 
REMARK    3  A    between atoms: N3_10  and  C8_12 
REMARK    4  A    between atoms: C16_21  and  O3_22 
ROOT
HETATM    1  C2  UNL     1      27.281   0.166  53.706  1.00  0.00     0.103 A 
HETATM    2  C3  UNL     1      27.634   1.003  52.651  1.00  0.00     0.072 A 
HETATM    3  C4  UNL     1      26.666   1.686  51.942  1.00  0.00     0.075 A 
HETATM    4  N1  UNL     1      26.902   2.510  50.914  1.00  0.00    -0.241 NA
HETATM    5  C5  UNL     1      25.912   3.144  50.267  1.00  0.00     0.236 A 
HETATM    6  N2  UNL     1      24.624   2.939  50.673  1.00  0.00    -0.224 NA
HETATM    7  C6  UNL     1      24.323   2.118  51.706  1.00  0.00     0.141 A 
HETATM    8  C14 UNL     1      25.365   1.483  52.348  1.00  0.00     0.041 A 
HETATM    9  C15 UNL     1      24.972   0.666  53.387  1.00  0.00     0.057 A 
HETATM   10  C16 UNL     1      25.961  -0.010  54.084  1.00  0.00     0.102 A 
ENDROOT
BRANCH   7  11
HETATM   11  N3  UNL     1      22.930   2.047  51.966  1.00  0.00    -0.339 N 
HETATM   12  C7  UNL     1      22.126   3.180  52.380  1.00  0.00     0.154 C 
BRANCH  11  13
HETATM   13  C8  UNL     1      22.315   0.750  51.794  1.00  0.00     0.253 A 
HETATM   14  C9  UNL     1      21.338   0.865  50.686  1.00  0.00     0.027 A 
HETATM   15  C10 UNL     1      20.052   0.583  50.669  1.00  0.00     0.009 A 
HETATM   16  C11 UNL     1      19.496   0.081  51.921  1.00  0.00    -0.040 A 
HETATM   17  C12 UNL     1      18.079  -0.288  52.096  1.00  0.00     0.050 C 
HETATM   18  C13 UNL     1      20.350  -0.030  52.921  1.00  0.00     0.144 A 
HETATM   19  O2  UNL     1      21.704   0.266  52.943  1.00  0.00    -0.334 OA
ENDBRANCH  11  13
ENDBRANCH   7  11
BRANCH  10  20
HETATM   20  O3  UNL     1      25.617  -0.848  55.142  1.00  0.00    -0.353 OA
HETATM   21  C17 UNL     1      24.247  -1.197  55.278  1.00  0.00     0.210 C 
ENDBRANCH  10  20
BRANCH   1  22
HETATM   22  O1  UNL     1      28.213  -0.531  54.437  1.00  0.00    -0.353 OA
HETATM   23  C1  UNL     1      29.484  -0.930  54.051  1.00  0.00     0.210 C 
ENDBRANCH   1  22
TORSDOF 4
ENDMDL
MODEL 4
REMARK VINA RESULT:      -7.3      2.646      6.377
REMARK  4 active torsions:
REMARK  status: ('A' for Active; 'I' for Inactive)
REMARK    1  A    between atoms: O1_2  and  C2_3 
REMARK    2  A    between atoms: C6_9  and  N3_10 
REMARK    3  A    between atoms: N3_10  and  C8_12 
REMARK    4  A    between atoms: C16_21  and  O3_22 
ROOT
HETATM    1  C2  UNL     1      26.841  -0.139  53.755  1.00  0.00     0.103 A 
HETATM    2  C3  UNL     1      25.656  -0.786  54.097  1.00  0.00     0.072 A 
HETATM    3  C4  UNL     1      24.442  -0.316  53.639  1.00  0.00     0.075 A 
HETATM    4  N1  UNL     1      23.251  -0.865  53.911  1.00  0.00    -0.241 NA
HETATM    5  C5  UNL     1      22.106  -0.356  53.432  1.00  0.00     0.236 A 
HETATM    6  N2  UNL     1      22.160   0.757  52.643  1.00  0.00    -0.224 NA
HETATM    7  C6  UNL     1      23.333   1.357  52.333  1.00  0.00     0.141 A 
HETATM    8  C14 UNL     1      24.491   0.807  52.841  1.00  0.00     0.041 A 
HETATM    9  C15 UNL     1      25.640   1.477  52.478  1.00  0.00     0.057 A 
HETATM   10  C16 UNL     1      26.847   0.987  52.950  1.00  0.00     0.102 A 
ENDROOT
BRANCH   7  11
HETATM   11  N3  UNL     1      23.169   2.494  51.501  1.00  0.00    -0.339 N 
HETATM   12  C7  UNL     1      23.203   2.450  50.052  1.00  0.00     0.154 C 
BRANCH  11  13
HETATM   13  C8  UNL     1      22.954   3.753  52.179  1.00  0.00     0.253 A 
HETATM   14  C9  UNL     1      21.682   4.320  51.672  1.00  0.00     0.027 A 
HETATM   15  C10 UNL     1      21.446   5.494  51.126  1.00  0.00     0.009 A 
HETATM   16  C11 UNL     1      22.600   6.378  50.998  1.00  0.00    -0.040 A 
HETATM   17  C12 UNL     1      22.532   7.730  50.413  1.00  0.00     0.050 C 
HETATM   18  C13 UNL     1      23.743   5.893  51.445  1.00  0.00     0.144 A 
HETATM   19  O2  UNL     1      23.996   4.657  52.020  1.00  0.00    -0.334 OA
ENDBRANCH  11  13
ENDBRANCH   7  11
BRANCH  10  20
HETATM   20  O3  UNL     1      28.038   1.628  52.612  1.00  0.00    -0.353 OA
HETATM   21  C17 UNL     1      28.587   2.524  53.566  1.00  0.00     0.210 C 
ENDBRANCH  10  20
BRANCH   1  22
HETATM   22  O1  UNL     1      28.069  -0.574  54.189  1.00  0.00    -0.353 OA
HETATM   23  C1  UNL     1      28.992  -1.359  53.513  1.00  0.00     0.210 C 
ENDBRANCH   1  22
TORSDOF 4
ENDMDL
MODEL 5
REMARK VINA RESULT:      -7.2      2.368      6.629
REMARK  4 active torsions:
REMARK  status: ('A' for Active; 'I' for Inactive)
REMARK    1  A    between atoms: O1_2  and  C2_3 
REMARK    2  A    between atoms: C6_9  and  N3_10 
REMARK    3  A    between atoms: N3_10  and  C8_12 
REMARK    4  A    between atoms: C16_21  and  O3_22 
ROOT
HETATM    1  C2  UNL     1      26.158  -0.389  53.713  1.00  0.00     0.103 A 
HETATM    2  C3  UNL     1      25.157  -0.953  54.498  1.00  0.00     0.072 A 
HETATM    3  C4  UNL     1      23.832  -0.625  54.292  1.00  0.00     0.075 A 
HETATM    4  N1  UNL     1      22.799  -1.111  54.992  1.00  0.00    -0.241 NA
HETATM    5  C5  UNL     1      21.533  -0.748  54.738  1.00  0.00     0.236 A 
HETATM    6  N2  UNL     1      21.294   0.146  53.734  1.00  0.00    -0.224 NA
HETATM    7  C6  UNL     1      22.296   0.672  52.992  1.00  0.00     0.141 A 
HETATM    8  C14 UNL     1      23.585   0.277  53.279  1.00  0.00     0.041 A 
HETATM    9  C15 UNL     1      24.545   0.859  52.478  1.00  0.00     0.057 A 
HETATM   10  C16 UNL     1      25.868   0.514  52.704  1.00  0.00     0.102 A 
ENDROOT
BRANCH   7  11
HETATM   11  N3  UNL     1      21.833   1.577  52.002  1.00  0.00    -0.339 N 
HETATM   12  C7  UNL     1      21.864   3.019  52.146  1.00  0.00     0.154 C 
BRANCH  11  13
HETATM   13  C8  UNL     1      21.308   0.984  50.792  1.00  0.00     0.253 A 
HETATM   14  C9  UNL     1      22.139   1.468  49.663  1.00  0.00     0.027 A 
HETATM   15  C10 UNL     1      21.776   2.086  48.560  1.00  0.00     0.009 A 
HETATM   16  C11 UNL     1      20.346   2.336  48.414  1.00  0.00    -0.040 A 
HETATM   17  C12 UNL     1      19.750   3.015  47.248  1.00  0.00     0.050 C 
HETATM   18  C13 UNL     1      19.588   1.913  49.407  1.00  0.00     0.144 A 
HETATM   19  O2  UNL     1      19.966   1.261  50.572  1.00  0.00    -0.334 OA
ENDBRANCH  11  13
ENDBRANCH   7  11
BRANCH  10  20
HETATM   20  O3  UNL     1      26.876   1.073  51.922  1.00  0.00    -0.353 OA
HETATM   21  C17 UNL     1      26.748   2.445  51.580  1.00  0.00     0.210 C 
ENDBRANCH  10  20
BRANCH   1  22
HETATM   22  O1  UNL     1      27.487  -0.690  53.886  1.00  0.00    -0.353 OA
HETATM   23  C1  UNL     1      28.418  -0.044  54.686  1.00  0.00     0.210 C 
ENDBRANCH   1  22
TORSDOF 4
ENDMDL
MODEL 6
REMARK VINA RESULT:      -7.1      2.537      6.351
REMARK  4 active torsions:
REMARK  status: ('A' for Active; 'I' for Inactive)
REMARK    1  A    between atoms: O1_2  and  C2_3 
REMARK    2  A    between atoms: C6_9  and  N3_10 
REMARK    3  A    between atoms: N3_10  and  C8_12 
REMARK    4  A    between atoms: C16_21  and  O3_22 
ROOT
HETATM    1  C2  UNL     1      26.607   0.500  53.444  1.00  0.00     0.103 A 
HETATM    2  C3  UNL     1      27.214   1.412  52.584  1.00  0.00     0.072 A 
HETATM    3  C4  UNL     1      26.463   2.125  51.672  1.00  0.00     0.075 A 
HETATM    4  N1  UNL     1      26.950   3.021  50.804  1.00  0.00    -0.241 NA
HETATM    5  C5  UNL     1      26.162   3.680  49.942  1.00  0.00     0.236 A 
HETATM    6  N2  UNL     1      24.820   3.427  49.952  1.00  0.00    -0.224 NA
HETATM    7  C6  UNL     1      24.268   2.533  50.806  1.00  0.00     0.141 A 
HETATM    8  C14 UNL     1      25.107   1.874  51.678  1.00  0.00     0.041 A 
HETATM    9  C15 UNL     1      24.466   0.982  52.512  1.00  0.00     0.057 A 
HETATM   10  C16 UNL     1      25.241   0.277  53.419  1.00  0.00     0.102 A 
ENDROOT
BRANCH   7  11
HETATM   11  N3  UNL     1      22.862   2.422  50.654  1.00  0.00    -0.339 N 
HETATM   12  C7  UNL     1      22.216   1.483  49.758  1.00  0.00     0.154 C 
BRANCH  11  13
HETATM   13  C8  UNL     1      22.061   3.315  51.462  1.00  0.00     0.253 A 
HETATM   14  C9  UNL     1      21.100   2.482  52.225  1.00  0.00     0.027 A 
HETATM   15  C10 UNL     1      19.786   2.555  52.278  1.00  0.00     0.009 A 
HETATM   16  C11 UNL     1      19.176   3.607  51.473  1.00  0.00    -0.040 A 
HETATM   17  C12 UNL     1      17.722   3.843  51.405  1.00  0.00     0.050 C 
HETATM   18  C13 UNL     1      20.014   4.360  50.786  1.00  0.00     0.144 A 
HETATM   19  O2  UNL     1      21.397   4.287  50.727  1.00  0.00    -0.334 OA
ENDBRANCH  11  13
ENDBRANCH   7  11
BRANCH  10  20
HETATM   20  O3  UNL     1      24.642  -0.636  54.284  1.00  0.00    -0.353 OA
HETATM   21  C17 UNL     1      23.229  -0.767  54.215  1.00  0.00     0.210 C 
ENDBRANCH  10  20
BRANCH   1  22
HETATM   22  O1  UNL     1      27.318  -0.229  54.366  1.00  0.00    -0.353 OA
HETATM   23  C1  UNL     1      28.651  -0.094  54.725  1.00  0.00     0.210 C 
ENDBRANCH   1  22
TORSDOF 4
ENDMDL
MODEL 7
REMARK VINA RESULT:      -6.9      2.471      3.709
REMARK  4 active torsions:
REMARK  status: ('A' for Active; 'I' for Inactive)
REMARK    1  A    between atoms: O1_2  and  C2_3 
REMARK    2  A    between atoms: C6_9  and  N3_10 
REMARK    3  A    between atoms: N3_10  and  C8_12 
REMARK    4  A    between atoms: C16_21  and  O3_22 
ROOT
HETATM    1  C2  UNL     1      21.026   2.216  50.644  1.00  0.00     0.103 A 
HETATM    2  C3  UNL     1      20.527   1.173  51.419  1.00  0.00     0.072 A 
HETATM    3  C4  UNL     1      21.332   0.533  52.338  1.00  0.00     0.075 A 
HETATM    4  N1  UNL     1      20.949  -0.478  53.128  1.00  0.00    -0.241 NA
HETATM    5  C5  UNL     1      21.785  -1.057  54.002  1.00  0.00     0.236 A 
HETATM    6  N2  UNL     1      23.069  -0.600  54.085  1.00  0.00    -0.224 NA
HETATM    7  C6  UNL     1      23.516   0.419  53.314  1.00  0.00     0.141 A 
HETATM    8  C14 UNL     1      22.629   0.991  52.427  1.00  0.00     0.041 A 
HETATM    9  C15 UNL     1      23.164   2.020  51.680  1.00  0.00     0.057 A 
HETATM   10  C16 UNL     1      22.336   2.648  50.764  1.00  0.00     0.102 A 
ENDROOT
BRANCH   7  11
HETATM   11  N3  UNL     1      24.876   0.740  53.558  1.00  0.00    -0.339 N 
HETATM   12  C7  UNL     1      25.433   2.070  53.406  1.00  0.00     0.154 C 
BRANCH  11  13
HETATM   13  C8  UNL     1      25.723  -0.352  53.984  1.00  0.00     0.253 A 
HETATM   14  C9  UNL     1      26.726   0.203  54.923  1.00  0.00     0.027 A 
HETATM   15  C10 UNL     1      28.040   0.143  54.879  1.00  0.00     0.009 A 
HETATM   16  C11 UNL     1      28.604  -0.575  53.741  1.00  0.00    -0.040 A 
HETATM   17  C12 UNL     1      30.052  -0.748  53.520  1.00  0.00     0.050 C 
HETATM   18  C13 UNL     1      27.728  -1.079  52.892  1.00  0.00     0.144 A 
HETATM   19  O2  UNL     1      26.343  -1.017  52.935  1.00  0.00    -0.334 OA
ENDBRANCH  11  13
ENDBRANCH   7  11
BRANCH  10  20
HETATM   20  O3  UNL     1      22.827   3.694  49.985  1.00  0.00    -0.353 OA
HETATM   21  C17 UNL     1      23.823   3.376  49.024  1.00  0.00     0.210 C 
ENDBRANCH  10  20
BRANCH   1  22
HETATM   22  O1  UNL     1      20.257   2.880  49.719  1.00  0.00    -0.353 OA
HETATM   23  C1  UNL     1      19.259   3.817  49.943  1.00  0.00     0.210 C 
ENDBRANCH   1  22
TORSDOF 4
ENDMDL
MODEL 8
REMARK VINA RESULT:      -6.9      3.114      5.246
REMARK  4 active torsions:
REMARK  status: ('A' for Active; 'I' for Inactive)
REMARK    1  A    between atoms: O1_2  and  C2_3 
REMARK    2  A    between atoms: C6_9  and  N3_10 
REMARK    3  A    between atoms: N3_10  and  C8_12 
REMARK    4  A    between atoms: C16_21  and  O3_22 
ROOT
HETATM    1  C2  UNL     1      23.819   5.409  48.441  1.00  0.00     0.103 A 
HETATM    2  C3  UNL     1      22.877   4.385  48.430  1.00  0.00     0.072 A 
HETATM    3  C4  UNL     1      22.958   3.345  49.333  1.00  0.00     0.075 A 
HETATM    4  N1  UNL     1      22.104   2.316  49.403  1.00  0.00    -0.241 NA
HETATM    5  C5  UNL     1      22.242   1.336  50.308  1.00  0.00     0.236 A 
HETATM    6  N2  UNL     1      23.288   1.392  51.185  1.00  0.00    -0.224 NA
HETATM    7  C6  UNL     1      24.183   2.407  51.164  1.00  0.00     0.141 A 
HETATM    8  C14 UNL     1      24.011   3.398  50.221  1.00  0.00     0.041 A 
HETATM    9  C15 UNL     1      24.965   4.392  50.267  1.00  0.00     0.057 A 
HETATM   10  C16 UNL     1      24.863   5.426  49.350  1.00  0.00     0.102 A 
ENDROOT
BRANCH   7  11
HETATM   11  N3  UNL     1      25.188   2.276  52.157  1.00  0.00    -0.339 N 
HETATM   12  C7  UNL     1      25.009   2.659  53.544  1.00  0.00     0.154 C 
BRANCH  11  13
HETATM   13  C8  UNL     1      26.450   1.723  51.718  1.00  0.00     0.253 A 
HETATM   14  C9  UNL     1      26.400   0.260  51.955  1.00  0.00     0.027 A 
HETATM   15  C10 UNL     1      27.221  -0.507  52.641  1.00  0.00     0.009 A 
HETATM   16  C11 UNL     1      28.351   0.173  53.264  1.00  0.00    -0.040 A 
HETATM   17  C12 UNL     1      29.376  -0.518  54.070  1.00  0.00     0.050 C 
HETATM   18  C13 UNL     1      28.416   1.475  53.066  1.00  0.00     0.144 A 
HETATM   19  O2  UNL     1      27.553   2.287  52.344  1.00  0.00    -0.334 OA
ENDBRANCH  11  13
ENDBRANCH   7  11
BRANCH  10  20
HETATM   20  O3  UNL     1      25.802   6.455  49.355  1.00  0.00    -0.353 OA
HETATM   21  C17 UNL     1      25.661   7.459  50.350  1.00  0.00     0.210 C 
ENDBRANCH  10  20
BRANCH   1  22
HETATM   22  O1  UNL     1      23.774   6.462  47.559  1.00  0.00    -0.353 OA
HETATM   23  C1  UNL     1      22.873   7.516  47.524  1.00  0.00     0.210 C 
ENDBRANCH   1  22
TORSDOF 4
ENDMDL
MODEL 9
REMARK VINA RESULT:      -6.6      2.781      6.285
REMARK  4 active torsions:
REMARK  status: ('A' for Active; 'I' for Inactive)
REMARK    1  A    between atoms: O1_2  and  C2_3 
REMARK    2  A    between atoms: C6_9  and  N3_10 
REMARK    3  A    between atoms: N3_10  and  C8_12 
REMARK    4  A    between atoms: C16_21  and  O3_22 
ROOT
HETATM    1  C2  UNL     1      26.489   0.588  53.036  1.00  0.00     0.103 A 
HETATM    2  C3  UNL     1      27.123   1.491  52.188  1.00  0.00     0.072 A 
HETATM    3  C4  UNL     1      26.395   2.237  51.285  1.00  0.00     0.075 A 
HETATM    4  N1  UNL     1      26.909   3.129  50.428  1.00  0.00    -0.241 NA
HETATM    5  C5  UNL     1      26.141   3.822  49.574  1.00  0.00     0.236 A 
HETATM    6  N2  UNL     1      24.792   3.609  49.581  1.00  0.00    -0.224 NA
HETATM    7  C6  UNL     1      24.213   2.722  50.424  1.00  0.00     0.141 A 
HETATM    8  C14 UNL     1      25.032   2.027  51.288  1.00  0.00     0.041 A 
HETATM    9  C15 UNL     1      24.364   1.145  52.110  1.00  0.00     0.057 A 
HETATM   10  C16 UNL     1      25.117   0.406  53.009  1.00  0.00     0.102 A 
ENDROOT
BRANCH   7  11
HETATM   11  N3  UNL     1      22.805   2.655  50.271  1.00  0.00    -0.339 N 
HETATM   12  C7  UNL     1      22.132   1.761  49.348  1.00  0.00     0.154 C 
BRANCH  11  13
HETATM   13  C8  UNL     1      22.030   3.547  51.105  1.00  0.00     0.253 A 
HETATM   14  C9  UNL     1      20.899   4.048  50.288  1.00  0.00     0.027 A 
HETATM   15  C10 UNL     1      20.542   5.287  50.023  1.00  0.00     0.009 A 
HETATM   16  C11 UNL     1      21.374   6.328  50.616  1.00  0.00    -0.040 A 
HETATM   17  C12 UNL     1      21.132   7.771  50.431  1.00  0.00     0.050 C 
HETATM   18  C13 UNL     1      22.386   5.904  51.347  1.00  0.00     0.144 A 
HETATM   19  O2  UNL     1      22.766   4.600  51.630  1.00  0.00    -0.334 OA
ENDBRANCH  11  13
ENDBRANCH   7  11
BRANCH  10  20
HETATM   20  O3  UNL     1      24.490  -0.499  53.863  1.00  0.00    -0.353 OA
HETATM   21  C17 UNL     1      23.070  -0.503  53.878  1.00  0.00     0.210 C 
ENDBRANCH  10  20
BRANCH   1  22
HETATM   22  O1  UNL     1      27.178  -0.174  53.949  1.00  0.00    -0.353 OA
HETATM   23  C1  UNL     1      28.159   0.232  54.842  1.00  0.00     0.210 C 
ENDBRANCH   1  22
TORSDOF 4
ENDMDL
