MODEL 1
REMARK VINA RESULT:      -8.0      0.000      0.000
REMARK  3 active torsions:
REMARK  status: ('A' for Active; 'I' for Inactive)
REMARK    1  A    between atoms: C2_2  and  C3_4 
REMARK    2  A    between atoms: N3_12  and  C9_13 
REMARK    3  A    between atoms: C15_19  and  N4_20 
ROOT
HETATM    1  C3  UNL     1      23.542  -0.100  53.782  1.00  0.00     0.025 C 
HETATM    2  C4  UNL     1      22.852   0.318  52.740  1.00  0.00    -0.009 C 
HETATM    3  C5  UNL     1      23.302   1.231  51.680  1.00  0.00     0.024 C 
HETATM    4  C6  UNL     1      24.208   2.042  51.062  1.00  0.00     0.170 C 
HETATM    5  N1  UNL     1      25.346   2.789  50.687  1.00  0.00    -0.275 NA
HETATM    6  C7  UNL     1      26.479   2.686  51.288  1.00  0.00     0.228 C 
HETATM    7  N2  UNL     1      26.262   1.731  52.290  1.00  0.00    -0.237 NA
HETATM    8  C8  UNL     1      26.191   1.881  53.559  1.00  0.00     0.213 C 
HETATM    9  N3  UNL     1      25.950   0.504  53.987  1.00  0.00    -0.316 N 
HETATM   10  C15 UNL     1      24.789  -0.114  54.549  1.00  0.00     0.221 C 
ENDROOT
BRANCH   9  11
HETATM   11  C9  UNL     1      27.206  -0.180  53.760  1.00  0.00     0.037 A 
HETATM   12  C10 UNL     1      28.383   0.275  54.346  1.00  0.00     0.030 A 
HETATM   13  C11 UNL     1      29.654  -0.293  54.188  1.00  0.00     0.002 A 
HETATM   14  C12 UNL     1      29.729  -1.400  53.376  1.00  0.00     0.000 A 
HETATM   15  C13 UNL     1      28.607  -1.895  52.770  1.00  0.00     0.002 A 
HETATM   16  C14 UNL     1      27.397  -1.278  52.978  1.00  0.00     0.030 A 
ENDBRANCH   9  11
BRANCH  10  17
HETATM   17  N4  UNL     1      25.219  -1.452  54.920  1.00  0.00    -0.406 N 
HETATM   18  H15 UNL     1      26.217  -1.512  55.172  1.00  0.00     0.152 HD
HETATM   19  H16 UNL     1      24.557  -1.988  55.482  1.00  0.00     0.152 HD
ENDBRANCH  10  17
BRANCH   1  20
HETATM   20  C2  UNL     1      22.629  -1.003  54.559  1.00  0.00     0.155 C 
HETATM   21  C1  UNL     1      21.429  -1.688  54.030  1.00  0.00     0.096 C 
HETATM   22  O1  UNL     1      22.704  -1.350  55.790  1.00  0.00    -0.293 OA
ENDBRANCH   1  20
TORSDOF 3
ENDMDL
MODEL 2
REMARK VINA RESULT:      -7.0      2.094      4.779
REMARK  3 active torsions:
REMARK  status: ('A' for Active; 'I' for Inactive)
REMARK    1  A    between atoms: C2_2  and  C3_4 
REMARK    2  A    between atoms: N3_12  and  C9_13 
REMARK    3  A    between atoms: C15_19  and  N4_20 
ROOT
HETATM    1  C3  UNL     1      24.055  -0.247  53.574  1.00  0.00     0.025 C 
HETATM    2  C4  UNL     1      24.812  -0.583  54.598  1.00  0.00    -0.009 C 
HETATM    3  C5  UNL     1      26.166  -0.097  54.905  1.00  0.00     0.024 C 
HETATM    4  C6  UNL     1      27.284   0.647  54.669  1.00  0.00     0.170 C 
HETATM    5  N1  UNL     1      28.265   1.519  54.148  1.00  0.00    -0.275 NA
HETATM    6  C7  UNL     1      28.047   2.299  53.149  1.00  0.00     0.228 C 
HETATM    7  N2  UNL     1      26.716   2.050  52.790  1.00  0.00    -0.237 NA
HETATM    8  C8  UNL     1      26.247   1.452  51.759  1.00  0.00     0.213 C 
HETATM    9  N3  UNL     1      24.811   1.545  52.017  1.00  0.00    -0.316 N 
HETATM   10  C15 UNL     1      23.852   0.538  52.354  1.00  0.00     0.221 C 
ENDROOT
BRANCH   9  11
HETATM   11  C9  UNL     1      24.487   2.942  51.820  1.00  0.00     0.037 A 
HETATM   12  C10 UNL     1      24.767   3.577  50.615  1.00  0.00     0.030 A 
HETATM   13  C11 UNL     1      24.515   4.922  50.314  1.00  0.00     0.002 A 
HETATM   14  C12 UNL     1      23.938   5.671  51.314  1.00  0.00     0.000 A 
HETATM   15  C13 UNL     1      23.639   5.104  52.523  1.00  0.00     0.002 A 
HETATM   16  C14 UNL     1      23.920   3.776  52.735  1.00  0.00     0.030 A 
ENDBRANCH   9  11
BRANCH  10  17
HETATM   17  N4  UNL     1      22.568   1.216  52.315  1.00  0.00    -0.406 N 
HETATM   18  H15 UNL     1      22.518   1.971  51.615  1.00  0.00     0.152 HD
HETATM   19  H16 UNL     1      21.749   0.615  52.420  1.00  0.00     0.152 HD
ENDBRANCH  10  17
BRANCH   1  20
HETATM   20  C2  UNL     1      22.780  -1.026  53.718  1.00  0.00     0.155 C 
HETATM   21  C1  UNL     1      21.990  -1.178  54.961  1.00  0.00     0.096 C 
HETATM   22  O1  UNL     1      22.143  -1.690  52.826  1.00  0.00    -0.293 OA
ENDBRANCH   1  20
TORSDOF 3
ENDMDL
MODEL 3
REMARK VINA RESULT:      -7.0      2.372      5.290
REMARK  3 active torsions:
REMARK  status: ('A' for Active; 'I' for Inactive)
REMARK    1  A    between atoms: C2_2  and  C3_4 
REMARK    2  A    between atoms: N3_12  and  C9_13 
REMARK    3  A    between atoms: C15_19  and  N4_20 
ROOT
HETATM    1  C3  UNL     1      26.917   0.744  53.960  1.00  0.00     0.025 C 
HETATM    2  C4  UNL     1      26.394  -0.460  54.070  1.00  0.00    -0.009 C 
HETATM    3  C5  UNL     1      25.028  -0.876  53.720  1.00  0.00     0.024 C 
HETATM    4  C6  UNL     1      23.762  -0.664  53.262  1.00  0.00     0.170 C 
HETATM    5  N1  UNL     1      22.562  -0.121  52.751  1.00  0.00    -0.275 NA
HETATM    6  C7  UNL     1      22.475   1.080  52.297  1.00  0.00     0.228 C 
HETATM    7  N2  UNL     1      23.765   1.607  52.444  1.00  0.00    -0.237 NA
HETATM    8  C8  UNL     1      24.195   2.499  53.256  1.00  0.00     0.213 C 
HETATM    9  N3  UNL     1      25.605   2.562  52.875  1.00  0.00    -0.316 N 
HETATM   10  C15 UNL     1      26.784   2.150  53.572  1.00  0.00     0.221 C 
ENDROOT
BRANCH   9  11
HETATM   11  C9  UNL     1      25.610   3.202  51.576  1.00  0.00     0.037 A 
HETATM   12  C10 UNL     1      24.773   4.279  51.307  1.00  0.00     0.030 A 
HETATM   13  C11 UNL     1      24.680   4.966  50.089  1.00  0.00     0.002 A 
HETATM   14  C12 UNL     1      25.497   4.522  49.076  1.00  0.00     0.000 A 
HETATM   15  C13 UNL     1      26.343   3.465  49.278  1.00  0.00     0.002 A 
HETATM   16  C14 UNL     1      26.372   2.847  50.505  1.00  0.00     0.030 A 
ENDBRANCH   9  11
BRANCH  10  17
HETATM   17  N4  UNL     1      27.888   2.627  52.756  1.00  0.00    -0.406 N 
HETATM   18  H15 UNL     1      27.622   3.368  52.091  1.00  0.00     0.152 HD
HETATM   19  H16 UNL     1      28.782   2.724  53.238  1.00  0.00     0.152 HD
ENDBRANCH  10  17
BRANCH   1  20
HETATM   20  C2  UNL     1      28.330   0.639  54.457  1.00  0.00     0.155 C 
HETATM   21  C1  UNL     1      29.295  -0.429  54.111  1.00  0.00     0.096 C 
HETATM   22  O1  UNL     1      28.960   1.424  55.249  1.00  0.00    -0.293 OA
ENDBRANCH   1  20
TORSDOF 3
ENDMDL
MODEL 4
REMARK VINA RESULT:      -7.0      1.896      2.324
REMARK  3 active torsions:
REMARK  status: ('A' for Active; 'I' for Inactive)
REMARK    1  A    between atoms: C2_2  and  C3_4 
REMARK    2  A    between atoms: N3_12  and  C9_13 
REMARK    3  A    between atoms: C15_19  and  N4_20 
ROOT
HETATM    1  C3  UNL     1      22.330   1.478  51.928  1.00  0.00     0.025 C 
HETATM    2  C4  UNL     1      22.078   1.878  50.698  1.00  0.00    -0.009 C 
HETATM    3  C5  UNL     1      22.989   2.580  49.783  1.00  0.00     0.024 C 
HETATM    4  C6  UNL     1      24.173   3.160  49.438  1.00  0.00     0.170 C 
HETATM    5  N1  UNL     1      25.490   3.670  49.400  1.00  0.00    -0.275 NA
HETATM    6  C7  UNL     1      26.349   3.458  50.335  1.00  0.00     0.228 C 
HETATM    7  N2  UNL     1      25.665   2.671  51.271  1.00  0.00    -0.237 NA
HETATM    8  C8  UNL     1      25.243   2.976  52.441  1.00  0.00     0.213 C 
HETATM    9  N3  UNL     1      24.632   1.712  52.851  1.00  0.00    -0.316 N 
HETATM   10  C15 UNL     1      23.262   1.355  53.052  1.00  0.00     0.221 C 
ENDROOT
BRANCH   9  11
HETATM   11  C9  UNL     1      25.748   0.817  53.076  1.00  0.00     0.037 A 
HETATM   12  C10 UNL     1      26.583   0.979  54.176  1.00  0.00     0.030 A 
HETATM   13  C11 UNL     1      27.697   0.188  54.488  1.00  0.00     0.002 A 
HETATM   14  C12 UNL     1      27.977  -0.839  53.617  1.00  0.00     0.000 A 
HETATM   15  C13 UNL     1      27.192  -1.050  52.516  1.00  0.00     0.002 A 
HETATM   16  C14 UNL     1      26.117  -0.227  52.283  1.00  0.00     0.030 A 
ENDBRANCH   9  11
BRANCH  10  17
HETATM   17  N4  UNL     1      23.303   0.017  53.618  1.00  0.00    -0.406 N 
HETATM   18  H15 UNL     1      23.069  -0.727  52.943  1.00  0.00     0.152 HD
HETATM   19  H16 UNL     1      24.066  -0.161  54.272  1.00  0.00     0.152 HD
ENDBRANCH  10  17
BRANCH   1  20
HETATM   20  C2  UNL     1      21.074   0.826  52.428  1.00  0.00     0.155 C 
HETATM   21  C1  UNL     1      20.101   0.072  51.605  1.00  0.00     0.096 C 
HETATM   22  O1  UNL     1      20.610   0.793  53.621  1.00  0.00    -0.293 OA
ENDBRANCH   1  20
TORSDOF 3
ENDMDL
MODEL 5
REMARK VINA RESULT:      -6.8      3.460      5.564
REMARK  3 active torsions:
REMARK  status: ('A' for Active; 'I' for Inactive)
REMARK    1  A    between atoms: C2_2  and  C3_4 
REMARK    2  A    between atoms: N3_12  and  C9_13 
REMARK    3  A    between atoms: C15_19  and  N4_20 
ROOT
HETATM    1  C3  UNL     1      24.422   4.794  50.560  1.00  0.00     0.025 C 
HETATM    2  C4  UNL     1      23.340   5.430  50.959  1.00  0.00    -0.009 C 
HETATM    3  C5  UNL     1      22.169   4.860  51.642  1.00  0.00     0.024 C 
HETATM    4  C6  UNL     1      21.445   3.843  52.191  1.00  0.00     0.170 C 
HETATM    5  N1  UNL     1      20.965   2.602  52.663  1.00  0.00    -0.275 NA
HETATM    6  C7  UNL     1      21.684   1.535  52.679  1.00  0.00     0.228 C 
HETATM    7  N2  UNL     1      22.921   1.935  52.157  1.00  0.00    -0.237 NA
HETATM    8  C8  UNL     1      23.459   1.656  51.028  1.00  0.00     0.213 C 
HETATM    9  N3  UNL     1      24.720   2.389  51.137  1.00  0.00    -0.316 N 
HETATM   10  C15 UNL     1      25.190   3.552  50.450  1.00  0.00     0.221 C 
ENDROOT
BRANCH   9  11
HETATM   11  C9  UNL     1      25.494   1.652  52.114  1.00  0.00     0.037 A 
HETATM   12  C10 UNL     1      26.164   0.486  51.762  1.00  0.00     0.030 A 
HETATM   13  C11 UNL     1      26.929  -0.316  52.620  1.00  0.00     0.002 A 
HETATM   14  C12 UNL     1      27.014   0.102  53.928  1.00  0.00     0.000 A 
HETATM   15  C13 UNL     1      26.376   1.242  54.336  1.00  0.00     0.002 A 
HETATM   16  C14 UNL     1      25.646   1.971  53.429  1.00  0.00     0.030 A 
ENDBRANCH   9  11
BRANCH  10  17
HETATM   17  N4  UNL     1      26.576   3.697  50.864  1.00  0.00    -0.406 N 
HETATM   18  H15 UNL     1      26.739   3.465  51.856  1.00  0.00     0.152 HD
HETATM   19  H16 UNL     1      27.273   3.388  50.186  1.00  0.00     0.152 HD
ENDBRANCH  10  17
BRANCH   1  20
HETATM   20  C2  UNL     1      25.304   5.823  49.914  1.00  0.00     0.155 C 
HETATM   21  C1  UNL     1      25.553   7.192  50.419  1.00  0.00     0.096 C 
HETATM   22  O1  UNL     1      25.992   5.725  48.838  1.00  0.00    -0.293 OA
ENDBRANCH   1  20
TORSDOF 3
ENDMDL
MODEL 6
REMARK VINA RESULT:      -6.7      2.856      6.077
REMARK  3 active torsions:
REMARK  status: ('A' for Active; 'I' for Inactive)
REMARK    1  A    between atoms: C2_2  and  C3_4 
REMARK    2  A    between atoms: N3_12  and  C9_13 
REMARK    3  A    between atoms: C15_19  and  N4_20 
ROOT
HETATM    1  C3  UNL     1      25.078   1.307  53.157  1.00  0.00     0.025 C 
HETATM    2  C4  UNL     1      24.731   0.076  53.472  1.00  0.00    -0.009 C 
HETATM    3  C5  UNL     1      23.396  -0.531  53.362  1.00  0.00     0.024 C 
HETATM    4  C6  UNL     1      22.066  -0.521  53.061  1.00  0.00     0.170 C 
HETATM    5  N1  UNL     1      20.753  -0.185  52.664  1.00  0.00    -0.275 NA
HETATM    6  C7  UNL     1      20.459   0.931  52.095  1.00  0.00     0.228 C 
HETATM    7  N2  UNL     1      21.679   1.613  52.004  1.00  0.00    -0.237 NA
HETATM    8  C8  UNL     1      22.089   2.644  52.644  1.00  0.00     0.213 C 
HETATM    9  N3  UNL     1      23.422   2.815  52.068  1.00  0.00    -0.316 N 
HETATM   10  C15 UNL     1      24.720   2.629  52.638  1.00  0.00     0.221 C 
ENDROOT
BRANCH   9  11
HETATM   11  C9  UNL     1      23.185   3.281  50.717  1.00  0.00     0.037 A 
HETATM   12  C10 UNL     1      22.868   4.611  50.467  1.00  0.00     0.030 A 
HETATM   13  C11 UNL     1      22.604   5.172  49.210  1.00  0.00     0.002 A 
HETATM   14  C12 UNL     1      22.669   4.316  48.136  1.00  0.00     0.000 A 
HETATM   15  C13 UNL     1      22.977   2.995  48.317  1.00  0.00     0.002 A 
HETATM   16  C14 UNL     1      23.221   2.525  49.585  1.00  0.00     0.030 A 
ENDBRANCH   9  11
BRANCH  10  17
HETATM   17  N4  UNL     1      25.645   3.118  51.630  1.00  0.00    -0.406 N 
HETATM   18  H15 UNL     1      25.186   3.430  50.761  1.00  0.00     0.152 HD
HETATM   19  H16 UNL     1      26.422   3.680  51.981  1.00  0.00     0.152 HD
ENDBRANCH  10  17
BRANCH   1  20
HETATM   20  C2  UNL     1      26.543   1.424  53.464  1.00  0.00     0.155 C 
HETATM   21  C1  UNL     1      27.592   0.456  53.072  1.00  0.00     0.096 C 
HETATM   22  O1  UNL     1      27.156   2.351  54.101  1.00  0.00    -0.293 OA
ENDBRANCH   1  20
TORSDOF 3
ENDMDL
MODEL 7
REMARK VINA RESULT:      -6.7      3.047      6.424
REMARK  3 active torsions:
REMARK  status: ('A' for Active; 'I' for Inactive)
REMARK    1  A    between atoms: C2_2  and  C3_4 
REMARK    2  A    between atoms: N3_12  and  C9_13 
REMARK    3  A    between atoms: C15_19  and  N4_20 
ROOT
HETATM    1  C3  UNL     1      24.111   0.682  53.425  1.00  0.00     0.025 C 
HETATM    2  C4  UNL     1      23.931  -0.482  54.016  1.00  0.00    -0.009 C 
HETATM    3  C5  UNL     1      22.665  -1.207  54.193  1.00  0.00     0.024 C 
HETATM    4  C6  UNL     1      21.317  -1.372  54.063  1.00  0.00     0.170 C 
HETATM    5  N1  UNL     1      19.942  -1.236  53.772  1.00  0.00    -0.275 NA
HETATM    6  C7  UNL     1      19.473  -0.291  53.035  1.00  0.00     0.228 C 
HETATM    7  N2  UNL     1      20.597   0.456  52.662  1.00  0.00    -0.237 NA
HETATM    8  C8  UNL     1      20.958   1.628  53.032  1.00  0.00     0.213 C 
HETATM    9  N3  UNL     1      22.198   1.787  52.273  1.00  0.00    -0.316 N 
HETATM   10  C15 UNL     1      23.561   1.832  52.704  1.00  0.00     0.221 C 
ENDROOT
BRANCH   9  11
HETATM   11  C9  UNL     1      21.775   1.941  50.897  1.00  0.00     0.037 A 
HETATM   12  C10 UNL     1      21.265   3.151  50.438  1.00  0.00     0.030 A 
HETATM   13  C11 UNL     1      20.811   3.413  49.139  1.00  0.00     0.002 A 
HETATM   14  C12 UNL     1      20.882   2.369  48.247  1.00  0.00     0.000 A 
HETATM   15  C13 UNL     1      21.374   1.153  48.638  1.00  0.00     0.002 A 
HETATM   16  C14 UNL     1      21.798   0.980  49.933  1.00  0.00     0.030 A 
ENDBRANCH   9  11
BRANCH  10  17
HETATM   17  N4  UNL     1      24.319   2.178  51.513  1.00  0.00    -0.406 N 
HETATM   18  H15 UNL     1      23.951   1.753  50.649  1.00  0.00     0.152 HD
HETATM   19  H16 UNL     1      24.645   3.144  51.463  1.00  0.00     0.152 HD
ENDBRANCH  10  17
BRANCH   1  20
HETATM   20  C2  UNL     1      25.579   0.982  53.520  1.00  0.00     0.155 C 
HETATM   21  C1  UNL     1      26.674   0.125  53.014  1.00  0.00     0.096 C 
HETATM   22  O1  UNL     1      26.155   2.003  54.036  1.00  0.00    -0.293 OA
ENDBRANCH   1  20
TORSDOF 3
ENDMDL
MODEL 8
REMARK VINA RESULT:      -6.3      3.571      6.695
REMARK  3 active torsions:
REMARK  status: ('A' for Active; 'I' for Inactive)
REMARK    1  A    between atoms: C2_2  and  C3_4 
REMARK    2  A    between atoms: N3_12  and  C9_13 
REMARK    3  A    between atoms: C15_19  and  N4_20 
ROOT
HETATM    1  C3  UNL     1      24.529   4.559  50.731  1.00  0.00     0.025 C 
HETATM    2  C4  UNL     1      25.716   4.216  50.273  1.00  0.00    -0.009 C 
HETATM    3  C5  UNL     1      26.479   3.001  50.593  1.00  0.00     0.024 C 
HETATM    4  C6  UNL     1      26.679   1.809  51.225  1.00  0.00     0.170 C 
HETATM    5  N1  UNL     1      26.576   0.643  52.014  1.00  0.00    -0.275 NA
HETATM    6  C7  UNL     1      25.503   0.317  52.645  1.00  0.00     0.228 C 
HETATM    7  N2  UNL     1      24.593   1.338  52.343  1.00  0.00    -0.237 NA
HETATM    8  C8  UNL     1      24.131   2.268  53.093  1.00  0.00     0.213 C 
HETATM    9  N3  UNL     1      23.251   2.966  52.157  1.00  0.00    -0.316 N 
HETATM   10  C15 UNL     1      23.358   4.260  51.558  1.00  0.00     0.221 C 
ENDROOT
BRANCH   9  11
HETATM   11  C9  UNL     1      22.138   2.063  51.950  1.00  0.00     0.037 A 
HETATM   12  C10 UNL     1      21.979   1.391  50.743  1.00  0.00     0.030 A 
HETATM   13  C11 UNL     1      20.938   0.509  50.423  1.00  0.00     0.002 A 
HETATM   14  C12 UNL     1      19.996   0.298  51.402  1.00  0.00     0.000 A 
HETATM   15  C13 UNL     1      20.098   0.931  52.612  1.00  0.00     0.002 A 
HETATM   16  C14 UNL     1      21.151   1.782  52.844  1.00  0.00     0.030 A 
ENDBRANCH   9  11
BRANCH  10  17
HETATM   17  N4  UNL     1      22.099   4.455  50.859  1.00  0.00    -0.406 N 
HETATM   18  H15 UNL     1      21.877   3.705  50.186  1.00  0.00     0.152 HD
HETATM   19  H16 UNL     1      21.333   4.823  51.425  1.00  0.00     0.152 HD
ENDBRANCH  10  17
BRANCH   1  20
HETATM   20  C2  UNL     1      24.203   5.885  50.108  1.00  0.00     0.155 C 
HETATM   21  C1  UNL     1      24.405   7.211  50.734  1.00  0.00     0.096 C 
HETATM   22  O1  UNL     1      23.703   6.126  48.953  1.00  0.00    -0.293 OA
ENDBRANCH   1  20
TORSDOF 3
ENDMDL
MODEL 9
REMARK VINA RESULT:      -6.2      2.018      2.872
REMARK  3 active torsions:
REMARK  status: ('A' for Active; 'I' for Inactive)
REMARK    1  A    between atoms: C2_2  and  C3_4 
REMARK    2  A    between atoms: N3_12  and  C9_13 
REMARK    3  A    between atoms: C15_19  and  N4_20 
ROOT
HETATM    1  C3  UNL     1      21.709   0.331  52.477  1.00  0.00     0.025 C 
HETATM    2  C4  UNL     1      21.145   0.216  51.291  1.00  0.00    -0.009 C 
HETATM    3  C5  UNL     1      21.509   0.927  50.057  1.00  0.00     0.024 C 
HETATM    4  C6  UNL     1      22.244   1.810  49.322  1.00  0.00     0.170 C 
HETATM    5  N1  UNL     1      23.166   2.774  48.859  1.00  0.00    -0.275 NA
HETATM    6  C7  UNL     1      24.140   3.211  49.578  1.00  0.00     0.228 C 
HETATM    7  N2  UNL     1      24.017   2.525  50.793  1.00  0.00    -0.237 NA
HETATM    8  C8  UNL     1      23.657   2.960  51.943  1.00  0.00     0.213 C 
HETATM    9  N3  UNL     1      23.748   1.737  52.740  1.00  0.00    -0.316 N 
HETATM   10  C15 UNL     1      22.730   0.930  53.339  1.00  0.00     0.221 C 
ENDROOT
BRANCH   9  11
HETATM   11  C9  UNL     1      25.168   1.479  52.864  1.00  0.00     0.037 A 
HETATM   12  C10 UNL     1      25.742   0.354  52.282  1.00  0.00     0.030 A 
HETATM   13  C11 UNL     1      27.095  -0.006  52.347  1.00  0.00     0.002 A 
HETATM   14  C12 UNL     1      27.917   0.840  53.054  1.00  0.00     0.000 A 
HETATM   15  C13 UNL     1      27.411   1.964  53.650  1.00  0.00     0.002 A 
HETATM   16  C14 UNL     1      26.071   2.244  53.538  1.00  0.00     0.030 A 
ENDBRANCH   9  11
BRANCH  10  17
HETATM   17  N4  UNL     1      23.449  -0.047  54.139  1.00  0.00    -0.406 N 
HETATM   18  H15 UNL     1      24.360   0.290  54.486  1.00  0.00     0.152 HD
HETATM   19  H16 UNL     1      22.876  -0.600  54.778  1.00  0.00     0.152 HD
ENDBRANCH  10  17
BRANCH   1  20
HETATM   20  C2  UNL     1      20.963  -0.597  53.391  1.00  0.00     0.155 C 
HETATM   21  C1  UNL     1      21.491  -1.853  53.971  1.00  0.00     0.096 C 
HETATM   22  O1  UNL     1      19.767  -0.492  53.837  1.00  0.00    -0.293 OA
ENDBRANCH   1  20
TORSDOF 3
ENDMDL
