MODEL 1
REMARK VINA RESULT:      -7.5      0.000      0.000
REMARK  10 active torsions:
REMARK  status: ('A' for Active; 'I' for Inactive)
REMARK    1  A    between atoms: C4_4  and  N1_5 
REMARK    2  A    between atoms: C5_6  and  C6_7 
REMARK    3  A    between atoms: C6_7  and  C7_8 
REMARK    4  A    between atoms: C7_8  and  C8_9 
REMARK    5  A    between atoms: C8_9  and  C9_11 
REMARK    6  A    between atoms: C9_11  and  N2_12 
REMARK    7  A    between atoms: C10_13  and  N3_14 
REMARK    8  A    between atoms: C11_16  and  N5_17 
REMARK    9  A    between atoms: N5_17  and  C12_18 
REMARK   10  A    between atoms: C12_18  and  C13_19 
ROOT
HETATM    1  C1  UNL     1      23.020  -0.622  53.826  1.00  0.00     0.027 C 
HETATM    2  C2  UNL     1      22.699   0.491  53.147  1.00  0.00     0.002 A 
HETATM    3  C3  UNL     1      21.361   1.051  53.135  1.00  0.00     0.042 A 
HETATM    4  C4  UNL     1      21.165   2.171  52.418  1.00  0.00     0.051 A 
HETATM    5  C10 UNL     1      22.218   2.866  51.643  1.00  0.00     0.389 A 
HETATM    6  N4  UNL     1      23.501   2.205  51.738  1.00  0.00    -0.231 NA
HETATM    7  C11 UNL     1      23.762   1.145  52.397  1.00  0.00     0.131 A 
ENDROOT
BRANCH   4   8
HETATM    8  N1  UNL     1      19.821   2.531  52.544  1.00  0.00    -0.405 NA
HETATM    9  C5  UNL     1      19.099   3.069  51.654  1.00  0.00     0.325 C 
BRANCH   9  10
HETATM   10  C6  UNL     1      17.800   3.554  51.398  1.00  0.00     0.004 C 
BRANCH  10  11
HETATM   11  C7  UNL     1      16.708   4.221  51.311  1.00  0.00     0.018 C 
BRANCH  11  12
HETATM   12  C8  UNL     1      15.572   3.691  52.029  1.00  0.00     0.025 C 
HETATM   13 BR1  UNL     1      14.512   2.228  51.412  1.00  0.00    -0.050 Br
BRANCH  12  14
HETATM   14  C9  UNL     1      14.877   3.945  53.101  1.00  0.00     0.099 C 
BRANCH  14  15
HETATM   15  N2  UNL     1      14.785   4.617  54.360  1.00  0.00    -0.407 N 
HETATM   16  H8  UNL     1      13.775   4.897  54.452  1.00  0.00     0.155 HD
HETATM   17  H9  UNL     1      15.817   4.396  54.394  1.00  0.00     0.155 HD
ENDBRANCH  14  15
ENDBRANCH  12  14
ENDBRANCH  11  12
ENDBRANCH  10  11
ENDBRANCH   9  10
ENDBRANCH   4   8
BRANCH   5  18
HETATM   18  N3  UNL     1      22.421   4.176  52.286  1.00  0.00     0.109 N 
HETATM   19  H11 UNL     1      22.186   4.958  51.665  1.00  0.00     0.316 HD
HETATM   20  H12 UNL     1      23.467   4.175  52.494  1.00  0.00     0.316 HD
ENDBRANCH   5  18
BRANCH   7  21
HETATM   21  N5  UNL     1      25.104   0.670  52.358  1.00  0.00    -0.370 N 
HETATM   22  H13 UNL     1      25.194  -0.319  51.969  1.00  0.00     0.161 HD
BRANCH  21  23
HETATM   23  C12 UNL     1      26.276   1.439  52.805  1.00  0.00     0.160 C 
BRANCH  23  24
HETATM   24  C13 UNL     1      27.371   0.420  53.001  1.00  0.00    -0.035 A 
HETATM   25  C14 UNL     1      27.230  -0.933  52.782  1.00  0.00     0.009 A 
HETATM   26  C15 UNL     1      28.310  -1.778  53.009  1.00  0.00     0.001 A 
HETATM   27  C16 UNL     1      29.537  -1.315  53.450  1.00  0.00     0.001 A 
HETATM   28  C17 UNL     1      29.587   0.068  53.646  1.00  0.00     0.007 A 
HETATM   29  C18 UNL     1      28.564   0.959  53.442  1.00  0.00    -0.054 A 
HETATM   30  C19 UNL     1      28.758   2.412  53.696  1.00  0.00     0.049 C 
ENDBRANCH  23  24
ENDBRANCH  21  23
ENDBRANCH   7  21
TORSDOF 10
ENDMDL
MODEL 2
REMARK VINA RESULT:      -7.5      5.566      9.108
REMARK  10 active torsions:
REMARK  status: ('A' for Active; 'I' for Inactive)
REMARK    1  A    between atoms: C4_4  and  N1_5 
REMARK    2  A    between atoms: C5_6  and  C6_7 
REMARK    3  A    between atoms: C6_7  and  C7_8 
REMARK    4  A    between atoms: C7_8  and  C8_9 
REMARK    5  A    between atoms: C8_9  and  C9_11 
REMARK    6  A    between atoms: C9_11  and  N2_12 
REMARK    7  A    between atoms: C10_13  and  N3_14 
REMARK    8  A    between atoms: C11_16  and  N5_17 
REMARK    9  A    between atoms: N5_17  and  C12_18 
REMARK   10  A    between atoms: C12_18  and  C13_19 
ROOT
HETATM    1  C1  UNL     1      22.853   4.534  49.610  1.00  0.00     0.027 C 
HETATM    2  C2  UNL     1      24.006   3.914  49.908  1.00  0.00     0.002 A 
HETATM    3  C3  UNL     1      25.288   4.329  49.370  1.00  0.00     0.042 A 
HETATM    4  C4  UNL     1      26.372   3.628  49.744  1.00  0.00     0.051 A 
HETATM    5  C10 UNL     1      26.344   2.468  50.663  1.00  0.00     0.389 A 
HETATM    6  N4  UNL     1      25.009   2.159  51.124  1.00  0.00    -0.231 NA
HETATM    7  C11 UNL     1      23.938   2.777  50.814  1.00  0.00     0.131 A 
ENDROOT
BRANCH   4   8
HETATM    8  N1  UNL     1      27.485   4.191  49.115  1.00  0.00    -0.405 NA
HETATM    9  C5  UNL     1      27.572   5.363  48.645  1.00  0.00     0.325 C 
BRANCH   9  10
HETATM   10  C6  UNL     1      28.447   6.250  47.984  1.00  0.00     0.004 C 
BRANCH  10  11
HETATM   11  C7  UNL     1      29.156   7.239  47.582  1.00  0.00     0.018 C 
BRANCH  11  12
HETATM   12  C8  UNL     1      29.175   8.405  48.435  1.00  0.00     0.025 C 
HETATM   13 BR1  UNL     1      30.703   9.523  48.675  1.00  0.00    -0.050 Br
BRANCH  12  14
HETATM   14  C9  UNL     1      28.396   9.024  49.276  1.00  0.00     0.099 C 
BRANCH  14  15
HETATM   15  N2  UNL     1      28.210   9.578  50.581  1.00  0.00    -0.407 N 
HETATM   16  H8  UNL     1      27.714   8.831  51.132  1.00  0.00     0.155 HD
HETATM   17  H9  UNL     1      28.702  10.405  50.146  1.00  0.00     0.155 HD
ENDBRANCH  14  15
ENDBRANCH  12  14
ENDBRANCH  11  12
ENDBRANCH  10  11
ENDBRANCH   9  10
ENDBRANCH   4   8
BRANCH   5  18
HETATM   18  N3  UNL     1      27.078   2.870  51.876  1.00  0.00     0.109 N 
HETATM   19  H11 UNL     1      27.598   2.093  52.297  1.00  0.00     0.316 HD
HETATM   20  H12 UNL     1      26.296   3.185  52.528  1.00  0.00     0.316 HD
ENDBRANCH   5  18
BRANCH   7  21
HETATM   21  N5  UNL     1      22.725   2.306  51.395  1.00  0.00    -0.370 N 
HETATM   22  H13 UNL     1      22.333   2.955  52.146  1.00  0.00     0.161 HD
BRANCH  21  23
HETATM   23  C12 UNL     1      22.053   1.051  51.024  1.00  0.00     0.160 C 
BRANCH  23  24
HETATM   24  C13 UNL     1      21.920   0.274  52.311  1.00  0.00    -0.035 A 
HETATM   25  C14 UNL     1      22.970  -0.055  53.139  1.00  0.00     0.009 A 
HETATM   26  C15 UNL     1      22.725  -0.787  54.296  1.00  0.00     0.001 A 
HETATM   27  C16 UNL     1      21.456  -1.204  54.657  1.00  0.00     0.001 A 
HETATM   28  C17 UNL     1      20.454  -0.825  53.758  1.00  0.00     0.007 A 
HETATM   29  C18 UNL     1      20.624  -0.106  52.602  1.00  0.00    -0.054 A 
HETATM   30  C19 UNL     1      19.462   0.224  51.734  1.00  0.00     0.049 C 
ENDBRANCH  23  24
ENDBRANCH  21  23
ENDBRANCH   7  21
TORSDOF 10
ENDMDL
MODEL 3
REMARK VINA RESULT:      -7.4      2.214      2.424
REMARK  10 active torsions:
REMARK  status: ('A' for Active; 'I' for Inactive)
REMARK    1  A    between atoms: C4_4  and  N1_5 
REMARK    2  A    between atoms: C5_6  and  C6_7 
REMARK    3  A    between atoms: C6_7  and  C7_8 
REMARK    4  A    between atoms: C7_8  and  C8_9 
REMARK    5  A    between atoms: C8_9  and  C9_11 
REMARK    6  A    between atoms: C9_11  and  N2_12 
REMARK    7  A    between atoms: C10_13  and  N3_14 
REMARK    8  A    between atoms: C11_16  and  N5_17 
REMARK    9  A    between atoms: N5_17  and  C12_18 
REMARK   10  A    between atoms: C12_18  and  C13_19 
ROOT
HETATM    1  C1  UNL     1      23.362  -1.462  55.513  1.00  0.00     0.027 C 
HETATM    2  C2  UNL     1      22.784  -0.834  54.476  1.00  0.00     0.002 A 
HETATM    3  C3  UNL     1      21.349  -0.807  54.269  1.00  0.00     0.042 A 
HETATM    4  C4  UNL     1      20.890  -0.145  53.193  1.00  0.00     0.051 A 
HETATM    5  C10 UNL     1      21.749   0.555  52.211  1.00  0.00     0.389 A 
HETATM    6  N4  UNL     1      23.155   0.451  52.533  1.00  0.00    -0.231 NA
HETATM    7  C11 UNL     1      23.661  -0.157  53.531  1.00  0.00     0.131 A 
ENDROOT
BRANCH   4   8
HETATM    8  N1  UNL     1      19.497  -0.248  53.187  1.00  0.00    -0.405 NA
HETATM    9  C5  UNL     1      18.756  -0.376  52.169  1.00  0.00     0.325 C 
BRANCH   9  10
HETATM   10  C6  UNL     1      17.411  -0.504  51.763  1.00  0.00     0.004 C 
BRANCH  10  11
HETATM   11  C7  UNL     1      16.208  -0.341  51.351  1.00  0.00     0.018 C 
BRANCH  11  12
HETATM   12  C8  UNL     1      15.397   0.597  52.092  1.00  0.00     0.025 C 
HETATM   13 BR1  UNL     1      15.488   2.491  51.867  1.00  0.00    -0.050 Br
BRANCH  12  14
HETATM   14  C9  UNL     1      14.521   0.597  53.057  1.00  0.00     0.099 C 
BRANCH  14  15
HETATM   15  N2  UNL     1      13.629  -0.147  53.889  1.00  0.00    -0.407 N 
HETATM   16  H8  UNL     1      13.964   0.017  54.873  1.00  0.00     0.155 HD
HETATM   17  H9  UNL     1      13.192  -0.392  52.960  1.00  0.00     0.155 HD
ENDBRANCH  14  15
ENDBRANCH  12  14
ENDBRANCH  11  12
ENDBRANCH  10  11
ENDBRANCH   9  10
ENDBRANCH   4   8
BRANCH   5  18
HETATM   18  N3  UNL     1      21.441   1.992  52.328  1.00  0.00     0.109 N 
HETATM   19  H11 UNL     1      20.829   2.324  51.575  1.00  0.00     0.316 HD
HETATM   20  H12 UNL     1      22.403   2.444  52.246  1.00  0.00     0.316 HD
ENDBRANCH   5  18
BRANCH   7  21
HETATM   21  N5  UNL     1      25.080  -0.125  53.660  1.00  0.00    -0.370 N 
HETATM   22  H13 UNL     1      25.435  -0.562  54.567  1.00  0.00     0.161 HD
BRANCH  21  23
HETATM   23  C12 UNL     1      25.997   0.450  52.663  1.00  0.00     0.160 C 
BRANCH  23  24
HETATM   24  C13 UNL     1      27.349  -0.141  52.979  1.00  0.00    -0.035 A 
HETATM   25  C14 UNL     1      27.655  -1.482  52.902  1.00  0.00     0.009 A 
HETATM   26  C15 UNL     1      28.937  -1.909  53.230  1.00  0.00     0.001 A 
HETATM   27  C16 UNL     1      29.932  -1.037  53.635  1.00  0.00     0.001 A 
HETATM   28  C17 UNL     1      29.531   0.301  53.684  1.00  0.00     0.007 A 
HETATM   29  C18 UNL     1      28.287   0.792  53.375  1.00  0.00    -0.054 A 
HETATM   30  C19 UNL     1      27.998   2.248  53.477  1.00  0.00     0.049 C 
ENDBRANCH  23  24
ENDBRANCH  21  23
ENDBRANCH   7  21
TORSDOF 10
ENDMDL
MODEL 4
REMARK VINA RESULT:      -7.4      5.685      9.471
REMARK  10 active torsions:
REMARK  status: ('A' for Active; 'I' for Inactive)
REMARK    1  A    between atoms: C4_4  and  N1_5 
REMARK    2  A    between atoms: C5_6  and  C6_7 
REMARK    3  A    between atoms: C6_7  and  C7_8 
REMARK    4  A    between atoms: C7_8  and  C8_9 
REMARK    5  A    between atoms: C8_9  and  C9_11 
REMARK    6  A    between atoms: C9_11  and  N2_12 
REMARK    7  A    between atoms: C10_13  and  N3_14 
REMARK    8  A    between atoms: C11_16  and  N5_17 
REMARK    9  A    between atoms: N5_17  and  C12_18 
REMARK   10  A    between atoms: C12_18  and  C13_19 
ROOT
HETATM    1  C1  UNL     1      26.622   1.669  51.428  1.00  0.00     0.027 C 
HETATM    2  C2  UNL     1      26.095   2.802  50.933  1.00  0.00     0.002 A 
HETATM    3  C3  UNL     1      26.755   3.603  49.921  1.00  0.00     0.042 A 
HETATM    4  C4  UNL     1      26.126   4.716  49.505  1.00  0.00     0.051 A 
HETATM    5  C10 UNL     1      24.812   5.175  50.010  1.00  0.00     0.389 A 
HETATM    6  N4  UNL     1      24.266   4.289  51.014  1.00  0.00    -0.231 NA
HETATM    7  C11 UNL     1      24.802   3.220  51.456  1.00  0.00     0.131 A 
ENDROOT
BRANCH   4   8
HETATM    8  N1  UNL     1      26.930   5.329  48.541  1.00  0.00    -0.405 NA
HETATM    9  C5  UNL     1      28.190   5.451  48.577  1.00  0.00     0.325 C 
BRANCH   9  10
HETATM   10  C6  UNL     1      29.293   5.962  47.863  1.00  0.00     0.004 C 
BRANCH  10  11
HETATM   11  C7  UNL     1      30.349   6.564  47.456  1.00  0.00     0.018 C 
BRANCH  11  12
HETATM   12  C8  UNL     1      31.383   6.783  48.440  1.00  0.00     0.025 C 
HETATM   13 BR1  UNL     1      32.674   8.185  48.332  1.00  0.00    -0.050 Br
BRANCH  12  14
HETATM   14  C9  UNL     1      31.846   6.229  49.525  1.00  0.00     0.099 C 
BRANCH  14  15
HETATM   15  N2  UNL     1      31.578   5.630  50.795  1.00  0.00    -0.407 N 
HETATM   16  H8  UNL     1      31.157   4.692  50.576  1.00  0.00     0.155 HD
HETATM   17  H9  UNL     1      31.985   6.538  51.150  1.00  0.00     0.155 HD
ENDBRANCH  14  15
ENDBRANCH  12  14
ENDBRANCH  11  12
ENDBRANCH  10  11
ENDBRANCH   9  10
ENDBRANCH   4   8
BRANCH   5  18
HETATM   18  N3  UNL     1      23.871   5.090  48.880  1.00  0.00     0.109 N 
HETATM   19  H11 UNL     1      22.954   4.724  49.159  1.00  0.00     0.316 HD
HETATM   20  H12 UNL     1      24.356   4.403  48.224  1.00  0.00     0.316 HD
ENDBRANCH   5  18
BRANCH   7  21
HETATM   21  N5  UNL     1      24.080   2.492  52.444  1.00  0.00    -0.370 N 
HETATM   22  H13 UNL     1      24.404   2.691  53.441  1.00  0.00     0.161 HD
BRANCH  21  23
HETATM   23  C12 UNL     1      22.989   1.547  52.156  1.00  0.00     0.160 C 
BRANCH  23  24
HETATM   24  C13 UNL     1      23.042   0.526  53.265  1.00  0.00    -0.035 A 
HETATM   25  C14 UNL     1      24.191  -0.097  53.701  1.00  0.00     0.009 A 
HETATM   26  C15 UNL     1      24.113  -1.033  54.727  1.00  0.00     0.001 A 
HETATM   27  C16 UNL     1      22.918  -1.371  55.337  1.00  0.00     0.001 A 
HETATM   28  C17 UNL     1      21.807  -0.690  54.829  1.00  0.00     0.007 A 
HETATM   29  C18 UNL     1      21.811   0.242  53.822  1.00  0.00    -0.054 A 
HETATM   30  C19 UNL     1      20.546   0.887  53.378  1.00  0.00     0.049 C 
ENDBRANCH  23  24
ENDBRANCH  21  23
ENDBRANCH   7  21
TORSDOF 10
ENDMDL
MODEL 5
REMARK VINA RESULT:      -7.3      3.614      3.873
REMARK  10 active torsions:
REMARK  status: ('A' for Active; 'I' for Inactive)
REMARK    1  A    between atoms: C4_4  and  N1_5 
REMARK    2  A    between atoms: C5_6  and  C6_7 
REMARK    3  A    between atoms: C6_7  and  C7_8 
REMARK    4  A    between atoms: C7_8  and  C8_9 
REMARK    5  A    between atoms: C8_9  and  C9_11 
REMARK    6  A    between atoms: C9_11  and  N2_12 
REMARK    7  A    between atoms: C10_13  and  N3_14 
REMARK    8  A    between atoms: C11_16  and  N5_17 
REMARK    9  A    between atoms: N5_17  and  C12_18 
REMARK   10  A    between atoms: C12_18  and  C13_19 
ROOT
HETATM    1  C1  UNL     1      22.874  -1.224  55.003  1.00  0.00     0.027 C 
HETATM    2  C2  UNL     1      22.440  -0.560  53.919  1.00  0.00     0.002 A 
HETATM    3  C3  UNL     1      21.059  -0.586  53.477  1.00  0.00     0.042 A 
HETATM    4  C4  UNL     1      20.747   0.121  52.377  1.00  0.00     0.051 A 
HETATM    5  C10 UNL     1      21.715   0.920  51.592  1.00  0.00     0.389 A 
HETATM    6  N4  UNL     1      23.053   0.860  52.138  1.00  0.00    -0.231 NA
HETATM    7  C11 UNL     1      23.422   0.214  53.173  1.00  0.00     0.131 A 
ENDROOT
BRANCH   4   8
HETATM    8  N1  UNL     1      19.382  -0.045  52.133  1.00  0.00    -0.405 NA
HETATM    9  C5  UNL     1      18.596  -0.825  52.746  1.00  0.00     0.325 C 
BRANCH   9  10
HETATM   10  C6  UNL     1      17.255  -1.258  52.804  1.00  0.00     0.004 C 
BRANCH  10  11
HETATM   11  C7  UNL     1      16.048  -1.624  52.574  1.00  0.00     0.018 C 
BRANCH  11  12
HETATM   12  C8  UNL     1      15.794  -3.046  52.596  1.00  0.00     0.025 C 
HETATM   13 BR1  UNL     1      16.809  -4.292  53.626  1.00  0.00    -0.050 Br
BRANCH  12  14
HETATM   14  C9  UNL     1      15.017  -3.918  52.018  1.00  0.00     0.099 C 
BRANCH  14  15
HETATM   15  N2  UNL     1      14.819  -4.856  50.956  1.00  0.00    -0.407 N 
HETATM   16  H8  UNL     1      15.747  -4.922  50.467  1.00  0.00     0.155 HD
HETATM   17  H9  UNL     1      13.841  -4.883  51.354  1.00  0.00     0.155 HD
ENDBRANCH  14  15
ENDBRANCH  12  14
ENDBRANCH  11  12
ENDBRANCH  10  11
ENDBRANCH   9  10
ENDBRANCH   4   8
BRANCH   5  18
HETATM   18  N3  UNL     1      21.313   2.330  51.734  1.00  0.00     0.109 N 
HETATM   19  H11 UNL     1      20.297   2.456  51.675  1.00  0.00     0.316 HD
HETATM   20  H12 UNL     1      21.789   2.794  50.899  1.00  0.00     0.316 HD
ENDBRANCH   5  18
BRANCH   7  21
HETATM   21  N5  UNL     1      24.796   0.303  53.538  1.00  0.00    -0.370 N 
HETATM   22  H13 UNL     1      25.005  -0.093  54.507  1.00  0.00     0.161 HD
BRANCH  21  23
HETATM   23  C12 UNL     1      25.851   0.880  52.691  1.00  0.00     0.160 C 
BRANCH  23  24
HETATM   24  C13 UNL     1      27.066   0.018  52.923  1.00  0.00    -0.035 A 
HETATM   25  C14 UNL     1      27.096  -1.351  52.770  1.00  0.00     0.009 A 
HETATM   26  C15 UNL     1      28.276  -2.041  53.026  1.00  0.00     0.001 A 
HETATM   27  C16 UNL     1      29.436  -1.407  53.433  1.00  0.00     0.001 A 
HETATM   28  C17 UNL     1      29.311  -0.021  53.563  1.00  0.00     0.007 A 
HETATM   29  C18 UNL     1      28.183   0.723  53.327  1.00  0.00    -0.054 A 
HETATM   30  C19 UNL     1      28.193   2.199  53.511  1.00  0.00     0.049 C 
ENDBRANCH  23  24
ENDBRANCH  21  23
ENDBRANCH   7  21
TORSDOF 10
ENDMDL
MODEL 6
REMARK VINA RESULT:      -7.3      5.495      9.580
REMARK  10 active torsions:
REMARK  status: ('A' for Active; 'I' for Inactive)
REMARK    1  A    between atoms: C4_4  and  N1_5 
REMARK    2  A    between atoms: C5_6  and  C6_7 
REMARK    3  A    between atoms: C6_7  and  C7_8 
REMARK    4  A    between atoms: C7_8  and  C8_9 
REMARK    5  A    between atoms: C8_9  and  C9_11 
REMARK    6  A    between atoms: C9_11  and  N2_12 
REMARK    7  A    between atoms: C10_13  and  N3_14 
REMARK    8  A    between atoms: C11_16  and  N5_17 
REMARK    9  A    between atoms: N5_17  and  C12_18 
REMARK   10  A    between atoms: C12_18  and  C13_19 
ROOT
HETATM    1  C1  UNL     1      22.621   3.657  50.410  1.00  0.00     0.027 C 
HETATM    2  C2  UNL     1      23.865   3.184  50.595  1.00  0.00     0.002 A 
HETATM    3  C3  UNL     1      25.006   3.638  49.824  1.00  0.00     0.042 A 
HETATM    4  C4  UNL     1      26.200   3.088  50.102  1.00  0.00     0.051 A 
HETATM    5  C10 UNL     1      26.426   2.055  51.138  1.00  0.00     0.389 A 
HETATM    6  N4  UNL     1      25.210   1.691  51.831  1.00  0.00    -0.231 NA
HETATM    7  C11 UNL     1      24.047   2.168  51.622  1.00  0.00     0.131 A 
ENDROOT
BRANCH   4   8
HETATM    8  N1  UNL     1      27.146   3.663  49.251  1.00  0.00    -0.405 NA
HETATM    9  C5  UNL     1      27.302   4.898  49.022  1.00  0.00     0.325 C 
BRANCH   9  10
HETATM   10  C6  UNL     1      28.078   5.820  48.288  1.00  0.00     0.004 C 
BRANCH  10  11
HETATM   11  C7  UNL     1      28.653   6.848  47.785  1.00  0.00     0.018 C 
BRANCH  11  12
HETATM   12  C8  UNL     1      30.067   6.986  48.047  1.00  0.00     0.025 C 
HETATM   13 BR1  UNL     1      31.398   5.810  47.348  1.00  0.00    -0.050 Br
BRANCH  12  14
HETATM   14  C9  UNL     1      30.871   7.726  48.758  1.00  0.00     0.099 C 
BRANCH  14  15
HETATM   15  N2  UNL     1      31.441   8.024  50.034  1.00  0.00    -0.407 N 
HETATM   16  H8  UNL     1      32.426   8.333  49.834  1.00  0.00     0.155 HD
HETATM   17  H9  UNL     1      30.482   7.737  50.372  1.00  0.00     0.155 HD
ENDBRANCH  14  15
ENDBRANCH  12  14
ENDBRANCH  11  12
ENDBRANCH  10  11
ENDBRANCH   9  10
ENDBRANCH   4   8
BRANCH   5  18
HETATM   18  N3  UNL     1      27.278   2.671  52.171  1.00  0.00     0.109 N 
HETATM   19  H11 UNL     1      27.621   3.597  51.896  1.00  0.00     0.316 HD
HETATM   20  H12 UNL     1      28.092   1.984  52.241  1.00  0.00     0.316 HD
ENDBRANCH   5  18
BRANCH   7  21
HETATM   21  N5  UNL     1      22.985   1.669  52.432  1.00  0.00    -0.370 N 
HETATM   22  H13 UNL     1      22.375   2.436  52.853  1.00  0.00     0.161 HD
BRANCH  21  23
HETATM   23  C12 UNL     1      22.728   0.243  52.686  1.00  0.00     0.160 C 
BRANCH  23  24
HETATM   24  C13 UNL     1      21.248   0.059  52.459  1.00  0.00    -0.035 A 
HETATM   25  C14 UNL     1      20.565   0.504  51.348  1.00  0.00     0.009 A 
HETATM   26  C15 UNL     1      19.195   0.285  51.255  1.00  0.00     0.001 A 
HETATM   27  C16 UNL     1      18.477  -0.369  52.241  1.00  0.00     0.001 A 
HETATM   28  C17 UNL     1      19.252  -0.783  53.329  1.00  0.00     0.007 A 
HETATM   29  C18 UNL     1      20.603  -0.601  53.486  1.00  0.00    -0.054 A 
HETATM   30  C19 UNL     1      21.300  -1.093  54.704  1.00  0.00     0.049 C 
ENDBRANCH  23  24
ENDBRANCH  21  23
ENDBRANCH   7  21
TORSDOF 10
ENDMDL
MODEL 7
REMARK VINA RESULT:      -7.2      5.570      8.654
REMARK  10 active torsions:
REMARK  status: ('A' for Active; 'I' for Inactive)
REMARK    1  A    between atoms: C4_4  and  N1_5 
REMARK    2  A    between atoms: C5_6  and  C6_7 
REMARK    3  A    between atoms: C6_7  and  C7_8 
REMARK    4  A    between atoms: C7_8  and  C8_9 
REMARK    5  A    between atoms: C8_9  and  C9_11 
REMARK    6  A    between atoms: C9_11  and  N2_12 
REMARK    7  A    between atoms: C10_13  and  N3_14 
REMARK    8  A    between atoms: C11_16  and  N5_17 
REMARK    9  A    between atoms: N5_17  and  C12_18 
REMARK   10  A    between atoms: C12_18  and  C13_19 
ROOT
HETATM    1  C1  UNL     1      26.287   1.756  51.207  1.00  0.00     0.027 C 
HETATM    2  C2  UNL     1      25.539   2.744  50.690  1.00  0.00     0.002 A 
HETATM    3  C3  UNL     1      26.109   3.931  50.081  1.00  0.00     0.042 A 
HETATM    4  C4  UNL     1      25.255   4.850  49.599  1.00  0.00     0.051 A 
HETATM    5  C10 UNL     1      23.780   4.731  49.647  1.00  0.00     0.389 A 
HETATM    6  N4  UNL     1      23.344   3.505  50.278  1.00  0.00    -0.231 NA
HETATM    7  C11 UNL     1      24.092   2.591  50.757  1.00  0.00     0.131 A 
ENDROOT
BRANCH   4   8
HETATM    8  N1  UNL     1      26.009   5.898  49.065  1.00  0.00    -0.405 NA
HETATM    9  C5  UNL     1      27.223   5.848  48.710  1.00  0.00     0.325 C 
BRANCH   9  10
HETATM   10  C6  UNL     1      28.271   6.619  48.167  1.00  0.00     0.004 C 
BRANCH  10  11
HETATM   11  C7  UNL     1      29.166   7.494  47.889  1.00  0.00     0.018 C 
BRANCH  11  12
HETATM   12  C8  UNL     1      29.152   8.701  48.683  1.00  0.00     0.025 C 
HETATM   13 BR1  UNL     1      30.604   9.937  48.764  1.00  0.00    -0.050 Br
BRANCH  12  14
HETATM   14  C9  UNL     1      28.384   9.306  49.545  1.00  0.00     0.099 C 
BRANCH  14  15
HETATM   15  N2  UNL     1      27.747   9.295  50.825  1.00  0.00    -0.407 N 
HETATM   16  H8  UNL     1      28.413   9.791  51.470  1.00  0.00     0.155 HD
HETATM   17  H9  UNL     1      26.995   8.782  50.289  1.00  0.00     0.155 HD
ENDBRANCH  14  15
ENDBRANCH  12  14
ENDBRANCH  11  12
ENDBRANCH  10  11
ENDBRANCH   9  10
ENDBRANCH   4   8
BRANCH   5  18
HETATM   18  N3  UNL     1      23.319   4.622  48.252  1.00  0.00     0.109 N 
HETATM   19  H11 UNL     1      23.773   5.302  47.633  1.00  0.00     0.316 HD
HETATM   20  H12 UNL     1      22.277   4.837  48.333  1.00  0.00     0.316 HD
ENDBRANCH   5  18
BRANCH   7  21
HETATM   21  N5  UNL     1      23.447   1.457  51.329  1.00  0.00    -0.370 N 
HETATM   22  H13 UNL     1      23.794   0.527  50.937  1.00  0.00     0.161 HD
BRANCH  21  23
HETATM   23  C12 UNL     1      22.398   1.523  52.359  1.00  0.00     0.160 C 
BRANCH  23  24
HETATM   24  C13 UNL     1      22.788   0.494  53.391  1.00  0.00    -0.035 A 
HETATM   25  C14 UNL     1      24.078   0.073  53.629  1.00  0.00     0.009 A 
HETATM   26  C15 UNL     1      24.312  -0.893  54.601  1.00  0.00     0.001 A 
HETATM   27  C16 UNL     1      23.295  -1.457  55.351  1.00  0.00     0.001 A 
HETATM   28  C17 UNL     1      22.022  -0.970  55.041  1.00  0.00     0.007 A 
HETATM   29  C18 UNL     1      21.718  -0.021  54.097  1.00  0.00    -0.054 A 
HETATM   30  C19 UNL     1      20.310   0.401  53.869  1.00  0.00     0.049 C 
ENDBRANCH  23  24
ENDBRANCH  21  23
ENDBRANCH   7  21
TORSDOF 10
ENDMDL
MODEL 8
REMARK VINA RESULT:      -7.1      5.441      9.076
REMARK  10 active torsions:
REMARK  status: ('A' for Active; 'I' for Inactive)
REMARK    1  A    between atoms: C4_4  and  N1_5 
REMARK    2  A    between atoms: C5_6  and  C6_7 
REMARK    3  A    between atoms: C6_7  and  C7_8 
REMARK    4  A    between atoms: C7_8  and  C8_9 
REMARK    5  A    between atoms: C8_9  and  C9_11 
REMARK    6  A    between atoms: C9_11  and  N2_12 
REMARK    7  A    between atoms: C10_13  and  N3_14 
REMARK    8  A    between atoms: C11_16  and  N5_17 
REMARK    9  A    between atoms: N5_17  and  C12_18 
REMARK   10  A    between atoms: C12_18  and  C13_19 
ROOT
HETATM    1  C1  UNL     1      26.830   1.370  51.971  1.00  0.00     0.027 C 
HETATM    2  C2  UNL     1      26.037   2.310  51.429  1.00  0.00     0.002 A 
HETATM    3  C3  UNL     1      26.484   3.218  50.391  1.00  0.00     0.042 A 
HETATM    4  C4  UNL     1      25.596   4.115  49.929  1.00  0.00     0.051 A 
HETATM    5  C10 UNL     1      24.201   4.237  50.407  1.00  0.00     0.389 A 
HETATM    6  N4  UNL     1      23.885   3.276  51.442  1.00  0.00    -0.231 NA
HETATM    7  C11 UNL     1      24.672   2.399  51.927  1.00  0.00     0.131 A 
ENDROOT
BRANCH   4   8
HETATM    8  N1  UNL     1      26.230   4.879  48.946  1.00  0.00    -0.405 NA
HETATM    9  C5  UNL     1      27.448   5.227  48.931  1.00  0.00     0.325 C 
BRANCH   9  10
HETATM   10  C6  UNL     1      28.406   5.941  48.183  1.00  0.00     0.004 C 
BRANCH  10  11
HETATM   11  C7  UNL     1      29.437   6.558  47.735  1.00  0.00     0.018 C 
BRANCH  11  12
HETATM   12  C8  UNL     1      29.917   7.666  48.528  1.00  0.00     0.025 C 
HETATM   13 BR1  UNL     1      31.727   7.854  49.106  1.00  0.00    -0.050 Br
BRANCH  12  14
HETATM   14  C9  UNL     1      29.451   8.725  49.128  1.00  0.00     0.099 C 
BRANCH  14  15
HETATM   15  N2  UNL     1      28.540   9.283  50.077  1.00  0.00    -0.407 N 
HETATM   16  H8  UNL     1      28.800  10.300  50.147  1.00  0.00     0.155 HD
HETATM   17  H9  UNL     1      28.178   8.291  50.102  1.00  0.00     0.155 HD
ENDBRANCH  14  15
ENDBRANCH  12  14
ENDBRANCH  11  12
ENDBRANCH  10  11
ENDBRANCH   9  10
ENDBRANCH   4   8
BRANCH   5  18
HETATM   18  N3  UNL     1      23.331   3.871  49.275  1.00  0.00     0.109 N 
HETATM   19  H11 UNL     1      22.379   3.632  49.573  1.00  0.00     0.316 HD
HETATM   20  H12 UNL     1      23.818   3.010  48.876  1.00  0.00     0.316 HD
ENDBRANCH   5  18
BRANCH   7  21
HETATM   21  N5  UNL     1      24.146   1.544  52.939  1.00  0.00    -0.370 N 
HETATM   22  H13 UNL     1      23.994   2.036  53.874  1.00  0.00     0.161 HD
BRANCH  21  23
HETATM   23  C12 UNL     1      23.833   0.119  52.750  1.00  0.00     0.160 C 
BRANCH  23  24
HETATM   24  C13 UNL     1      22.330   0.053  52.638  1.00  0.00    -0.035 A 
HETATM   25  C14 UNL     1      21.605   0.500  51.555  1.00  0.00     0.009 A 
HETATM   26  C15 UNL     1      20.218   0.396  51.572  1.00  0.00     0.001 A 
HETATM   27  C16 UNL     1      19.525  -0.143  52.641  1.00  0.00     0.001 A 
HETATM   28  C17 UNL     1      20.342  -0.569  53.693  1.00  0.00     0.007 A 
HETATM   29  C18 UNL     1      21.711  -0.497  53.743  1.00  0.00    -0.054 A 
HETATM   30  C19 UNL     1      22.455  -0.987  54.935  1.00  0.00     0.049 C 
ENDBRANCH  23  24
ENDBRANCH  21  23
ENDBRANCH   7  21
TORSDOF 10
ENDMDL
MODEL 9
REMARK VINA RESULT:      -7.1      6.407     10.496
REMARK  10 active torsions:
REMARK  status: ('A' for Active; 'I' for Inactive)
REMARK    1  A    between atoms: C4_4  and  N1_5 
REMARK    2  A    between atoms: C5_6  and  C6_7 
REMARK    3  A    between atoms: C6_7  and  C7_8 
REMARK    4  A    between atoms: C7_8  and  C8_9 
REMARK    5  A    between atoms: C8_9  and  C9_11 
REMARK    6  A    between atoms: C9_11  and  N2_12 
REMARK    7  A    between atoms: C10_13  and  N3_14 
REMARK    8  A    between atoms: C11_16  and  N5_17 
REMARK    9  A    between atoms: N5_17  and  C12_18 
REMARK   10  A    between atoms: C12_18  and  C13_19 
ROOT
HETATM    1  C1  UNL     1      26.411   2.632  49.774  1.00  0.00     0.027 C 
HETATM    2  C2  UNL     1      26.422   3.950  49.515  1.00  0.00     0.002 A 
HETATM    3  C3  UNL     1      27.503   4.606  48.805  1.00  0.00     0.042 A 
HETATM    4  C4  UNL     1      27.399   5.931  48.606  1.00  0.00     0.051 A 
HETATM    5  C10 UNL     1      26.261   6.760  49.062  1.00  0.00     0.389 A 
HETATM    6  N4  UNL     1      25.256   5.986  49.756  1.00  0.00    -0.231 NA
HETATM    7  C11 UNL     1      25.286   4.732  49.980  1.00  0.00     0.131 A 
ENDROOT
BRANCH   4   8
HETATM    8  N1  UNL     1      28.536   6.352  47.912  1.00  0.00    -0.405 NA
HETATM    9  C5  UNL     1      29.740   6.106  48.219  1.00  0.00     0.325 C 
BRANCH   9  10
HETATM   10  C6  UNL     1      31.073   6.328  47.816  1.00  0.00     0.004 C 
BRANCH  10  11
HETATM   11  C7  UNL     1      32.337   6.296  47.601  1.00  0.00     0.018 C 
BRANCH  11  12
HETATM   12  C8  UNL     1      32.933   4.986  47.475  1.00  0.00     0.025 C 
HETATM   13 BR1  UNL     1      32.025   3.468  46.759  1.00  0.00    -0.050 Br
BRANCH  12  14
HETATM   14  C9  UNL     1      34.042   4.374  47.783  1.00  0.00     0.099 C 
BRANCH  14  15
HETATM   15  N2  UNL     1      34.951   3.940  48.797  1.00  0.00    -0.407 N 
HETATM   16  H8  UNL     1      35.897   4.274  48.483  1.00  0.00     0.155 HD
HETATM   17  H9  UNL     1      34.067   3.552  49.225  1.00  0.00     0.155 HD
ENDBRANCH  14  15
ENDBRANCH  12  14
ENDBRANCH  11  12
ENDBRANCH  10  11
ENDBRANCH   9  10
ENDBRANCH   4   8
BRANCH   5  18
HETATM   18  N3  UNL     1      25.585   7.255  47.849  1.00  0.00     0.109 N 
HETATM   19  H11 UNL     1      24.761   7.826  48.065  1.00  0.00     0.316 HD
HETATM   20  H12 UNL     1      25.290   6.353  47.362  1.00  0.00     0.316 HD
ENDBRANCH   5  18
BRANCH   7  21
HETATM   21  N5  UNL     1      24.177   4.170  50.678  1.00  0.00    -0.370 N 
HETATM   22  H13 UNL     1      23.378   3.873  50.037  1.00  0.00     0.161 HD
BRANCH  21  23
HETATM   23  C12 UNL     1      24.107   4.004  52.138  1.00  0.00     0.160 C 
BRANCH  23  24
HETATM   24  C13 UNL     1      23.627   2.590  52.355  1.00  0.00    -0.035 A 
HETATM   25  C14 UNL     1      22.412   2.101  51.926  1.00  0.00     0.009 A 
HETATM   26  C15 UNL     1      22.075   0.779  52.197  1.00  0.00     0.001 A 
HETATM   27  C16 UNL     1      22.914  -0.077  52.886  1.00  0.00     0.001 A 
HETATM   28  C17 UNL     1      24.122   0.505  53.282  1.00  0.00     0.007 A 
HETATM   29  C18 UNL     1      24.519   1.798  53.050  1.00  0.00    -0.054 A 
HETATM   30  C19 UNL     1      25.838   2.287  53.536  1.00  0.00     0.049 C 
ENDBRANCH  23  24
ENDBRANCH  21  23
ENDBRANCH   7  21
TORSDOF 10
ENDMDL
