MODEL 1
REMARK VINA RESULT:      -7.5      0.000      0.000
REMARK  6 active torsions:
REMARK  status: ('A' for Active; 'I' for Inactive)
REMARK    1  A    between atoms: C2_2  and  C13_17 
REMARK    2  A    between atoms: C3_3  and  N1_4 
REMARK    3  A    between atoms: N1_4  and  C4_5 
REMARK    4  A    between atoms: C7_9  and  C8_10 
REMARK    5  A    between atoms: C13_17  and  C14_19 
REMARK    6  A    between atoms: C14_19  and  C15_20 
ROOT
HETATM    1  C4  UNL     1      24.967   1.926  51.546  1.00  0.00     0.726 A 
HETATM    2  N2  UNL     1      23.922   1.357  52.147  1.00  0.00    -0.075 NA
HETATM    3  C5  UNL     1      23.925   0.376  53.036  1.00  0.00     0.139 A 
HETATM    4  C6  UNL     1      25.190  -0.125  53.389  1.00  0.00     0.053 A 
HETATM    5  C7  UNL     1      26.294   0.435  52.792  1.00  0.00     0.089 A 
HETATM    6  N3  UNL     1      26.193   1.435  51.894  1.00  0.00    -0.062 NA
ENDROOT
BRANCH   1   7
HETATM    7  N1  UNL     1      24.602   2.948  50.637  1.00  0.00    -0.198 N 
HETATM    8  H5  UNL     1      23.739   2.782  50.105  1.00  0.00     0.183 HD
BRANCH   7   9
HETATM    9  C3  UNL     1      25.367   4.130  50.465  1.00  0.00     0.115 C 
HETATM   10  C2  UNL     1      25.081   5.118  49.658  1.00  0.00    -0.022 C 
HETATM   11  C1  UNL     1      23.852   5.107  48.782  1.00  0.00     0.052 C 
BRANCH  10  12
HETATM   12  C13 UNL     1      25.942   6.308  49.573  1.00  0.00     0.035 C 
HETATM   13  N4  UNL     1      26.087   7.140  50.541  1.00  0.00    -0.304 NA
HETATM   14  H12 UNL     1      25.663   7.122  51.467  1.00  0.00     0.186 HD
BRANCH  12  15
HETATM   15  C14 UNL     1      26.699   6.611  48.316  1.00  0.00     0.090 C 
BRANCH  15  16
HETATM   16  C15 UNL     1      28.098   6.040  48.389  1.00  0.00     0.228 C 
HETATM   17  F1  UNL     1      27.970   4.659  48.265  1.00  0.00    -0.255 F 
ENDBRANCH  15  16
ENDBRANCH  12  15
ENDBRANCH  10  12
ENDBRANCH   7   9
ENDBRANCH   1   7
BRANCH   5  18
HETATM   18  C8  UNL     1      27.634  -0.038  53.106  1.00  0.00     0.011 A 
HETATM   19  C9  UNL     1      27.912  -1.320  53.000  1.00  0.00    -0.008 A 
HETATM   20  C10 UNL     1      29.332  -1.572  53.368  1.00  0.00     0.057 A 
HETATM   21  C11 UNL     1      29.835  -0.230  53.707  1.00  0.00     0.002 A 
HETATM   22  C12 UNL     1      28.835   0.656  53.549  1.00  0.00     0.042 A 
HETATM   23 CL1  UNL     1      28.878   2.398  53.810  1.00  0.00    -0.084 Cl
ENDBRANCH   5  18
TORSDOF 6
ENDMDL
MODEL 2
REMARK VINA RESULT:      -7.3      1.774      2.220
REMARK  6 active torsions:
REMARK  status: ('A' for Active; 'I' for Inactive)
REMARK    1  A    between atoms: C2_2  and  C13_17 
REMARK    2  A    between atoms: C3_3  and  N1_4 
REMARK    3  A    between atoms: N1_4  and  C4_5 
REMARK    4  A    between atoms: C7_9  and  C8_10 
REMARK    5  A    between atoms: C13_17  and  C14_19 
REMARK    6  A    between atoms: C14_19  and  C15_20 
ROOT
HETATM    1  C4  UNL     1      25.649   2.848  50.971  1.00  0.00     0.726 A 
HETATM    2  N2  UNL     1      24.708   3.107  51.880  1.00  0.00    -0.075 NA
HETATM    3  C5  UNL     1      24.628   2.660  53.123  1.00  0.00     0.139 A 
HETATM    4  C6  UNL     1      25.666   1.808  53.535  1.00  0.00     0.053 A 
HETATM    5  C7  UNL     1      26.658   1.516  52.628  1.00  0.00     0.089 A 
HETATM    6  N3  UNL     1      26.656   2.020  51.379  1.00  0.00    -0.062 NA
ENDROOT
BRANCH   1   7
HETATM    7  N1  UNL     1      25.419   3.488  49.730  1.00  0.00    -0.198 N 
HETATM    8  H5  UNL     1      25.134   2.873  48.958  1.00  0.00     0.183 HD
BRANCH   7   9
HETATM    9  C3  UNL     1      25.567   4.888  49.550  1.00  0.00     0.115 C 
HETATM   10  C2  UNL     1      26.611   5.490  49.047  1.00  0.00    -0.022 C 
HETATM   11  C1  UNL     1      27.829   4.730  48.584  1.00  0.00     0.052 C 
BRANCH  10  12
HETATM   12  C13 UNL     1      26.646   6.953  48.891  1.00  0.00     0.035 C 
HETATM   13  N4  UNL     1      27.060   7.749  49.810  1.00  0.00    -0.304 NA
HETATM   14  H12 UNL     1      27.410   7.522  50.740  1.00  0.00     0.186 HD
BRANCH  12  15
HETATM   15  C14 UNL     1      26.179   7.593  47.618  1.00  0.00     0.090 C 
BRANCH  15  16
HETATM   16  C15 UNL     1      27.315   8.341  46.954  1.00  0.00     0.228 C 
HETATM   17  F1  UNL     1      28.305   7.399  46.681  1.00  0.00    -0.255 F 
ENDBRANCH  15  16
ENDBRANCH  12  15
ENDBRANCH  10  12
ENDBRANCH   7   9
ENDBRANCH   1   7
BRANCH   5  18
HETATM   18  C8  UNL     1      27.761   0.637  52.985  1.00  0.00     0.011 A 
HETATM   19  C9  UNL     1      28.885   1.154  53.436  1.00  0.00    -0.008 A 
HETATM   20  C10 UNL     1      29.866   0.075  53.736  1.00  0.00     0.057 A 
HETATM   21  C11 UNL     1      29.132  -1.153  53.386  1.00  0.00     0.002 A 
HETATM   22  C12 UNL     1      27.905  -0.811  52.950  1.00  0.00     0.042 A 
HETATM   23 CL1  UNL     1      26.612  -1.877  52.405  1.00  0.00    -0.084 Cl
ENDBRANCH   5  18
TORSDOF 6
ENDMDL
MODEL 3
REMARK VINA RESULT:      -7.2      2.021      2.478
REMARK  6 active torsions:
REMARK  status: ('A' for Active; 'I' for Inactive)
REMARK    1  A    between atoms: C2_2  and  C13_17 
REMARK    2  A    between atoms: C3_3  and  N1_4 
REMARK    3  A    between atoms: N1_4  and  C4_5 
REMARK    4  A    between atoms: C7_9  and  C8_10 
REMARK    5  A    between atoms: C13_17  and  C14_19 
REMARK    6  A    between atoms: C14_19  and  C15_20 
ROOT
HETATM    1  C4  UNL     1      24.767   1.749  51.577  1.00  0.00     0.726 A 
HETATM    2  N2  UNL     1      23.775   1.123  52.212  1.00  0.00    -0.075 NA
HETATM    3  C5  UNL     1      23.862   0.161  53.117  1.00  0.00     0.139 A 
HETATM    4  C6  UNL     1      25.165  -0.250  53.448  1.00  0.00     0.053 A 
HETATM    5  C7  UNL     1      26.217   0.371  52.817  1.00  0.00     0.089 A 
HETATM    6  N3  UNL     1      26.030   1.345  51.905  1.00  0.00    -0.062 NA
ENDROOT
BRANCH   1   7
HETATM    7  N1  UNL     1      24.315   2.727  50.660  1.00  0.00    -0.198 N 
HETATM    8  H5  UNL     1      24.194   2.407  49.691  1.00  0.00     0.183 HD
BRANCH   7   9
HETATM    9  C3  UNL     1      24.041   4.067  51.041  1.00  0.00     0.115 C 
HETATM   10  C2  UNL     1      24.578   5.137  50.519  1.00  0.00    -0.022 C 
HETATM   11  C1  UNL     1      25.594   5.063  49.405  1.00  0.00     0.052 C 
BRANCH  10  12
HETATM   12  C13 UNL     1      24.204   6.482  50.982  1.00  0.00     0.035 C 
HETATM   13  N4  UNL     1      24.495   6.930  52.150  1.00  0.00    -0.304 NA
HETATM   14  H12 UNL     1      25.000   6.464  52.904  1.00  0.00     0.186 HD
BRANCH  12  15
HETATM   15  C14 UNL     1      23.437   7.409  50.088  1.00  0.00     0.090 C 
BRANCH  15  16
HETATM   16  C15 UNL     1      21.997   6.959  49.967  1.00  0.00     0.228 C 
HETATM   17  F1  UNL     1      21.461   6.994  51.252  1.00  0.00    -0.255 F 
ENDBRANCH  15  16
ENDBRANCH  12  15
ENDBRANCH  10  12
ENDBRANCH   7   9
ENDBRANCH   1   7
BRANCH   5  18
HETATM   18  C8  UNL     1      27.591  -0.008  53.108  1.00  0.00     0.011 A 
HETATM   19  C9  UNL     1      27.947  -1.273  53.033  1.00  0.00    -0.008 A 
HETATM   20  C10 UNL     1      29.389  -1.424  53.369  1.00  0.00     0.057 A 
HETATM   21  C11 UNL     1      29.815  -0.043  53.653  1.00  0.00     0.002 A 
HETATM   22  C12 UNL     1      28.757   0.773  53.496  1.00  0.00     0.042 A 
HETATM   23 CL1  UNL     1      28.696   2.522  53.704  1.00  0.00    -0.084 Cl
ENDBRANCH   5  18
TORSDOF 6
ENDMDL
MODEL 4
REMARK VINA RESULT:      -7.1      4.139      6.227
REMARK  6 active torsions:
REMARK  status: ('A' for Active; 'I' for Inactive)
REMARK    1  A    between atoms: C2_2  and  C13_17 
REMARK    2  A    between atoms: C3_3  and  N1_4 
REMARK    3  A    between atoms: N1_4  and  C4_5 
REMARK    4  A    between atoms: C7_9  and  C8_10 
REMARK    5  A    between atoms: C13_17  and  C14_19 
REMARK    6  A    between atoms: C14_19  and  C15_20 
ROOT
HETATM    1  C4  UNL     1      24.108  -0.334  53.498  1.00  0.00     0.726 A 
HETATM    2  N2  UNL     1      23.769   0.592  52.600  1.00  0.00    -0.075 NA
HETATM    3  C5  UNL     1      24.568   1.335  51.851  1.00  0.00     0.139 A 
HETATM    4  C6  UNL     1      25.946   1.119  52.025  1.00  0.00     0.053 A 
HETATM    5  C7  UNL     1      26.338   0.172  52.941  1.00  0.00     0.089 A 
HETATM    6  N3  UNL     1      25.449  -0.540  53.661  1.00  0.00    -0.062 NA
ENDROOT
BRANCH   1   7
HETATM    7  N1  UNL     1      22.994  -0.936  54.129  1.00  0.00    -0.198 N 
HETATM    8  H5  UNL     1      23.163  -1.304  55.073  1.00  0.00     0.183 HD
BRANCH   7   9
HETATM    9  C3  UNL     1      21.720  -1.028  53.511  1.00  0.00     0.115 C 
HETATM   10  C2  UNL     1      20.644  -0.379  53.871  1.00  0.00    -0.022 C 
HETATM   11  C1  UNL     1      20.640   0.581  55.035  1.00  0.00     0.052 C 
BRANCH  10  12
HETATM   12  C13 UNL     1      19.376  -0.541  53.143  1.00  0.00     0.035 C 
HETATM   13  N4  UNL     1      18.367  -1.176  53.620  1.00  0.00    -0.304 NA
HETATM   14  H12 UNL     1      18.276  -1.644  54.521  1.00  0.00     0.186 HD
BRANCH  12  15
HETATM   15  C14 UNL     1      19.208   0.038  51.771  1.00  0.00     0.090 C 
BRANCH  15  16
HETATM   16  C15 UNL     1      19.471   1.528  51.788  1.00  0.00     0.228 C 
HETATM   17  F1  UNL     1      18.224   2.150  51.814  1.00  0.00    -0.255 F 
ENDBRANCH  15  16
ENDBRANCH  12  15
ENDBRANCH  10  12
ENDBRANCH   7   9
ENDBRANCH   1   7
BRANCH   5  18
HETATM   18  C8  UNL     1      27.748  -0.100  53.176  1.00  0.00     0.011 A 
HETATM   19  C9  UNL     1      28.188  -1.340  53.120  1.00  0.00    -0.008 A 
HETATM   20  C10 UNL     1      29.652  -1.380  53.390  1.00  0.00     0.057 A 
HETATM   21  C11 UNL     1      29.992   0.036  53.614  1.00  0.00     0.002 A 
HETATM   22  C12 UNL     1      28.872   0.772  53.485  1.00  0.00     0.042 A 
HETATM   23 CL1  UNL     1      28.697   2.518  53.646  1.00  0.00    -0.084 Cl
ENDBRANCH   5  18
TORSDOF 6
ENDMDL
MODEL 5
REMARK VINA RESULT:      -7.1      2.955      6.668
REMARK  6 active torsions:
REMARK  status: ('A' for Active; 'I' for Inactive)
REMARK    1  A    between atoms: C2_2  and  C13_17 
REMARK    2  A    between atoms: C3_3  and  N1_4 
REMARK    3  A    between atoms: N1_4  and  C4_5 
REMARK    4  A    between atoms: C7_9  and  C8_10 
REMARK    5  A    between atoms: C13_17  and  C14_19 
REMARK    6  A    between atoms: C14_19  and  C15_20 
ROOT
HETATM    1  C4  UNL     1      24.801   2.565  51.741  1.00  0.00     0.726 A 
HETATM    2  N2  UNL     1      23.682   2.197  51.115  1.00  0.00    -0.075 NA
HETATM    3  C5  UNL     1      23.239   2.593  49.933  1.00  0.00     0.139 A 
HETATM    4  C6  UNL     1      24.051   3.517  49.254  1.00  0.00     0.053 A 
HETATM    5  C7  UNL     1      25.215   3.922  49.864  1.00  0.00     0.089 A 
HETATM    6  N3  UNL     1      25.587   3.462  51.074  1.00  0.00    -0.062 NA
ENDROOT
BRANCH   1   7
HETATM    7  N1  UNL     1      24.964   1.950  53.005  1.00  0.00    -0.198 N 
HETATM    8  H5  UNL     1      24.096   1.685  53.486  1.00  0.00     0.183 HD
BRANCH   7   9
HETATM    9  C3  UNL     1      26.237   1.707  53.582  1.00  0.00     0.115 C 
HETATM   10  C2  UNL     1      27.028   0.706  53.301  1.00  0.00    -0.022 C 
HETATM   11  C1  UNL     1      26.656  -0.349  52.288  1.00  0.00     0.052 C 
BRANCH  10  12
HETATM   12  C13 UNL     1      28.340   0.563  53.951  1.00  0.00     0.035 C 
HETATM   13  N4  UNL     1      28.565   0.918  55.164  1.00  0.00    -0.304 NA
HETATM   14  H12 UNL     1      27.922   1.330  55.839  1.00  0.00     0.186 HD
BRANCH  12  15
HETATM   15  C14 UNL     1      29.503  -0.010  53.200  1.00  0.00     0.090 C 
BRANCH  15  16
HETATM   16  C15 UNL     1      29.954  -1.309  53.833  1.00  0.00     0.228 C 
HETATM   17  F1  UNL     1      29.342  -2.334  53.115  1.00  0.00    -0.255 F 
ENDBRANCH  15  16
ENDBRANCH  12  15
ENDBRANCH  10  12
ENDBRANCH   7   9
ENDBRANCH   1   7
BRANCH   5  18
HETATM   18  C8  UNL     1      26.102   4.880  49.220  1.00  0.00     0.011 A 
HETATM   19  C9  UNL     1      27.340   4.532  48.941  1.00  0.00    -0.008 A 
HETATM   20  C10 UNL     1      28.058   5.662  48.288  1.00  0.00     0.057 A 
HETATM   21  C11 UNL     1      27.037   6.722  48.233  1.00  0.00     0.002 A 
HETATM   22  C12 UNL     1      25.900   6.253  48.780  1.00  0.00     0.042 A 
HETATM   23 CL1  UNL     1      24.363   7.091  48.973  1.00  0.00    -0.084 Cl
ENDBRANCH   5  18
TORSDOF 6
ENDMDL
MODEL 6
REMARK VINA RESULT:      -6.9      2.974      5.822
REMARK  6 active torsions:
REMARK  status: ('A' for Active; 'I' for Inactive)
REMARK    1  A    between atoms: C2_2  and  C13_17 
REMARK    2  A    between atoms: C3_3  and  N1_4 
REMARK    3  A    between atoms: N1_4  and  C4_5 
REMARK    4  A    between atoms: C7_9  and  C8_10 
REMARK    5  A    between atoms: C13_17  and  C14_19 
REMARK    6  A    between atoms: C14_19  and  C15_20 
ROOT
HETATM    1  C4  UNL     1      23.885   2.436  51.754  1.00  0.00     0.726 A 
HETATM    2  N2  UNL     1      24.327   3.338  50.877  1.00  0.00    -0.075 NA
HETATM    3  C5  UNL     1      25.564   3.519  50.444  1.00  0.00     0.139 A 
HETATM    4  C6  UNL     1      26.532   2.649  50.976  1.00  0.00     0.053 A 
HETATM    5  C7  UNL     1      26.117   1.703  51.884  1.00  0.00     0.089 A 
HETATM    6  N3  UNL     1      24.830   1.593  52.266  1.00  0.00    -0.062 NA
ENDROOT
BRANCH   1   7
HETATM    7  N1  UNL     1      22.494   2.528  51.998  1.00  0.00    -0.198 N 
HETATM    8  H5  UNL     1      21.999   3.264  51.480  1.00  0.00     0.183 HD
BRANCH   7   9
HETATM    9  C3  UNL     1      21.814   1.664  52.896  1.00  0.00     0.115 C 
HETATM   10  C2  UNL     1      21.243   0.531  52.585  1.00  0.00    -0.022 C 
HETATM   11  C1  UNL     1      21.244  -0.007  51.175  1.00  0.00     0.052 C 
BRANCH  10  12
HETATM   12  C13 UNL     1      20.580  -0.295  53.606  1.00  0.00     0.035 C 
HETATM   13  N4  UNL     1      19.447   0.010  54.129  1.00  0.00    -0.304 NA
HETATM   14  H12 UNL     1      18.855   0.818  53.942  1.00  0.00     0.186 HD
BRANCH  12  15
HETATM   15  C14 UNL     1      21.220  -1.557  54.098  1.00  0.00     0.090 C 
BRANCH  15  16
HETATM   16  C15 UNL     1      22.365  -1.240  55.036  1.00  0.00     0.228 C 
HETATM   17  F1  UNL     1      23.472  -0.972  54.235  1.00  0.00    -0.255 F 
ENDBRANCH  15  16
ENDBRANCH  12  15
ENDBRANCH  10  12
ENDBRANCH   7   9
ENDBRANCH   1   7
BRANCH   5  18
HETATM   18  C8  UNL     1      27.065   0.773  52.478  1.00  0.00     0.011 A 
HETATM   19  C9  UNL     1      26.896  -0.522  52.313  1.00  0.00    -0.008 A 
HETATM   20  C10 UNL     1      27.978  -1.276  53.003  1.00  0.00     0.057 A 
HETATM   21  C11 UNL     1      28.804  -0.211  53.598  1.00  0.00     0.002 A 
HETATM   22  C12 UNL     1      28.261   0.979  53.283  1.00  0.00     0.042 A 
HETATM   23 CL1  UNL     1      28.834   2.585  53.728  1.00  0.00    -0.084 Cl
ENDBRANCH   5  18
TORSDOF 6
ENDMDL
MODEL 7
REMARK VINA RESULT:      -6.7      2.047      2.407
REMARK  6 active torsions:
REMARK  status: ('A' for Active; 'I' for Inactive)
REMARK    1  A    between atoms: C2_2  and  C13_17 
REMARK    2  A    between atoms: C3_3  and  N1_4 
REMARK    3  A    between atoms: N1_4  and  C4_5 
REMARK    4  A    between atoms: C7_9  and  C8_10 
REMARK    5  A    between atoms: C13_17  and  C14_19 
REMARK    6  A    between atoms: C14_19  and  C15_20 
ROOT
HETATM    1  C4  UNL     1      25.096   2.379  51.182  1.00  0.00     0.726 A 
HETATM    2  N2  UNL     1      24.008   2.066  51.887  1.00  0.00    -0.075 NA
HETATM    3  C5  UNL     1      23.913   1.250  52.924  1.00  0.00     0.139 A 
HETATM    4  C6  UNL     1      25.111   0.637  53.332  1.00  0.00     0.053 A 
HETATM    5  C7  UNL     1      26.257   0.933  52.632  1.00  0.00     0.089 A 
HETATM    6  N3  UNL     1      26.257   1.781  51.585  1.00  0.00    -0.062 NA
ENDROOT
BRANCH   1   7
HETATM    7  N1  UNL     1      24.837   3.284  50.126  1.00  0.00    -0.198 N 
HETATM    8  H5  UNL     1      24.375   2.884  49.300  1.00  0.00     0.183 HD
BRANCH   7   9
HETATM    9  C3  UNL     1      25.186   4.658  50.190  1.00  0.00     0.115 C 
HETATM   10  C2  UNL     1      24.394   5.634  50.545  1.00  0.00    -0.022 C 
HETATM   11  C1  UNL     1      22.958   5.396  50.944  1.00  0.00     0.052 C 
BRANCH  10  12
HETATM   12  C13 UNL     1      24.870   7.025  50.592  1.00  0.00     0.035 C 
HETATM   13  N4  UNL     1      26.100   7.341  50.785  1.00  0.00    -0.304 NA
HETATM   14  H12 UNL     1      26.901   6.727  50.930  1.00  0.00     0.186 HD
BRANCH  12  15
HETATM   15  C14 UNL     1      23.911   8.164  50.419  1.00  0.00     0.090 C 
BRANCH  15  16
HETATM   16  C15 UNL     1      24.039   8.759  49.033  1.00  0.00     0.228 C 
HETATM   17  F1  UNL     1      23.921   7.701  48.135  1.00  0.00    -0.255 F 
ENDBRANCH  15  16
ENDBRANCH  12  15
ENDBRANCH  10  12
ENDBRANCH   7   9
ENDBRANCH   1   7
BRANCH   5  18
HETATM   18  C8  UNL     1      27.531   0.332  52.996  1.00  0.00     0.011 A 
HETATM   19  C9  UNL     1      28.511   1.098  53.426  1.00  0.00    -0.008 A 
HETATM   20  C10 UNL     1      29.711   0.273  53.738  1.00  0.00     0.057 A 
HETATM   21  C11 UNL     1      29.270  -1.096  53.420  1.00  0.00     0.002 A 
HETATM   22  C12 UNL     1      27.996  -1.047  52.989  1.00  0.00     0.042 A 
HETATM   23 CL1  UNL     1      26.973  -2.387  52.478  1.00  0.00    -0.084 Cl
ENDBRANCH   5  18
TORSDOF 6
ENDMDL
MODEL 8
REMARK VINA RESULT:      -6.6      2.734      6.761
REMARK  6 active torsions:
REMARK  status: ('A' for Active; 'I' for Inactive)
REMARK    1  A    between atoms: C2_2  and  C13_17 
REMARK    2  A    between atoms: C3_3  and  N1_4 
REMARK    3  A    between atoms: N1_4  and  C4_5 
REMARK    4  A    between atoms: C7_9  and  C8_10 
REMARK    5  A    between atoms: C13_17  and  C14_19 
REMARK    6  A    between atoms: C14_19  and  C15_20 
ROOT
HETATM    1  C4  UNL     1      24.184   3.462  50.844  1.00  0.00     0.726 A 
HETATM    2  N2  UNL     1      23.047   3.849  50.264  1.00  0.00    -0.075 NA
HETATM    3  C5  UNL     1      22.889   4.704  49.267  1.00  0.00     0.139 A 
HETATM    4  C6  UNL     1      24.068   5.273  48.756  1.00  0.00     0.053 A 
HETATM    5  C7  UNL     1      25.262   4.900  49.325  1.00  0.00     0.089 A 
HETATM    6  N3  UNL     1      25.326   4.018  50.342  1.00  0.00    -0.062 NA
ENDROOT
BRANCH   1   7
HETATM    7  N1  UNL     1      23.989   2.535  51.895  1.00  0.00    -0.198 N 
HETATM    8  H5  UNL     1      23.025   2.446  52.238  1.00  0.00     0.183 HD
BRANCH   7   9
HETATM    9  C3  UNL     1      25.048   1.769  52.449  1.00  0.00     0.115 C 
HETATM   10  C2  UNL     1      24.923   0.636  53.087  1.00  0.00    -0.022 C 
HETATM   11  C1  UNL     1      23.578  -0.011  53.315  1.00  0.00     0.052 C 
BRANCH  10  12
HETATM   12  C13 UNL     1      26.097  -0.083  53.604  1.00  0.00     0.035 C 
HETATM   13  N4  UNL     1      26.052  -0.859  54.626  1.00  0.00    -0.304 NA
HETATM   14  H12 UNL     1      25.253  -1.095  55.213  1.00  0.00     0.186 HD
BRANCH  12  15
HETATM   15  C14 UNL     1      27.435   0.073  52.947  1.00  0.00     0.090 C 
BRANCH  15  16
HETATM   16  C15 UNL     1      28.544  -0.306  53.905  1.00  0.00     0.228 C 
HETATM   17  F1  UNL     1      29.743  -0.075  53.235  1.00  0.00    -0.255 F 
ENDBRANCH  15  16
ENDBRANCH  12  15
ENDBRANCH  10  12
ENDBRANCH   7   9
ENDBRANCH   1   7
BRANCH   5  18
HETATM   18  C8  UNL     1      26.521   5.453  48.849  1.00  0.00     0.011 A 
HETATM   19  C9  UNL     1      27.579   4.676  48.758  1.00  0.00    -0.008 A 
HETATM   20  C10 UNL     1      28.746   5.449  48.251  1.00  0.00     0.057 A 
HETATM   21  C11 UNL     1      28.196   6.803  48.063  1.00  0.00     0.002 A 
HETATM   22  C12 UNL     1      26.897   6.791  48.415  1.00  0.00     0.042 A 
HETATM   23 CL1  UNL     1      25.754   8.131  48.386  1.00  0.00    -0.084 Cl
ENDBRANCH   5  18
TORSDOF 6
ENDMDL
MODEL 9
REMARK VINA RESULT:      -6.4      1.470      1.807
REMARK  6 active torsions:
REMARK  status: ('A' for Active; 'I' for Inactive)
REMARK    1  A    between atoms: C2_2  and  C13_17 
REMARK    2  A    between atoms: C3_3  and  N1_4 
REMARK    3  A    between atoms: N1_4  and  C4_5 
REMARK    4  A    between atoms: C7_9  and  C8_10 
REMARK    5  A    between atoms: C13_17  and  C14_19 
REMARK    6  A    between atoms: C14_19  and  C15_20 
ROOT
HETATM    1  C4  UNL     1      25.032   3.433  50.844  1.00  0.00     0.726 A 
HETATM    2  N2  UNL     1      23.909   3.493  51.560  1.00  0.00    -0.075 NA
HETATM    3  C5  UNL     1      23.569   2.762  52.610  1.00  0.00     0.139 A 
HETATM    4  C6  UNL     1      24.512   1.803  53.019  1.00  0.00     0.053 A 
HETATM    5  C7  UNL     1      25.685   1.709  52.308  1.00  0.00     0.089 A 
HETATM    6  N3  UNL     1      25.945   2.500  51.248  1.00  0.00    -0.062 NA
ENDROOT
BRANCH   1   7
HETATM    7  N1  UNL     1      25.065   4.360  49.776  1.00  0.00    -0.198 N 
HETATM    8  H5  UNL     1      24.551   4.084  48.930  1.00  0.00     0.183 HD
BRANCH   7   9
HETATM    9  C3  UNL     1      25.757   5.597  49.854  1.00  0.00     0.115 C 
HETATM   10  C2  UNL     1      25.499   6.666  49.148  1.00  0.00    -0.022 C 
HETATM   11  C1  UNL     1      24.390   6.703  48.126  1.00  0.00     0.052 C 
BRANCH  10  12
HETATM   12  C13 UNL     1      26.274   7.903  49.327  1.00  0.00     0.035 C 
HETATM   13  N4  UNL     1      26.791   8.253  50.449  1.00  0.00    -0.304 NA
HETATM   14  H12 UNL     1      26.757   7.769  51.346  1.00  0.00     0.186 HD
BRANCH  12  15
HETATM   15  C14 UNL     1      26.491   8.838  48.176  1.00  0.00     0.090 C 
BRANCH  15  16
HETATM   16  C15 UNL     1      27.853   8.608  47.557  1.00  0.00     0.228 C 
HETATM   17  F1  UNL     1      27.890   7.272  47.162  1.00  0.00    -0.255 F 
ENDBRANCH  15  16
ENDBRANCH  12  15
ENDBRANCH  10  12
ENDBRANCH   7   9
ENDBRANCH   1   7
BRANCH   5  18
HETATM   18  C8  UNL     1      26.703   0.737  52.672  1.00  0.00     0.011 A 
HETATM   19  C9  UNL     1      26.481  -0.545  52.469  1.00  0.00    -0.008 A 
HETATM   20  C10 UNL     1      27.653  -1.349  52.913  1.00  0.00     0.057 A 
HETATM   21  C11 UNL     1      28.592  -0.328  53.409  1.00  0.00     0.002 A 
HETATM   22  C12 UNL     1      28.027   0.884  53.261  1.00  0.00     0.042 A 
HETATM   23 CL1  UNL     1      28.703   2.455  53.684  1.00  0.00    -0.084 Cl
ENDBRANCH   5  18
TORSDOF 6
ENDMDL
