MODEL 1
REMARK VINA RESULT:      -8.0      0.000      0.000
REMARK  4 active torsions:
REMARK  status: ('A' for Active; 'I' for Inactive)
REMARK    1  A    between atoms: C2_2  and  C3_3 
REMARK    2  A    between atoms: N1_7  and  C7_8 
REMARK    3  A    between atoms: C11_14  and  C12_15 
REMARK    4  A    between atoms: C17_21  and  O2_22 
ROOT
HETATM    1  C7  UNL     1      23.460   2.994  49.577  1.00  0.00     0.156 A 
HETATM    2  N2  UNL     1      22.863   2.850  48.441  1.00  0.00    -0.224 NA
HETATM    3  C8  UNL     1      21.880   1.838  48.266  1.00  0.00     0.235 A 
HETATM    4  N3  UNL     1      21.582   1.050  49.241  1.00  0.00    -0.243 NA
HETATM    5  C9  UNL     1      22.229   1.171  50.505  1.00  0.00     0.081 A 
HETATM    6  C10 UNL     1      21.758   0.174  51.260  1.00  0.00     0.040 C 
HETATM    7  C11 UNL     1      22.140  -0.114  52.660  1.00  0.00    -0.031 C 
HETATM    8  C15 UNL     1      23.292   0.218  53.274  1.00  0.00     0.143 C 
HETATM    9  O1  UNL     1      24.305   0.915  52.595  1.00  0.00    -0.348 OA
HETATM   10  C16 UNL     1      24.273   2.010  51.747  1.00  0.00     0.231 C 
HETATM   11  C17 UNL     1      23.722   3.218  52.521  1.00  0.00     0.292 C 
HETATM   12  O3  UNL     1      22.598   3.118  51.733  1.00  0.00    -0.330 OA
HETATM   13  C18 UNL     1      23.204   2.209  50.815  1.00  0.00     0.199 A 
ENDROOT
BRANCH   1  14
HETATM   14  N1  UNL     1      24.358   4.086  49.353  1.00  0.00    -0.310 N 
HETATM   15  C5  UNL     1      23.890   5.442  49.190  1.00  0.00     0.026 C 
HETATM   16  C4  UNL     1      24.768   6.169  48.545  1.00  0.00     0.010 C 
HETATM   17  C6  UNL     1      22.563   5.793  49.749  1.00  0.00     0.070 C 
HETATM   18  C3  UNL     1      26.029   6.161  48.934  1.00  0.00    -0.025 C 
HETATM   19  C20 UNL     1      26.601   4.810  49.090  1.00  0.00     0.029 C 
HETATM   20  C19 UNL     1      25.768   3.778  49.299  1.00  0.00     0.099 C 
BRANCH  18  21
HETATM   21  C2  UNL     1      26.801   7.366  49.192  1.00  0.00    -0.014 C 
HETATM   22  C1  UNL     1      27.263   8.556  49.514  1.00  0.00     0.032 C 
ENDBRANCH  18  21
ENDBRANCH   1  14
BRANCH  11  23
HETATM   23  O2  UNL     1      24.468   4.369  52.425  1.00  0.00    -0.368 OA
HETATM   24  H19 UNL     1      25.386   4.110  52.155  1.00  0.00     0.212 HD
ENDBRANCH  11  23
BRANCH   7  25
HETATM   25  C12 UNL     1      21.089  -0.852  53.417  1.00  0.00     0.012 C 
HETATM   26  C13 UNL     1      19.733  -0.263  53.256  1.00  0.00     0.015 C 
HETATM   27  C14 UNL     1      21.449  -0.852  54.888  1.00  0.00     0.015 C 
ENDBRANCH   7  25
TORSDOF 4
ENDMDL
MODEL 2
REMARK VINA RESULT:      -7.9      1.873      2.342
REMARK  4 active torsions:
REMARK  status: ('A' for Active; 'I' for Inactive)
REMARK    1  A    between atoms: C2_2  and  C3_3 
REMARK    2  A    between atoms: N1_7  and  C7_8 
REMARK    3  A    between atoms: C11_14  and  C12_15 
REMARK    4  A    between atoms: C17_21  and  O2_22 
ROOT
HETATM    1  C7  UNL     1      22.461   4.004  51.261  1.00  0.00     0.156 A 
HETATM    2  N2  UNL     1      21.325   4.610  51.173  1.00  0.00    -0.224 NA
HETATM    3  C8  UNL     1      20.168   4.069  51.796  1.00  0.00     0.235 A 
HETATM    4  N3  UNL     1      20.243   2.961  52.449  1.00  0.00    -0.243 NA
HETATM    5  C9  UNL     1      21.478   2.257  52.558  1.00  0.00     0.081 A 
HETATM    6  C10 UNL     1      21.205   1.129  53.221  1.00  0.00     0.040 C 
HETATM    7  C11 UNL     1      22.175   0.070  53.573  1.00  0.00    -0.031 C 
HETATM    8  C15 UNL     1      23.333  -0.215  52.947  1.00  0.00     0.143 C 
HETATM    9  O1  UNL     1      23.753   0.517  51.824  1.00  0.00    -0.348 OA
HETATM   10  C16 UNL     1      23.774   1.875  51.554  1.00  0.00     0.231 C 
HETATM   11  C17 UNL     1      24.701   2.566  52.566  1.00  0.00     0.292 C 
HETATM   12  O3  UNL     1      23.568   3.129  53.109  1.00  0.00    -0.330 OA
HETATM   13  C18 UNL     1      22.737   2.750  52.013  1.00  0.00     0.199 A 
ENDROOT
BRANCH   1  14
HETATM   14  N1  UNL     1      23.352   4.841  50.517  1.00  0.00    -0.310 N 
HETATM   15  C5  UNL     1      23.815   4.484  49.197  1.00  0.00     0.026 C 
HETATM   16  C4  UNL     1      24.936   5.099  48.909  1.00  0.00     0.010 C 
HETATM   17  C6  UNL     1      22.998   3.535  48.405  1.00  0.00     0.070 C 
HETATM   18  C3  UNL     1      25.028   6.402  49.092  1.00  0.00    -0.025 C 
HETATM   19  C20 UNL     1      24.607   6.851  50.433  1.00  0.00     0.029 C 
HETATM   20  C19 UNL     1      23.774   6.073  51.141  1.00  0.00     0.099 C 
BRANCH  18  21
HETATM   21  C2  UNL     1      25.497   7.329  48.074  1.00  0.00    -0.014 C 
HETATM   22  C1  UNL     1      26.078   7.960  47.076  1.00  0.00     0.032 C 
ENDBRANCH  18  21
ENDBRANCH   1  14
BRANCH  11  23
HETATM   23  O2  UNL     1      25.638   3.414  52.024  1.00  0.00    -0.368 OA
HETATM   24  H19 UNL     1      26.487   3.275  52.515  1.00  0.00     0.212 HD
ENDBRANCH  11  23
BRANCH   7  25
HETATM   25  C12 UNL     1      21.766  -0.730  54.764  1.00  0.00     0.012 C 
HETATM   26  C13 UNL     1      22.907  -1.424  55.418  1.00  0.00     0.015 C 
HETATM   27  C14 UNL     1      20.748  -1.766  54.336  1.00  0.00     0.015 C 
ENDBRANCH   7  25
TORSDOF 4
ENDMDL
MODEL 3
REMARK VINA RESULT:      -7.8      3.110      5.716
REMARK  4 active torsions:
REMARK  status: ('A' for Active; 'I' for Inactive)
REMARK    1  A    between atoms: C2_2  and  C3_3 
REMARK    2  A    between atoms: N1_7  and  C7_8 
REMARK    3  A    between atoms: C11_14  and  C12_15 
REMARK    4  A    between atoms: C17_21  and  O2_22 
ROOT
HETATM    1  C7  UNL     1      22.313   1.255  52.053  1.00  0.00     0.156 A 
HETATM    2  N2  UNL     1      21.762   0.188  52.528  1.00  0.00    -0.224 NA
HETATM    3  C8  UNL     1      22.552  -0.815  53.153  1.00  0.00     0.235 A 
HETATM    4  N3  UNL     1      23.829  -0.670  53.243  1.00  0.00    -0.243 NA
HETATM    5  C9  UNL     1      24.474   0.488  52.719  1.00  0.00     0.081 A 
HETATM    6  C10 UNL     1      25.784   0.299  52.901  1.00  0.00     0.040 C 
HETATM    7  C11 UNL     1      26.862   1.234  52.513  1.00  0.00    -0.031 C 
HETATM    8  C15 UNL     1      26.819   2.167  51.542  1.00  0.00     0.143 C 
HETATM    9  O1  UNL     1      25.669   2.349  50.756  1.00  0.00    -0.348 OA
HETATM   10  C16 UNL     1      24.324   2.415  51.079  1.00  0.00     0.231 C 
HETATM   11  C17 UNL     1      24.095   3.623  52.001  1.00  0.00     0.292 C 
HETATM   12  O3  UNL     1      23.850   2.716  53.007  1.00  0.00    -0.330 OA
HETATM   13  C18 UNL     1      23.758   1.606  52.115  1.00  0.00     0.199 A 
ENDROOT
BRANCH   1  14
HETATM   14  N1  UNL     1      21.212   1.995  51.516  1.00  0.00    -0.310 N 
HETATM   15  C5  UNL     1      20.955   2.063  50.097  1.00  0.00     0.026 C 
HETATM   16  C4  UNL     1      20.244   3.123  49.797  1.00  0.00     0.010 C 
HETATM   17  C6  UNL     1      21.496   0.984  49.238  1.00  0.00     0.070 C 
HETATM   18  C3  UNL     1      19.143   3.380  50.478  1.00  0.00    -0.025 C 
HETATM   19  C20 UNL     1      19.325   3.367  51.942  1.00  0.00     0.029 C 
HETATM   20  C19 UNL     1      20.355   2.677  52.456  1.00  0.00     0.099 C 
BRANCH  18  21
HETATM   21  C2  UNL     1      17.856   3.652  49.857  1.00  0.00    -0.014 C 
HETATM   22  C1  UNL     1      16.667   4.081  49.494  1.00  0.00     0.032 C 
ENDBRANCH  18  21
ENDBRANCH   1  14
BRANCH  11  23
HETATM   23  O2  UNL     1      23.069   4.460  51.632  1.00  0.00    -0.368 OA
HETATM   24  H19 UNL     1      22.217   3.978  51.788  1.00  0.00     0.212 HD
ENDBRANCH  11  23
BRANCH   7  25
HETATM   25  C12 UNL     1      28.102   1.074  53.326  1.00  0.00     0.012 C 
HETATM   26  C13 UNL     1      27.873   0.337  54.597  1.00  0.00     0.015 C 
HETATM   27  C14 UNL     1      28.658   2.444  53.651  1.00  0.00     0.015 C 
ENDBRANCH   7  25
TORSDOF 4
ENDMDL
MODEL 4
REMARK VINA RESULT:      -7.8      1.422      2.105
REMARK  4 active torsions:
REMARK  status: ('A' for Active; 'I' for Inactive)
REMARK    1  A    between atoms: C2_2  and  C3_3 
REMARK    2  A    between atoms: N1_7  and  C7_8 
REMARK    3  A    between atoms: C11_14  and  C12_15 
REMARK    4  A    between atoms: C17_21  and  O2_22 
ROOT
HETATM    1  C7  UNL     1      23.499   4.567  49.750  1.00  0.00     0.156 A 
HETATM    2  N2  UNL     1      23.035   4.425  48.554  1.00  0.00    -0.224 NA
HETATM    3  C8  UNL     1      22.381   3.222  48.171  1.00  0.00     0.235 A 
HETATM    4  N3  UNL     1      22.253   2.259  49.017  1.00  0.00    -0.243 NA
HETATM    5  C9  UNL     1      22.763   2.374  50.343  1.00  0.00     0.081 A 
HETATM    6  C10 UNL     1      22.540   1.195  50.931  1.00  0.00     0.040 C 
HETATM    7  C11 UNL     1      22.900   0.832  52.318  1.00  0.00    -0.031 C 
HETATM    8  C15 UNL     1      23.877   1.370  53.073  1.00  0.00     0.143 C 
HETATM    9  O1  UNL     1      24.699   2.396  52.578  1.00  0.00    -0.348 OA
HETATM   10  C16 UNL     1      24.418   3.548  51.862  1.00  0.00     0.231 C 
HETATM   11  C17 UNL     1      23.511   4.450  52.712  1.00  0.00     0.292 C 
HETATM   12  O3  UNL     1      22.507   4.164  51.814  1.00  0.00    -0.330 OA
HETATM   13  C18 UNL     1      23.395   3.582  50.861  1.00  0.00     0.199 A 
ENDROOT
BRANCH   1  14
HETATM   14  N1  UNL     1      24.075   5.877  49.738  1.00  0.00    -0.310 N 
HETATM   15  C5  UNL     1      25.502   6.087  49.685  1.00  0.00     0.026 C 
HETATM   16  C4  UNL     1      25.822   7.269  50.152  1.00  0.00     0.010 C 
HETATM   17  C6  UNL     1      26.346   5.000  49.137  1.00  0.00     0.070 C 
HETATM   18  C3  UNL     1      25.183   8.336  49.712  1.00  0.00    -0.025 C 
HETATM   19  C20 UNL     1      23.713   8.221  49.765  1.00  0.00     0.029 C 
HETATM   20  C19 UNL     1      23.163   6.997  49.778  1.00  0.00     0.099 C 
BRANCH  18  21
HETATM   21  C2  UNL     1      25.852   9.527  49.212  1.00  0.00    -0.014 C 
HETATM   22  C1  UNL     1      26.211  10.667  48.662  1.00  0.00     0.032 C 
ENDBRANCH  18  21
ENDBRANCH   1  14
BRANCH  11  23
HETATM   23  O2  UNL     1      23.916   5.760  52.820  1.00  0.00    -0.368 OA
HETATM   24  H19 UNL     1      24.130   6.084  51.909  1.00  0.00     0.212 HD
ENDBRANCH  11  23
BRANCH   7  25
HETATM   25  C12 UNL     1      22.049  -0.255  52.883  1.00  0.00     0.012 C 
HETATM   26  C13 UNL     1      20.675   0.201  53.223  1.00  0.00     0.015 C 
HETATM   27  C14 UNL     1      22.707  -0.797  54.134  1.00  0.00     0.015 C 
ENDBRANCH   7  25
TORSDOF 4
ENDMDL
MODEL 5
REMARK VINA RESULT:      -7.5      1.800      7.093
REMARK  4 active torsions:
REMARK  status: ('A' for Active; 'I' for Inactive)
REMARK    1  A    between atoms: C2_2  and  C3_3 
REMARK    2  A    between atoms: N1_7  and  C7_8 
REMARK    3  A    between atoms: C11_14  and  C12_15 
REMARK    4  A    between atoms: C17_21  and  O2_22 
ROOT
HETATM    1  C7  UNL     1      23.501   1.756  51.560  1.00  0.00     0.156 A 
HETATM    2  N2  UNL     1      24.360   0.883  51.968  1.00  0.00    -0.224 NA
HETATM    3  C8  UNL     1      25.746   1.056  51.701  1.00  0.00     0.235 A 
HETATM    4  N3  UNL     1      26.155   2.084  51.041  1.00  0.00    -0.243 NA
HETATM    5  C9  UNL     1      25.234   3.062  50.564  1.00  0.00     0.081 A 
HETATM    6  C10 UNL     1      25.957   3.943  49.865  1.00  0.00     0.040 C 
HETATM    7  C11 UNL     1      25.437   5.141  49.172  1.00  0.00    -0.031 C 
HETATM    8  C15 UNL     1      24.187   5.336  48.710  1.00  0.00     0.143 C 
HETATM    9  O1  UNL     1      23.195   4.351  48.855  1.00  0.00    -0.348 OA
HETATM   10  C16 UNL     1      22.831   3.548  49.923  1.00  0.00     0.231 C 
HETATM   11  C17 UNL     1      22.352   4.445  51.075  1.00  0.00     0.292 C 
HETATM   12  O3  UNL     1      23.497   4.074  51.743  1.00  0.00    -0.330 OA
HETATM   13  C18 UNL     1      23.802   3.019  50.832  1.00  0.00     0.199 A 
ENDROOT
BRANCH   1  14
HETATM   14  N1  UNL     1      22.247   1.234  52.009  1.00  0.00    -0.310 N 
HETATM   15  C5  UNL     1      21.195   0.869  51.090  1.00  0.00     0.026 C 
HETATM   16  C4  UNL     1      20.027   0.878  51.683  1.00  0.00     0.010 C 
HETATM   17  C6  UNL     1      21.571   0.550  49.693  1.00  0.00     0.070 C 
HETATM   18  C3  UNL     1      19.875   0.244  52.830  1.00  0.00    -0.025 C 
HETATM   19  C20 UNL     1      20.891   0.587  53.845  1.00  0.00     0.029 C 
HETATM   20  C19 UNL     1      22.070   1.080  53.434  1.00  0.00     0.099 C 
BRANCH  18  21
HETATM   21  C2  UNL     1      18.811  -0.712  53.089  1.00  0.00    -0.014 C 
HETATM   22  C1  UNL     1      17.789  -1.541  53.061  1.00  0.00     0.032 C 
ENDBRANCH  18  21
ENDBRANCH   1  14
BRANCH  11  23
HETATM   23  O2  UNL     1      21.145   4.094  51.633  1.00  0.00    -0.368 OA
HETATM   24  H19 UNL     1      20.745   4.913  52.022  1.00  0.00     0.212 HD
ENDBRANCH  11  23
BRANCH   7  25
HETATM   25  C12 UNL     1      26.460   6.212  49.000  1.00  0.00     0.012 C 
HETATM   26  C13 UNL     1      26.037   7.274  48.049  1.00  0.00     0.015 C 
HETATM   27  C14 UNL     1      27.746   5.591  48.497  1.00  0.00     0.015 C 
ENDBRANCH   7  25
TORSDOF 4
ENDMDL
MODEL 6
REMARK VINA RESULT:      -7.4      9.777     11.137
REMARK  4 active torsions:
REMARK  status: ('A' for Active; 'I' for Inactive)
REMARK    1  A    between atoms: C2_2  and  C3_3 
REMARK    2  A    between atoms: N1_7  and  C7_8 
REMARK    3  A    between atoms: C11_14  and  C12_15 
REMARK    4  A    between atoms: C17_21  and  O2_22 
ROOT
HETATM    1  C7  UNL     1      31.374   8.408  46.627  1.00  0.00     0.156 A 
HETATM    2  N2  UNL     1      31.072   8.525  45.378  1.00  0.00    -0.224 NA
HETATM    3  C8  UNL     1      31.644   7.653  44.412  1.00  0.00     0.235 A 
HETATM    4  N3  UNL     1      32.477   6.741  44.778  1.00  0.00    -0.243 NA
HETATM    5  C9  UNL     1      32.844   6.589  46.147  1.00  0.00     0.081 A 
HETATM    6  C10 UNL     1      33.767   5.623  46.179  1.00  0.00     0.040 C 
HETATM    7  C11 UNL     1      34.451   5.113  47.386  1.00  0.00    -0.031 C 
HETATM    8  C15 UNL     1      34.653   5.768  48.546  1.00  0.00     0.143 C 
HETATM    9  O1  UNL     1      34.201   7.086  48.726  1.00  0.00    -0.348 OA
HETATM   10  C16 UNL     1      33.004   7.709  48.415  1.00  0.00     0.231 C 
HETATM   11  C17 UNL     1      31.873   7.030  49.204  1.00  0.00     0.292 C 
HETATM   12  O3  UNL     1      31.431   6.531  48.000  1.00  0.00    -0.330 OA
HETATM   13  C18 UNL     1      32.273   7.385  47.227  1.00  0.00     0.199 A 
ENDROOT
BRANCH   1  14
HETATM   14  N1  UNL     1      30.616   9.445  47.259  1.00  0.00    -0.310 N 
HETATM   15  C5  UNL     1      31.226  10.674  47.709  1.00  0.00     0.026 C 
HETATM   16  C4  UNL     1      30.504  11.244  48.643  1.00  0.00     0.010 C 
HETATM   17  C6  UNL     1      32.502  11.089  47.081  1.00  0.00     0.070 C 
HETATM   18  C3  UNL     1      29.211  11.416  48.449  1.00  0.00    -0.025 C 
HETATM   19  C20 UNL     1      28.500  10.196  48.020  1.00  0.00     0.029 C 
HETATM   20  C19 UNL     1      29.201   9.216  47.429  1.00  0.00     0.099 C 
BRANCH  18  21
HETATM   21  C2  UNL     1      28.530  12.688  48.633  1.00  0.00    -0.014 C 
HETATM   22  C1  UNL     1      27.730  13.733  48.630  1.00  0.00     0.032 C 
ENDBRANCH  18  21
ENDBRANCH   1  14
BRANCH  11  23
HETATM   23  O2  UNL     1      31.038   7.882  49.889  1.00  0.00    -0.368 OA
HETATM   24  H19 UNL     1      30.368   7.327  50.362  1.00  0.00     0.212 HD
ENDBRANCH  11  23
BRANCH   7  25
HETATM   25  C12 UNL     1      34.946   3.714  47.237  1.00  0.00     0.012 C 
HETATM   26  C13 UNL     1      35.175   3.326  45.820  1.00  0.00     0.015 C 
HETATM   27  C14 UNL     1      33.933   2.765  47.844  1.00  0.00     0.015 C 
ENDBRANCH   7  25
TORSDOF 4
ENDMDL
MODEL 7
REMARK VINA RESULT:      -7.4      1.996      2.888
REMARK  4 active torsions:
REMARK  status: ('A' for Active; 'I' for Inactive)
REMARK    1  A    between atoms: C2_2  and  C3_3 
REMARK    2  A    between atoms: N1_7  and  C7_8 
REMARK    3  A    between atoms: C11_14  and  C12_15 
REMARK    4  A    between atoms: C17_21  and  O2_22 
ROOT
HETATM    1  C7  UNL     1      24.318   3.098  51.231  1.00  0.00     0.156 A 
HETATM    2  N2  UNL     1      25.109   2.809  52.209  1.00  0.00    -0.224 NA
HETATM    3  C8  UNL     1      24.685   1.931  53.244  1.00  0.00     0.235 A 
HETATM    4  N3  UNL     1      23.502   1.422  53.217  1.00  0.00    -0.243 NA
HETATM    5  C9  UNL     1      22.597   1.728  52.159  1.00  0.00     0.081 A 
HETATM    6  C10 UNL     1      21.450   1.112  52.461  1.00  0.00     0.040 C 
HETATM    7  C11 UNL     1      20.209   1.140  51.658  1.00  0.00    -0.031 C 
HETATM    8  C15 UNL     1      19.825   2.091  50.786  1.00  0.00     0.143 C 
HETATM    9  O1  UNL     1      20.623   3.221  50.542  1.00  0.00    -0.348 OA
HETATM   10  C16 UNL     1      21.983   3.370  50.328  1.00  0.00     0.231 C 
HETATM   11  C17 UNL     1      22.370   2.608  49.051  1.00  0.00     0.292 C 
HETATM   12  O3  UNL     1      23.032   1.721  49.869  1.00  0.00    -0.330 OA
HETATM   13  C18 UNL     1      22.946   2.564  51.016  1.00  0.00     0.199 A 
ENDROOT
BRANCH   1  14
HETATM   14  N1  UNL     1      25.091   3.992  50.422  1.00  0.00    -0.310 N 
HETATM   15  C5  UNL     1      24.765   5.393  50.304  1.00  0.00     0.026 C 
HETATM   16  C4  UNL     1      25.262   5.900  49.203  1.00  0.00     0.010 C 
HETATM   17  C6  UNL     1      23.968   6.017  51.386  1.00  0.00     0.070 C 
HETATM   18  C3  UNL     1      26.532   5.697  48.909  1.00  0.00    -0.025 C 
HETATM   19  C20 UNL     1      26.943   4.281  48.970  1.00  0.00     0.029 C 
HETATM   20  C19 UNL     1      26.224   3.434  49.723  1.00  0.00     0.099 C 
BRANCH  18  21
HETATM   21  C2  UNL     1      27.459   6.760  48.556  1.00  0.00    -0.014 C 
HETATM   22  C1  UNL     1      28.488   7.540  48.304  1.00  0.00     0.032 C 
ENDBRANCH  18  21
ENDBRANCH   1  14
BRANCH  11  23
HETATM   23  O2  UNL     1      23.118   3.321  48.143  1.00  0.00    -0.368 OA
HETATM   24  H19 UNL     1      23.600   4.028  48.642  1.00  0.00     0.212 HD
ENDBRANCH  11  23
BRANCH   7  25
HETATM   25  C12 UNL     1      19.333  -0.046  51.887  1.00  0.00     0.012 C 
HETATM   26  C13 UNL     1      17.900   0.225  51.595  1.00  0.00     0.015 C 
HETATM   27  C14 UNL     1      19.462  -0.484  53.330  1.00  0.00     0.015 C 
ENDBRANCH   7  25
TORSDOF 4
ENDMDL
MODEL 8
REMARK VINA RESULT:      -7.4      2.837      4.003
REMARK  4 active torsions:
REMARK  status: ('A' for Active; 'I' for Inactive)
REMARK    1  A    between atoms: C2_2  and  C3_3 
REMARK    2  A    between atoms: N1_7  and  C7_8 
REMARK    3  A    between atoms: C11_14  and  C12_15 
REMARK    4  A    between atoms: C17_21  and  O2_22 
ROOT
HETATM    1  C7  UNL     1      24.920   4.961  50.004  1.00  0.00     0.156 A 
HETATM    2  N2  UNL     1      25.917   5.120  49.200  1.00  0.00    -0.224 NA
HETATM    3  C8  UNL     1      26.966   4.162  49.153  1.00  0.00     0.235 A 
HETATM    4  N3  UNL     1      26.934   3.129  49.922  1.00  0.00    -0.243 NA
HETATM    5  C9  UNL     1      25.855   2.927  50.832  1.00  0.00     0.081 A 
HETATM    6  C10 UNL     1      26.156   1.824  51.525  1.00  0.00     0.040 C 
HETATM    7  C11 UNL     1      25.335   1.216  52.593  1.00  0.00    -0.031 C 
HETATM    8  C15 UNL     1      24.434   1.835  53.380  1.00  0.00     0.143 C 
HETATM    9  O1  UNL     1      24.174   3.210  53.248  1.00  0.00    -0.348 OA
HETATM   10  C16 UNL     1      23.977   4.016  52.139  1.00  0.00     0.231 C 
HETATM   11  C17 UNL     1      22.725   3.533  51.392  1.00  0.00     0.292 C 
HETATM   12  O3  UNL     1      23.573   3.107  50.395  1.00  0.00    -0.330 OA
HETATM   13  C18 UNL     1      24.698   3.809  50.920  1.00  0.00     0.199 A 
ENDROOT
BRANCH   1  14
HETATM   14  N1  UNL     1      24.101   6.110  49.762  1.00  0.00    -0.310 N 
HETATM   15  C5  UNL     1      23.297   6.240  48.570  1.00  0.00     0.026 C 
HETATM   16  C4  UNL     1      23.025   7.498  48.321  1.00  0.00     0.010 C 
HETATM   17  C6  UNL     1      22.916   5.004  47.849  1.00  0.00     0.070 C 
HETATM   18  C3  UNL     1      22.547   8.262  49.284  1.00  0.00    -0.025 C 
HETATM   19  C20 UNL     1      23.332   8.217  50.533  1.00  0.00     0.029 C 
HETATM   20  C19 UNL     1      24.106   7.146  50.769  1.00  0.00     0.099 C 
BRANCH  18  21
HETATM   21  C2  UNL     1      21.352   9.080  49.147  1.00  0.00    -0.014 C 
HETATM   22  C1  UNL     1      20.223   9.743  49.279  1.00  0.00     0.032 C 
ENDBRANCH  18  21
ENDBRANCH   1  14
BRANCH  11  23
HETATM   23  O2  UNL     1      21.811   4.511  51.079  1.00  0.00    -0.368 OA
HETATM   24  H19 UNL     1      22.228   5.106  50.405  1.00  0.00     0.212 HD
ENDBRANCH  11  23
BRANCH   7  25
HETATM   25  C12 UNL     1      25.579  -0.246  52.765  1.00  0.00     0.012 C 
HETATM   26  C13 UNL     1      25.358  -0.713  54.159  1.00  0.00     0.015 C 
HETATM   27  C14 UNL     1      27.006  -0.558  52.366  1.00  0.00     0.015 C 
ENDBRANCH   7  25
TORSDOF 4
ENDMDL
MODEL 9
REMARK VINA RESULT:      -7.3      2.581      4.629
REMARK  4 active torsions:
REMARK  status: ('A' for Active; 'I' for Inactive)
REMARK    1  A    between atoms: C2_2  and  C3_3 
REMARK    2  A    between atoms: N1_7  and  C7_8 
REMARK    3  A    between atoms: C11_14  and  C12_15 
REMARK    4  A    between atoms: C17_21  and  O2_22 
ROOT
HETATM    1  C7  UNL     1      24.488   3.964  50.429  1.00  0.00     0.156 A 
HETATM    2  N2  UNL     1      25.208   4.326  49.421  1.00  0.00    -0.224 NA
HETATM    3  C8  UNL     1      26.537   3.842  49.273  1.00  0.00     0.235 A 
HETATM    4  N3  UNL     1      27.036   3.042  50.151  1.00  0.00    -0.243 NA
HETATM    5  C9  UNL     1      26.275   2.631  51.284  1.00  0.00     0.081 A 
HETATM    6  C10 UNL     1      27.092   1.879  52.027  1.00  0.00     0.040 C 
HETATM    7  C11 UNL     1      26.750   1.227  53.310  1.00  0.00    -0.031 C 
HETATM    8  C15 UNL     1      25.798   1.603  54.186  1.00  0.00     0.143 C 
HETATM    9  O1  UNL     1      24.989   2.726  53.945  1.00  0.00    -0.348 OA
HETATM   10  C16 UNL     1      24.326   3.168  52.813  1.00  0.00     0.231 C 
HETATM   11  C17 UNL     1      23.283   2.115  52.408  1.00  0.00     0.292 C 
HETATM   12  O3  UNL     1      24.078   1.853  51.315  1.00  0.00    -0.330 OA
HETATM   13  C18 UNL     1      24.886   3.014  51.504  1.00  0.00     0.199 A 
ENDROOT
BRANCH   1  14
HETATM   14  N1  UNL     1      23.249   4.651  50.226  1.00  0.00    -0.310 N 
HETATM   15  C5  UNL     1      22.925   5.869  50.930  1.00  0.00     0.026 C 
HETATM   16  C4  UNL     1      21.629   6.059  50.970  1.00  0.00     0.010 C 
HETATM   17  C6  UNL     1      24.041   6.682  51.467  1.00  0.00     0.070 C 
HETATM   18  C3  UNL     1      20.924   5.968  49.858  1.00  0.00    -0.025 C 
HETATM   19  C20 UNL     1      21.168   4.731  49.092  1.00  0.00     0.029 C 
HETATM   20  C19 UNL     1      22.326   4.077  49.276  1.00  0.00     0.099 C 
BRANCH  18  21
HETATM   21  C2  UNL     1      19.988   6.987  49.410  1.00  0.00    -0.014 C 
HETATM   22  C1  UNL     1      19.342   7.980  48.838  1.00  0.00     0.032 C 
ENDBRANCH  18  21
ENDBRANCH   1  14
BRANCH  11  23
HETATM   23  O2  UNL     1      22.016   2.598  52.175  1.00  0.00    -0.368 OA
HETATM   24  H19 UNL     1      22.019   3.029  51.283  1.00  0.00     0.212 HD
ENDBRANCH  11  23
BRANCH   7  25
HETATM   25  C12 UNL     1      27.586   0.027  53.602  1.00  0.00     0.012 C 
HETATM   26  C13 UNL     1      29.042   0.276  53.429  1.00  0.00     0.015 C 
HETATM   27  C14 UNL     1      27.171  -1.100  52.680  1.00  0.00     0.015 C 
ENDBRANCH   7  25
TORSDOF 4
ENDMDL
