MODEL 1
REMARK VINA RESULT:      -8.9      0.000      0.000
REMARK  4 active torsions:
REMARK  status: ('A' for Active; 'I' for Inactive)
REMARK    1  A    between atoms: C5_5  and  C6_6 
REMARK    2  A    between atoms: N2_8  and  C7_9 
REMARK    3  A    between atoms: C8_11  and  O1_12 
REMARK    4  A    between atoms: C10_15  and  C11_16 
ROOT
HETATM    1  C6  UNL     1      26.080   3.003  51.165  1.00  0.00     0.067 C 
HETATM    2  N1  UNL     1      26.984   2.213  51.576  1.00  0.00    -0.173 NA
HETATM    3  N2  UNL     1      26.487   1.306  52.536  1.00  0.00    -0.236 N 
HETATM    4  C10 UNL     1      25.229   1.765  53.014  1.00  0.00     0.151 C 
HETATM    5  C17 UNL     1      24.795   2.670  51.869  1.00  0.00     0.094 C 
ENDROOT
BRANCH   3   6
HETATM    6  C7  UNL     1      27.341   0.161  52.804  1.00  0.00     0.192 A 
HETATM    7  N3  UNL     1      27.403  -0.984  52.710  1.00  0.00    -0.198 NA
HETATM    8  C8  UNL     1      28.371  -1.802  53.066  1.00  0.00     0.171 A 
HETATM    9  C9  UNL     1      29.496  -1.174  53.646  1.00  0.00     0.111 A 
HETATM   10  S1  UNL     1      29.008   0.589  53.611  1.00  0.00    -0.058 SA
BRANCH   8  11
HETATM   11  O1  UNL     1      28.149  -3.173  52.819  1.00  0.00    -0.344 OA
HETATM   12  H7  UNL     1      27.243  -3.587  52.748  1.00  0.00     0.219 HD
ENDBRANCH   8  11
ENDBRANCH   3   6
BRANCH   4  13
HETATM   13  C11 UNL     1      24.197   0.742  53.202  1.00  0.00    -0.033 A 
HETATM   14  C12 UNL     1      24.193  -0.166  54.245  1.00  0.00     0.009 A 
HETATM   15  C13 UNL     1      23.234  -1.143  54.448  1.00  0.00     0.001 A 
HETATM   16  C14 UNL     1      22.199  -1.235  53.555  1.00  0.00     0.000 A 
HETATM   17  C15 UNL     1      22.156  -0.363  52.506  1.00  0.00     0.001 A 
HETATM   18  C16 UNL     1      23.133   0.616  52.318  1.00  0.00     0.009 A 
ENDBRANCH   4  13
BRANCH   1  19
HETATM   19  C5  UNL     1      26.224   4.069  50.177  1.00  0.00    -0.013 A 
HETATM   20  C4  UNL     1      27.360   4.158  49.244  1.00  0.00     0.010 A 
HETATM   21  C3  UNL     1      27.178   5.230  48.496  1.00  0.00    -0.018 A 
HETATM   22  C2  UNL     1      25.921   5.938  48.862  1.00  0.00     0.027 A 
HETATM   23  C1  UNL     1      26.199   7.323  49.399  1.00  0.00     0.018 C 
HETATM   24  C18 UNL     1      25.403   5.081  49.962  1.00  0.00    -0.005 A 
ENDBRANCH   1  19
TORSDOF 4
ENDMDL
MODEL 2
REMARK VINA RESULT:      -8.5      1.155      1.735
REMARK  4 active torsions:
REMARK  status: ('A' for Active; 'I' for Inactive)
REMARK    1  A    between atoms: C5_5  and  C6_6 
REMARK    2  A    between atoms: N2_8  and  C7_9 
REMARK    3  A    between atoms: C8_11  and  O1_12 
REMARK    4  A    between atoms: C10_15  and  C11_16 
ROOT
HETATM    1  C6  UNL     1      26.126   3.719  50.399  1.00  0.00     0.067 C 
HETATM    2  N1  UNL     1      26.822   2.821  50.965  1.00  0.00    -0.173 NA
HETATM    3  N2  UNL     1      26.026   1.972  51.764  1.00  0.00    -0.236 N 
HETATM    4  C10 UNL     1      24.756   2.576  51.978  1.00  0.00     0.151 C 
HETATM    5  C17 UNL     1      24.689   3.538  50.800  1.00  0.00     0.094 C 
ENDROOT
BRANCH   3   6
HETATM    6  C7  UNL     1      26.662   0.729  52.167  1.00  0.00     0.192 A 
HETATM    7  N3  UNL     1      26.613  -0.414  52.043  1.00  0.00    -0.198 NA
HETATM    8  C8  UNL     1      27.376  -1.347  52.571  1.00  0.00     0.171 A 
HETATM    9  C9  UNL     1      28.406  -0.868  53.411  1.00  0.00     0.111 A 
HETATM   10  S1  UNL     1      28.142   0.942  53.341  1.00  0.00    -0.058 SA
BRANCH   8  11
HETATM   11  O1  UNL     1      27.061  -2.678  52.225  1.00  0.00    -0.344 OA
HETATM   12  H7  UNL     1      26.467  -3.270  52.768  1.00  0.00     0.219 HD
ENDBRANCH   8  11
ENDBRANCH   3   6
BRANCH   4  13
HETATM   13  C11 UNL     1      23.596   1.684  51.904  1.00  0.00    -0.033 A 
HETATM   14  C12 UNL     1      22.789   1.558  50.788  1.00  0.00     0.009 A 
HETATM   15  C13 UNL     1      21.689   0.725  50.690  1.00  0.00     0.001 A 
HETATM   16  C14 UNL     1      21.354  -0.043  51.774  1.00  0.00     0.000 A 
HETATM   17  C15 UNL     1      22.117   0.044  52.902  1.00  0.00     0.001 A 
HETATM   18  C16 UNL     1      23.224   0.890  52.982  1.00  0.00     0.009 A 
ENDBRANCH   4  13
BRANCH   1  19
HETATM   19  C5  UNL     1      26.604   4.769  49.504  1.00  0.00    -0.013 A 
HETATM   20  C4  UNL     1      27.882   4.690  48.775  1.00  0.00     0.010 A 
HETATM   21  C3  UNL     1      28.003   5.794  48.064  1.00  0.00    -0.018 A 
HETATM   22  C2  UNL     1      26.832   6.692  48.254  1.00  0.00     0.027 A 
HETATM   23  C1  UNL     1      27.233   8.000  48.900  1.00  0.00     0.018 C 
HETATM   24  C18 UNL     1      26.004   5.908  49.210  1.00  0.00    -0.005 A 
ENDBRANCH   1  19
TORSDOF 4
ENDMDL
MODEL 3
REMARK VINA RESULT:      -8.4      2.416      4.268
REMARK  4 active torsions:
REMARK  status: ('A' for Active; 'I' for Inactive)
REMARK    1  A    between atoms: C5_5  and  C6_6 
REMARK    2  A    between atoms: N2_8  and  C7_9 
REMARK    3  A    between atoms: C8_11  and  O1_12 
REMARK    4  A    between atoms: C10_15  and  C11_16 
ROOT
HETATM    1  C6  UNL     1      24.983   2.878  51.173  1.00  0.00     0.067 C 
HETATM    2  N1  UNL     1      24.150   2.135  51.778  1.00  0.00    -0.173 NA
HETATM    3  N2  UNL     1      24.763   0.965  52.276  1.00  0.00    -0.236 N 
HETATM    4  C10 UNL     1      26.034   0.796  51.660  1.00  0.00     0.151 C 
HETATM    5  C17 UNL     1      26.334   2.222  51.216  1.00  0.00     0.094 C 
ENDROOT
BRANCH   3   6
HETATM    6  C7  UNL     1      23.985   0.234  53.263  1.00  0.00     0.192 A 
HETATM    7  N3  UNL     1      24.074  -0.466  54.171  1.00  0.00    -0.198 NA
HETATM    8  C8  UNL     1      23.127  -1.004  54.909  1.00  0.00     0.171 A 
HETATM    9  C9  UNL     1      21.810  -0.666  54.525  1.00  0.00     0.111 A 
HETATM   10  S1  UNL     1      22.102   0.428  53.088  1.00  0.00    -0.058 SA
BRANCH   8  11
HETATM   11  O1  UNL     1      23.557  -1.831  55.968  1.00  0.00    -0.344 OA
HETATM   12  H7  UNL     1      22.938  -2.294  56.601  1.00  0.00     0.219 HD
ENDBRANCH   8  11
ENDBRANCH   3   6
BRANCH   4  13
HETATM   13  C11 UNL     1      27.122   0.353  52.535  1.00  0.00    -0.033 A 
HETATM   14  C12 UNL     1      27.871   1.204  53.326  1.00  0.00     0.009 A 
HETATM   15  C13 UNL     1      28.904   0.815  54.161  1.00  0.00     0.001 A 
HETATM   16  C14 UNL     1      29.226  -0.516  54.222  1.00  0.00     0.000 A 
HETATM   17  C15 UNL     1      28.517  -1.399  53.460  1.00  0.00     0.001 A 
HETATM   18  C16 UNL     1      27.478  -0.987  52.624  1.00  0.00     0.009 A 
ENDBRANCH   4  13
BRANCH   1  19
HETATM   19  C5  UNL     1      24.712   4.162  50.531  1.00  0.00    -0.013 A 
HETATM   20  C4  UNL     1      25.504   4.685  49.405  1.00  0.00     0.010 A 
HETATM   21  C3  UNL     1      24.995   5.855  49.071  1.00  0.00    -0.018 A 
HETATM   22  C2  UNL     1      23.836   6.209  49.934  1.00  0.00     0.027 A 
HETATM   23  C1  UNL     1      24.112   7.446  50.757  1.00  0.00     0.018 C 
HETATM   24  C18 UNL     1      23.762   5.027  50.835  1.00  0.00    -0.005 A 
ENDBRANCH   1  19
TORSDOF 4
ENDMDL
MODEL 4
REMARK VINA RESULT:      -8.3      3.831      6.122
REMARK  4 active torsions:
REMARK  status: ('A' for Active; 'I' for Inactive)
REMARK    1  A    between atoms: C5_5  and  C6_6 
REMARK    2  A    between atoms: N2_8  and  C7_9 
REMARK    3  A    between atoms: C8_11  and  O1_12 
REMARK    4  A    between atoms: C10_15  and  C11_16 
ROOT
HETATM    1  C6  UNL     1      25.789   1.235  52.858  1.00  0.00     0.067 C 
HETATM    2  N1  UNL     1      25.389   2.260  52.224  1.00  0.00    -0.173 NA
HETATM    3  N2  UNL     1      24.060   2.109  51.774  1.00  0.00    -0.236 N 
HETATM    4  C10 UNL     1      23.686   0.738  51.854  1.00  0.00     0.151 C 
HETATM    5  C17 UNL     1      24.676   0.226  52.891  1.00  0.00     0.094 C 
ENDROOT
BRANCH   3   6
HETATM    6  C7  UNL     1      23.408   3.336  51.351  1.00  0.00     0.192 A 
HETATM    7  N3  UNL     1      23.014   4.349  51.730  1.00  0.00    -0.198 NA
HETATM    8  C8  UNL     1      22.430   5.322  51.065  1.00  0.00     0.171 A 
HETATM    9  C9  UNL     1      22.267   5.083  49.682  1.00  0.00     0.111 A 
HETATM   10  S1  UNL     1      23.002   3.417  49.495  1.00  0.00    -0.058 SA
BRANCH   8  11
HETATM   11  O1  UNL     1      22.055   6.454  51.819  1.00  0.00    -0.344 OA
HETATM   12  H7  UNL     1      22.120   6.507  52.815  1.00  0.00     0.219 HD
ENDBRANCH   8  11
ENDBRANCH   3   6
BRANCH   4  13
HETATM   13  C11 UNL     1      22.332   0.466  52.342  1.00  0.00    -0.033 A 
HETATM   14  C12 UNL     1      21.223   0.365  51.523  1.00  0.00     0.009 A 
HETATM   15  C13 UNL     1      19.933   0.109  51.955  1.00  0.00     0.001 A 
HETATM   16  C14 UNL     1      19.717  -0.060  53.297  1.00  0.00     0.000 A 
HETATM   17  C15 UNL     1      20.779   0.030  54.150  1.00  0.00     0.001 A 
HETATM   18  C16 UNL     1      22.073   0.289  53.695  1.00  0.00     0.009 A 
ENDBRANCH   4  13
BRANCH   1  19
HETATM   19  C5  UNL     1      27.101   1.033  53.466  1.00  0.00    -0.013 A 
HETATM   20  C4  UNL     1      28.107   2.101  53.592  1.00  0.00     0.010 A 
HETATM   21  C3  UNL     1      29.167   1.583  54.182  1.00  0.00    -0.018 A 
HETATM   22  C2  UNL     1      28.962   0.143  54.496  1.00  0.00     0.027 A 
HETATM   23  C1  UNL     1      29.929  -0.736  53.736  1.00  0.00     0.018 C 
HETATM   24  C18 UNL     1      27.584  -0.083  53.979  1.00  0.00    -0.005 A 
ENDBRANCH   1  19
TORSDOF 4
ENDMDL
MODEL 5
REMARK VINA RESULT:      -7.9      3.604      6.118
REMARK  4 active torsions:
REMARK  status: ('A' for Active; 'I' for Inactive)
REMARK    1  A    between atoms: C5_5  and  C6_6 
REMARK    2  A    between atoms: N2_8  and  C7_9 
REMARK    3  A    between atoms: C8_11  and  O1_12 
REMARK    4  A    between atoms: C10_15  and  C11_16 
ROOT
HETATM    1  C6  UNL     1      25.705   1.378  53.362  1.00  0.00     0.067 C 
HETATM    2  N1  UNL     1      24.660   0.780  53.761  1.00  0.00    -0.173 NA
HETATM    3  N2  UNL     1      23.490   1.354  53.218  1.00  0.00    -0.236 N 
HETATM    4  C10 UNL     1      23.800   2.632  52.674  1.00  0.00     0.151 C 
HETATM    5  C17 UNL     1      25.299   2.496  52.443  1.00  0.00     0.094 C 
ENDROOT
BRANCH   3   6
HETATM    6  C7  UNL     1      22.291   0.542  53.335  1.00  0.00     0.192 A 
HETATM    7  N3  UNL     1      21.200   0.454  52.982  1.00  0.00    -0.198 NA
HETATM    8  C8  UNL     1      20.294  -0.453  53.280  1.00  0.00     0.171 A 
HETATM    9  C9  UNL     1      20.735  -1.465  54.163  1.00  0.00     0.111 A 
HETATM   10  S1  UNL     1      22.469  -0.971  54.473  1.00  0.00    -0.058 SA
BRANCH   8  11
HETATM   11  O1  UNL     1      19.028  -0.288  52.682  1.00  0.00    -0.344 OA
HETATM   12  H7  UNL     1      18.187  -0.118  53.194  1.00  0.00     0.219 HD
ENDBRANCH   8  11
ENDBRANCH   3   6
BRANCH   4  13
HETATM   13  C11 UNL     1      23.168   2.959  51.393  1.00  0.00    -0.033 A 
HETATM   14  C12 UNL     1      23.650   2.539  50.167  1.00  0.00     0.009 A 
HETATM   15  C13 UNL     1      23.076   2.832  48.942  1.00  0.00     0.001 A 
HETATM   16  C14 UNL     1      21.941   3.598  48.921  1.00  0.00     0.000 A 
HETATM   17  C15 UNL     1      21.423   4.039  50.105  1.00  0.00     0.001 A 
HETATM   18  C16 UNL     1      22.017   3.733  51.331  1.00  0.00     0.009 A 
ENDBRANCH   4  13
BRANCH   1  19
HETATM   19  C5  UNL     1      27.087   1.064  53.713  1.00  0.00    -0.013 A 
HETATM   20  C4  UNL     1      28.186   2.041  53.621  1.00  0.00     0.010 A 
HETATM   21  C3  UNL     1      29.291   1.434  54.010  1.00  0.00    -0.018 A 
HETATM   22  C2  UNL     1      29.028   0.019  54.389  1.00  0.00     0.027 A 
HETATM   23  C1  UNL     1      29.753  -0.945  53.478  1.00  0.00     0.018 C 
HETATM   24  C18 UNL     1      27.563  -0.088  54.149  1.00  0.00    -0.005 A 
ENDBRANCH   1  19
TORSDOF 4
ENDMDL
MODEL 6
REMARK VINA RESULT:      -7.7      4.205      7.932
REMARK  4 active torsions:
REMARK  status: ('A' for Active; 'I' for Inactive)
REMARK    1  A    between atoms: C5_5  and  C6_6 
REMARK    2  A    between atoms: N2_8  and  C7_9 
REMARK    3  A    between atoms: C8_11  and  O1_12 
REMARK    4  A    between atoms: C10_15  and  C11_16 
ROOT
HETATM    1  C6  UNL     1      23.347   2.047  51.784  1.00  0.00     0.067 C 
HETATM    2  N1  UNL     1      22.556   2.276  50.819  1.00  0.00    -0.173 NA
HETATM    3  N2  UNL     1      22.972   3.389  50.057  1.00  0.00    -0.236 N 
HETATM    4  C10 UNL     1      23.942   4.129  50.790  1.00  0.00     0.151 C 
HETATM    5  C17 UNL     1      24.451   3.066  51.754  1.00  0.00     0.094 C 
ENDROOT
BRANCH   3   6
HETATM    6  C7  UNL     1      22.340   3.518  48.755  1.00  0.00     0.192 A 
HETATM    7  N3  UNL     1      22.536   3.441  47.624  1.00  0.00    -0.198 NA
HETATM    8  C8  UNL     1      21.710   3.627  46.617  1.00  0.00     0.171 A 
HETATM    9  C9  UNL     1      20.390   3.970  46.986  1.00  0.00     0.111 A 
HETATM   10  S1  UNL     1      20.498   3.986  48.813  1.00  0.00    -0.058 SA
BRANCH   8  11
HETATM   11  O1  UNL     1      22.254   3.459  45.326  1.00  0.00    -0.344 OA
HETATM   12  H7  UNL     1      23.030   3.982  44.976  1.00  0.00     0.219 HD
ENDBRANCH   8  11
ENDBRANCH   3   6
BRANCH   4  13
HETATM   13  C11 UNL     1      25.083   4.634  50.023  1.00  0.00    -0.033 A 
HETATM   14  C12 UNL     1      26.165   3.859  49.650  1.00  0.00     0.009 A 
HETATM   15  C13 UNL     1      27.257   4.308  48.927  1.00  0.00     0.001 A 
HETATM   16  C14 UNL     1      27.287   5.622  48.542  1.00  0.00     0.000 A 
HETATM   17  C15 UNL     1      26.243   6.432  48.886  1.00  0.00     0.001 A 
HETATM   18  C16 UNL     1      25.151   5.960  49.616  1.00  0.00     0.009 A 
ENDBRANCH   4  13
BRANCH   1  19
HETATM   19  C5  UNL     1      23.238   0.983  52.778  1.00  0.00    -0.013 A 
HETATM   20  C4  UNL     1      24.366   0.119  53.165  1.00  0.00     0.010 A 
HETATM   21  C3  UNL     1      23.926  -0.726  54.077  1.00  0.00    -0.018 A 
HETATM   22  C2  UNL     1      22.484  -0.503  54.373  1.00  0.00     0.027 A 
HETATM   23  C1  UNL     1      21.645  -1.700  53.989  1.00  0.00     0.018 C 
HETATM   24  C18 UNL     1      22.165   0.631  53.463  1.00  0.00    -0.005 A 
ENDBRANCH   1  19
TORSDOF 4
ENDMDL
MODEL 7
REMARK VINA RESULT:      -7.5      3.362      4.678
REMARK  4 active torsions:
REMARK  status: ('A' for Active; 'I' for Inactive)
REMARK    1  A    between atoms: C5_5  and  C6_6 
REMARK    2  A    between atoms: N2_8  and  C7_9 
REMARK    3  A    between atoms: C8_11  and  O1_12 
REMARK    4  A    between atoms: C10_15  and  C11_16 
ROOT
HETATM    1  C6  UNL     1      25.864   4.088  49.868  1.00  0.00     0.067 C 
HETATM    2  N1  UNL     1      24.626   3.916  50.089  1.00  0.00    -0.173 NA
HETATM    3  N2  UNL     1      24.390   2.750  50.849  1.00  0.00    -0.236 N 
HETATM    4  C10 UNL     1      25.556   1.935  50.842  1.00  0.00     0.151 C 
HETATM    5  C17 UNL     1      26.628   2.964  50.510  1.00  0.00     0.094 C 
ENDROOT
BRANCH   3   6
HETATM    6  C7  UNL     1      23.065   2.656  51.439  1.00  0.00     0.192 A 
HETATM    7  N3  UNL     1      22.313   1.919  51.902  1.00  0.00    -0.198 NA
HETATM    8  C8  UNL     1      21.107   2.142  52.378  1.00  0.00     0.171 A 
HETATM    9  C9  UNL     1      20.680   3.487  52.308  1.00  0.00     0.111 A 
HETATM   10  S1  UNL     1      22.122   4.304  51.532  1.00  0.00    -0.058 SA
BRANCH   8  11
HETATM   11  O1  UNL     1      20.421   1.019  52.887  1.00  0.00    -0.344 OA
HETATM   12  H7  UNL     1      20.213   0.202  52.349  1.00  0.00     0.219 HD
ENDBRANCH   8  11
ENDBRANCH   3   6
BRANCH   4  13
HETATM   13  C11 UNL     1      25.910   1.303  52.115  1.00  0.00    -0.033 A 
HETATM   14  C12 UNL     1      26.101   1.998  53.295  1.00  0.00     0.009 A 
HETATM   15  C13 UNL     1      26.436   1.428  54.511  1.00  0.00     0.001 A 
HETATM   16  C14 UNL     1      26.596   0.069  54.571  1.00  0.00     0.000 A 
HETATM   17  C15 UNL     1      26.419  -0.665  53.434  1.00  0.00     0.001 A 
HETATM   18  C16 UNL     1      26.081  -0.072  52.216  1.00  0.00     0.009 A 
ENDBRANCH   4  13
BRANCH   1  19
HETATM   19  C5  UNL     1      26.481   5.179  49.120  1.00  0.00    -0.013 A 
HETATM   20  C4  UNL     1      27.859   5.126  48.601  1.00  0.00     0.010 A 
HETATM   21  C3  UNL     1      28.094   6.267  47.980  1.00  0.00    -0.018 A 
HETATM   22  C2  UNL     1      26.910   7.166  48.032  1.00  0.00     0.027 A 
HETATM   23  C1  UNL     1      27.205   8.431  48.805  1.00  0.00     0.018 C 
HETATM   24  C18 UNL     1      25.938   6.339  48.798  1.00  0.00    -0.005 A 
ENDBRANCH   1  19
TORSDOF 4
ENDMDL
MODEL 8
REMARK VINA RESULT:      -7.5      2.562      3.556
REMARK  4 active torsions:
REMARK  status: ('A' for Active; 'I' for Inactive)
REMARK    1  A    between atoms: C5_5  and  C6_6 
REMARK    2  A    between atoms: N2_8  and  C7_9 
REMARK    3  A    between atoms: C8_11  and  O1_12 
REMARK    4  A    between atoms: C10_15  and  C11_16 
ROOT
HETATM    1  C6  UNL     1      25.663   4.457  49.726  1.00  0.00     0.067 C 
HETATM    2  N1  UNL     1      25.908   3.636  50.662  1.00  0.00    -0.173 NA
HETATM    3  N2  UNL     1      24.734   2.997  51.116  1.00  0.00    -0.236 N 
HETATM    4  C10 UNL     1      23.595   3.707  50.643  1.00  0.00     0.151 C 
HETATM    5  C17 UNL     1      24.186   4.441  49.447  1.00  0.00     0.094 C 
ENDROOT
BRANCH   3   6
HETATM    6  C7  UNL     1      24.950   1.812  51.928  1.00  0.00     0.192 A 
HETATM    7  N3  UNL     1      24.413   1.031  52.581  1.00  0.00    -0.198 NA
HETATM    8  C8  UNL     1      24.909   0.002  53.234  1.00  0.00     0.171 A 
HETATM    9  C9  UNL     1      26.307  -0.163  53.110  1.00  0.00     0.111 A 
HETATM   10  S1  UNL     1      26.761   1.240  52.026  1.00  0.00    -0.058 SA
BRANCH   8  11
HETATM   11  O1  UNL     1      23.984  -0.781  53.956  1.00  0.00    -0.344 OA
HETATM   12  H7  UNL     1      24.011  -1.780  53.995  1.00  0.00     0.219 HD
ENDBRANCH   8  11
ENDBRANCH   3   6
BRANCH   4  13
HETATM   13  C11 UNL     1      22.475   2.890  50.169  1.00  0.00    -0.033 A 
HETATM   14  C12 UNL     1      22.517   2.113  49.027  1.00  0.00     0.009 A 
HETATM   15  C13 UNL     1      21.477   1.332  48.555  1.00  0.00     0.001 A 
HETATM   16  C14 UNL     1      20.303   1.315  49.261  1.00  0.00     0.000 A 
HETATM   17  C15 UNL     1      20.208   2.066  50.397  1.00  0.00     0.001 A 
HETATM   18  C16 UNL     1      21.269   2.848  50.857  1.00  0.00     0.009 A 
ENDBRANCH   4  13
BRANCH   1  19
HETATM   19  C5  UNL     1      26.625   5.294  49.015  1.00  0.00    -0.013 A 
HETATM   20  C4  UNL     1      27.977   4.840  48.651  1.00  0.00     0.010 A 
HETATM   21  C3  UNL     1      28.576   5.834  48.024  1.00  0.00    -0.018 A 
HETATM   22  C2  UNL     1      27.685   7.022  47.917  1.00  0.00     0.027 A 
HETATM   23  C1  UNL     1      28.242   8.205  48.677  1.00  0.00     0.018 C 
HETATM   24  C18 UNL     1      26.455   6.536  48.600  1.00  0.00    -0.005 A 
ENDBRANCH   1  19
TORSDOF 4
ENDMDL
MODEL 9
REMARK VINA RESULT:      -7.4      3.779      6.657
REMARK  4 active torsions:
REMARK  status: ('A' for Active; 'I' for Inactive)
REMARK    1  A    between atoms: C5_5  and  C6_6 
REMARK    2  A    between atoms: N2_8  and  C7_9 
REMARK    3  A    between atoms: C8_11  and  O1_12 
REMARK    4  A    between atoms: C10_15  and  C11_16 
ROOT
HETATM    1  C6  UNL     1      26.267   2.097  51.340  1.00  0.00     0.067 C 
HETATM    2  N1  UNL     1      26.772   3.067  50.694  1.00  0.00    -0.173 NA
HETATM    3  N2  UNL     1      25.780   3.836  50.048  1.00  0.00    -0.236 N 
HETATM    4  C10 UNL     1      24.559   3.106  50.019  1.00  0.00     0.151 C 
HETATM    5  C17 UNL     1      24.774   2.133  51.170  1.00  0.00     0.094 C 
ENDROOT
BRANCH   3   6
HETATM    6  C7  UNL     1      26.218   5.141  49.581  1.00  0.00     0.192 A 
HETATM    7  N3  UNL     1      25.950   6.259  49.589  1.00  0.00    -0.198 NA
HETATM    8  C8  UNL     1      26.581   7.275  49.039  1.00  0.00     0.171 A 
HETATM    9  C9  UNL     1      27.761   6.934  48.340  1.00  0.00     0.111 A 
HETATM   10  S1  UNL     1      27.824   5.119  48.564  1.00  0.00    -0.058 SA
BRANCH   8  11
HETATM   11  O1  UNL     1      25.996   8.545  49.226  1.00  0.00    -0.344 OA
HETATM   12  H7  UNL     1      25.131   8.827  48.813  1.00  0.00     0.219 HD
ENDBRANCH   8  11
ENDBRANCH   3   6
BRANCH   4  13
HETATM   13  C11 UNL     1      23.342   3.874  50.291  1.00  0.00    -0.033 A 
HETATM   14  C12 UNL     1      23.030   4.414  51.525  1.00  0.00     0.009 A 
HETATM   15  C13 UNL     1      21.889   5.142  51.812  1.00  0.00     0.001 A 
HETATM   16  C14 UNL     1      20.982   5.355  50.807  1.00  0.00     0.000 A 
HETATM   17  C15 UNL     1      21.241   4.842  49.569  1.00  0.00     0.001 A 
HETATM   18  C16 UNL     1      22.399   4.110  49.299  1.00  0.00     0.009 A 
ENDBRANCH   4  13
BRANCH   1  19
HETATM   19  C5  UNL     1      26.981   1.096  52.126  1.00  0.00    -0.013 A 
HETATM   20  C4  UNL     1      26.568  -0.316  52.204  1.00  0.00     0.010 A 
HETATM   21  C3  UNL     1      27.425  -0.938  52.991  1.00  0.00    -0.018 A 
HETATM   22  C2  UNL     1      28.468  -0.007  53.499  1.00  0.00     0.027 A 
HETATM   23  C1  UNL     1      28.399   0.140  55.002  1.00  0.00     0.018 C 
HETATM   24  C18 UNL     1      28.062   1.275  52.862  1.00  0.00    -0.005 A 
ENDBRANCH   1  19
TORSDOF 4
ENDMDL
