MODEL 1
REMARK VINA RESULT:      -7.6      0.000      0.000
REMARK  5 active torsions:
REMARK  status: ('A' for Active; 'I' for Inactive)
REMARK    1  A    between atoms: O1_2  and  C2_3 
REMARK    2  A    between atoms: C6_9  and  N3_10 
REMARK    3  A    between atoms: N3_10  and  C8_12 
REMARK    4  A    between atoms: C12_16  and  C13_17 
REMARK    5  A    between atoms: C17_24  and  O2_25 
ROOT
HETATM    1  C2  UNL     1      20.200   3.107  51.826  1.00  0.00     0.102 C 
HETATM    2  C3  UNL     1      20.860   4.279  52.127  1.00  0.00     0.059 C 
HETATM    3  C4  UNL     1      21.449   5.324  51.445  1.00  0.00     0.121 C 
HETATM    4  N1  UNL     1      22.797   5.457  51.327  1.00  0.00    -0.254 NA
HETATM    5  C5  UNL     1      23.580   4.669  52.107  1.00  0.00     0.234 C 
HETATM    6  N2  UNL     1      23.200   3.387  52.073  1.00  0.00    -0.224 NA
HETATM    7  C6  UNL     1      23.611   2.478  51.173  1.00  0.00     0.131 C 
HETATM    8  C15 UNL     1      22.716   1.829  50.347  1.00  0.00     0.053 C 
HETATM    9  C16 UNL     1      21.483   1.307  50.672  1.00  0.00     0.043 C 
HETATM   10  C17 UNL     1      20.478   1.806  51.471  1.00  0.00     0.101 C 
ENDROOT
BRANCH   7  11
HETATM   11  N3  UNL     1      25.017   2.267  51.161  1.00  0.00    -0.336 N 
HETATM   12  C7  UNL     1      25.588   2.977  50.061  1.00  0.00     0.158 C 
BRANCH  11  13
HETATM   13  C8  UNL     1      25.624   1.450  52.154  1.00  0.00     0.036 A 
HETATM   14  C9  UNL     1      24.981   0.356  52.711  1.00  0.00     0.029 A 
HETATM   15  C10 UNL     1      25.662  -0.370  53.667  1.00  0.00     0.003 A 
HETATM   16  C11 UNL     1      26.937  -0.096  54.117  1.00  0.00     0.016 A 
HETATM   17  C12 UNL     1      27.586   1.008  53.554  1.00  0.00     0.050 A 
HETATM   18  C14 UNL     1      26.901   1.729  52.600  1.00  0.00     0.045 A 
BRANCH  17  19
HETATM   19  C13 UNL     1      28.974   1.393  53.971  1.00  0.00     0.417 C 
HETATM   20  F1  UNL     1      29.128   2.764  53.859  1.00  0.00    -0.166 F 
HETATM   21  F2  UNL     1      29.891   0.709  53.214  1.00  0.00    -0.166 F 
HETATM   22  F3  UNL     1      29.135   1.037  55.297  1.00  0.00    -0.166 F 
ENDBRANCH  17  19
ENDBRANCH  11  13
ENDBRANCH   7  11
BRANCH  10  23
HETATM   23  O2  UNL     1      19.588   0.920  52.027  1.00  0.00    -0.353 OA
HETATM   24  C18 UNL     1      18.736   0.119  51.242  1.00  0.00     0.210 C 
ENDBRANCH  10  23
BRANCH   1  25
HETATM   25  O1  UNL     1      18.919   3.539  51.967  1.00  0.00    -0.353 OA
HETATM   26  C1  UNL     1      18.037   3.903  50.957  1.00  0.00     0.210 C 
ENDBRANCH   1  25
TORSDOF 5
ENDMDL
MODEL 2
REMARK VINA RESULT:      -7.5      3.716      6.112
REMARK  5 active torsions:
REMARK  status: ('A' for Active; 'I' for Inactive)
REMARK    1  A    between atoms: O1_2  and  C2_3 
REMARK    2  A    between atoms: C6_9  and  N3_10 
REMARK    3  A    between atoms: N3_10  and  C8_12 
REMARK    4  A    between atoms: C12_16  and  C13_17 
REMARK    5  A    between atoms: C17_24  and  O2_25 
ROOT
HETATM    1  C2  UNL     1      25.090  -0.041  53.429  1.00  0.00     0.102 C 
HETATM    2  C3  UNL     1      26.284   0.356  52.865  1.00  0.00     0.059 C 
HETATM    3  C4  UNL     1      27.165   1.412  52.977  1.00  0.00     0.121 C 
HETATM    4  N1  UNL     1      27.242   2.405  52.053  1.00  0.00    -0.254 NA
HETATM    5  C5  UNL     1      26.602   2.219  50.871  1.00  0.00     0.234 C 
HETATM    6  N2  UNL     1      25.346   1.791  51.038  1.00  0.00    -0.224 NA
HETATM    7  C6  UNL     1      24.272   2.580  51.211  1.00  0.00     0.131 C 
HETATM    8  C15 UNL     1      23.497   2.498  52.349  1.00  0.00     0.053 C 
HETATM    9  C16 UNL     1      23.074   1.365  53.011  1.00  0.00     0.043 C 
HETATM   10  C17 UNL     1      23.740   0.195  53.306  1.00  0.00     0.101 C 
ENDROOT
BRANCH   7  11
HETATM   11  N3  UNL     1      24.032   3.477  50.136  1.00  0.00    -0.336 N 
HETATM   12  C7  UNL     1      23.258   2.813  49.135  1.00  0.00     0.158 C 
BRANCH  11  13
HETATM   13  C8  UNL     1      24.545   4.802  50.183  1.00  0.00     0.036 A 
HETATM   14  C9  UNL     1      24.044   5.761  51.049  1.00  0.00     0.029 A 
HETATM   15  C10 UNL     1      24.615   7.018  51.014  1.00  0.00     0.003 A 
HETATM   16  C11 UNL     1      25.650   7.400  50.185  1.00  0.00     0.016 A 
HETATM   17  C12 UNL     1      26.155   6.431  49.311  1.00  0.00     0.050 A 
HETATM   18  C14 UNL     1      25.580   5.179  49.351  1.00  0.00     0.045 A 
BRANCH  17  19
HETATM   19  C13 UNL     1      27.279   6.741  48.368  1.00  0.00     0.417 C 
HETATM   20  F1  UNL     1      28.194   7.569  48.995  1.00  0.00    -0.166 F 
HETATM   21  F2  UNL     1      26.779   7.303  47.221  1.00  0.00    -0.166 F 
HETATM   22  F3  UNL     1      27.906   5.552  48.047  1.00  0.00    -0.166 F 
ENDBRANCH  17  19
ENDBRANCH  11  13
ENDBRANCH   7  11
BRANCH  10  23
HETATM   23  O2  UNL     1      22.997  -0.940  53.520  1.00  0.00    -0.353 OA
HETATM   24  C18 UNL     1      22.026  -1.022  54.536  1.00  0.00     0.210 C 
ENDBRANCH  10  23
BRANCH   1  25
HETATM   25  O1  UNL     1      25.570  -0.917  54.351  1.00  0.00    -0.353 OA
HETATM   26  C1  UNL     1      25.616  -0.749  55.729  1.00  0.00     0.210 C 
ENDBRANCH   1  25
TORSDOF 5
ENDMDL
MODEL 3
REMARK VINA RESULT:      -7.4      2.874      3.424
REMARK  5 active torsions:
REMARK  status: ('A' for Active; 'I' for Inactive)
REMARK    1  A    between atoms: O1_2  and  C2_3 
REMARK    2  A    between atoms: C6_9  and  N3_10 
REMARK    3  A    between atoms: N3_10  and  C8_12 
REMARK    4  A    between atoms: C12_16  and  C13_17 
REMARK    5  A    between atoms: C17_24  and  O2_25 
ROOT
HETATM    1  C2  UNL     1      19.214   2.778  50.713  1.00  0.00     0.102 C 
HETATM    2  C3  UNL     1      19.740   3.930  51.258  1.00  0.00     0.059 C 
HETATM    3  C4  UNL     1      20.460   5.027  50.830  1.00  0.00     0.121 C 
HETATM    4  N1  UNL     1      21.787   5.177  51.081  1.00  0.00    -0.254 NA
HETATM    5  C5  UNL     1      22.359   4.340  51.982  1.00  0.00     0.234 C 
HETATM    6  N2  UNL     1      22.035   3.061  51.760  1.00  0.00    -0.224 NA
HETATM    7  C6  UNL     1      22.692   2.224  50.939  1.00  0.00     0.131 C 
HETATM    8  C15 UNL     1      22.063   1.632  49.863  1.00  0.00     0.053 C 
HETATM    9  C16 UNL     1      20.801   1.079  49.815  1.00  0.00     0.043 C 
HETATM   10  C17 UNL     1      19.609   1.510  50.354  1.00  0.00     0.101 C 
ENDROOT
BRANCH   7  11
HETATM   11  N3  UNL     1      24.057   2.025  51.284  1.00  0.00    -0.336 N 
HETATM   12  C7  UNL     1      24.872   2.874  50.474  1.00  0.00     0.158 C 
BRANCH  11  13
HETATM   13  C8  UNL     1      24.408   1.092  52.296  1.00  0.00     0.036 A 
HETATM   14  C9  UNL     1      25.726   0.812  52.623  1.00  0.00     0.029 A 
HETATM   15  C10 UNL     1      25.957  -0.111  53.623  1.00  0.00     0.003 A 
HETATM   16  C11 UNL     1      24.980  -0.782  54.330  1.00  0.00     0.016 A 
HETATM   17  C12 UNL     1      23.650  -0.499  53.999  1.00  0.00     0.050 A 
HETATM   18  C14 UNL     1      23.427   0.423  53.000  1.00  0.00     0.045 A 
BRANCH  17  19
HETATM   19  C13 UNL     1      22.512  -1.172  54.706  1.00  0.00     0.417 C 
HETATM   20  F1  UNL     1      21.613  -0.217  55.149  1.00  0.00    -0.166 F 
HETATM   21  F2  UNL     1      22.995  -1.940  55.735  1.00  0.00    -0.166 F 
HETATM   22  F3  UNL     1      21.872  -1.994  53.797  1.00  0.00    -0.166 F 
ENDBRANCH  17  19
ENDBRANCH  11  13
ENDBRANCH   7  11
BRANCH  10  23
HETATM   23  O2  UNL     1      18.628   0.578  50.593  1.00  0.00    -0.353 OA
HETATM   24  C18 UNL     1      18.599  -0.197  51.768  1.00  0.00     0.210 C 
ENDBRANCH  10  23
BRANCH   1  25
HETATM   25  O1  UNL     1      17.930   3.190  50.541  1.00  0.00    -0.353 OA
HETATM   26  C1  UNL     1      17.050   3.636  51.519  1.00  0.00     0.210 C 
ENDBRANCH   1  25
TORSDOF 5
ENDMDL
MODEL 4
REMARK VINA RESULT:      -7.3      3.776      5.658
REMARK  5 active torsions:
REMARK  status: ('A' for Active; 'I' for Inactive)
REMARK    1  A    between atoms: O1_2  and  C2_3 
REMARK    2  A    between atoms: C6_9  and  N3_10 
REMARK    3  A    between atoms: N3_10  and  C8_12 
REMARK    4  A    between atoms: C12_16  and  C13_17 
REMARK    5  A    between atoms: C17_24  and  O2_25 
ROOT
HETATM    1  C2  UNL     1      25.976   6.678  49.666  1.00  0.00     0.102 C 
HETATM    2  C3  UNL     1      24.749   6.990  50.211  1.00  0.00     0.059 C 
HETATM    3  C4  UNL     1      24.078   6.790  51.400  1.00  0.00     0.121 C 
HETATM    4  N1  UNL     1      23.085   5.873  51.537  1.00  0.00    -0.254 NA
HETATM    5  C5  UNL     1      22.581   5.313  50.409  1.00  0.00     0.234 C 
HETATM    6  N2  UNL     1      23.544   4.885  49.584  1.00  0.00    -0.224 NA
HETATM    7  C6  UNL     1      24.125   3.674  49.629  1.00  0.00     0.131 C 
HETATM    8  C15 UNL     1      25.483   3.535  49.831  1.00  0.00     0.053 C 
HETATM    9  C16 UNL     1      26.505   4.274  49.276  1.00  0.00     0.043 C 
HETATM   10  C17 UNL     1      26.615   5.628  49.048  1.00  0.00     0.101 C 
ENDROOT
BRANCH   7  11
HETATM   11  N3  UNL     1      23.221   2.591  49.455  1.00  0.00    -0.336 N 
HETATM   12  C7  UNL     1      22.784   2.560  48.095  1.00  0.00     0.158 C 
BRANCH  11  13
HETATM   13  C8  UNL     1      22.894   1.750  50.554  1.00  0.00     0.036 A 
HETATM   14  C9  UNL     1      21.611   1.273  50.767  1.00  0.00     0.029 A 
HETATM   15  C10 UNL     1      21.401   0.464  51.865  1.00  0.00     0.003 A 
HETATM   16  C11 UNL     1      22.369   0.086  52.773  1.00  0.00     0.016 A 
HETATM   17  C12 UNL     1      23.665   0.568  52.557  1.00  0.00     0.050 A 
HETATM   18  C14 UNL     1      23.867   1.376  51.459  1.00  0.00     0.045 A 
BRANCH  17  19
HETATM   19  C13 UNL     1      24.791   0.218  53.483  1.00  0.00     0.417 C 
HETATM   20  F1  UNL     1      25.328   1.376  54.018  1.00  0.00    -0.166 F 
HETATM   21  F2  UNL     1      25.731  -0.521  52.810  1.00  0.00    -0.166 F 
HETATM   22  F3  UNL     1      24.275  -0.547  54.512  1.00  0.00    -0.166 F 
ENDBRANCH  17  19
ENDBRANCH  11  13
ENDBRANCH   7  11
BRANCH  10  23
HETATM   23  O2  UNL     1      27.477   6.055  48.067  1.00  0.00    -0.353 OA
HETATM   24  C18 UNL     1      28.868   5.858  48.152  1.00  0.00     0.210 C 
ENDBRANCH  10  23
BRANCH   1  25
HETATM   25  O1  UNL     1      26.615   7.858  49.889  1.00  0.00    -0.353 OA
HETATM   26  C1  UNL     1      26.158   9.134  49.586  1.00  0.00     0.210 C 
ENDBRANCH   1  25
TORSDOF 5
ENDMDL
MODEL 5
REMARK VINA RESULT:      -7.2      4.336      6.695
REMARK  5 active torsions:
REMARK  status: ('A' for Active; 'I' for Inactive)
REMARK    1  A    between atoms: O1_2  and  C2_3 
REMARK    2  A    between atoms: C6_9  and  N3_10 
REMARK    3  A    between atoms: N3_10  and  C8_12 
REMARK    4  A    between atoms: C12_16  and  C13_17 
REMARK    5  A    between atoms: C17_24  and  O2_25 
ROOT
HETATM    1  C2  UNL     1      25.598   1.760  52.800  1.00  0.00     0.102 C 
HETATM    2  C3  UNL     1      24.381   2.333  53.104  1.00  0.00     0.059 C 
HETATM    3  C4  UNL     1      23.083   2.283  52.638  1.00  0.00     0.121 C 
HETATM    4  N1  UNL     1      22.533   3.273  51.887  1.00  0.00    -0.254 NA
HETATM    5  C5  UNL     1      23.206   4.449  51.801  1.00  0.00     0.234 C 
HETATM    6  N2  UNL     1      24.502   4.269  51.519  1.00  0.00    -0.224 NA
HETATM    7  C6  UNL     1      25.022   4.167  50.284  1.00  0.00     0.131 C 
HETATM    8  C15 UNL     1      25.704   3.038  49.883  1.00  0.00     0.053 C 
HETATM    9  C16 UNL     1      26.628   2.304  50.596  1.00  0.00     0.043 C 
HETATM   10  C17 UNL     1      26.643   1.918  51.919  1.00  0.00     0.101 C 
ENDROOT
BRANCH   7  11
HETATM   11  N3  UNL     1      24.797   5.307  49.464  1.00  0.00    -0.336 N 
HETATM   12  C7  UNL     1      23.552   5.153  48.781  1.00  0.00     0.158 C 
BRANCH  11  13
HETATM   13  C8  UNL     1      25.751   6.360  49.428  1.00  0.00     0.036 A 
HETATM   14  C9  UNL     1      25.604   7.521  50.170  1.00  0.00     0.029 A 
HETATM   15  C10 UNL     1      26.590   8.481  50.063  1.00  0.00     0.003 A 
HETATM   16  C11 UNL     1      27.717   8.380  49.273  1.00  0.00     0.016 A 
HETATM   17  C12 UNL     1      27.865   7.208  48.524  1.00  0.00     0.050 A 
HETATM   18  C14 UNL     1      26.877   6.253  48.636  1.00  0.00     0.045 A 
BRANCH  17  19
HETATM   19  C13 UNL     1      29.053   6.996  47.634  1.00  0.00     0.417 C 
HETATM   20  F1  UNL     1      30.145   7.672  48.150  1.00  0.00    -0.166 F 
HETATM   21  F2  UNL     1      28.754   7.402  46.358  1.00  0.00    -0.166 F 
HETATM   22  F3  UNL     1      29.338   5.644  47.617  1.00  0.00    -0.166 F 
ENDBRANCH  17  19
ENDBRANCH  11  13
ENDBRANCH   7  11
BRANCH  10  23
HETATM   23  O2  UNL     1      27.854   1.636  52.501  1.00  0.00    -0.353 OA
HETATM   24  C18 UNL     1      28.437   2.480  53.466  1.00  0.00     0.210 C 
ENDBRANCH  10  23
BRANCH   1  25
HETATM   25  O1  UNL     1      25.608   0.772  53.734  1.00  0.00    -0.353 OA
HETATM   26  C1  UNL     1      25.372  -0.582  53.530  1.00  0.00     0.210 C 
ENDBRANCH   1  25
TORSDOF 5
ENDMDL
MODEL 6
REMARK VINA RESULT:      -7.2      3.113      4.672
REMARK  5 active torsions:
REMARK  status: ('A' for Active; 'I' for Inactive)
REMARK    1  A    between atoms: O1_2  and  C2_3 
REMARK    2  A    between atoms: C6_9  and  N3_10 
REMARK    3  A    between atoms: N3_10  and  C8_12 
REMARK    4  A    between atoms: C12_16  and  C13_17 
REMARK    5  A    between atoms: C17_24  and  O2_25 
ROOT
HETATM    1  C2  UNL     1      23.067   4.199  49.302  1.00  0.00     0.102 C 
HETATM    2  C3  UNL     1      22.617   3.132  48.554  1.00  0.00     0.059 C 
HETATM    3  C4  UNL     1      21.416   2.668  48.057  1.00  0.00     0.121 C 
HETATM    4  N1  UNL     1      20.751   1.618  48.607  1.00  0.00    -0.254 NA
HETATM    5  C5  UNL     1      21.409   0.861  49.520  1.00  0.00     0.234 C 
HETATM    6  N2  UNL     1      22.020   1.606  50.448  1.00  0.00    -0.224 NA
HETATM    7  C6  UNL     1      21.457   2.045  51.587  1.00  0.00     0.131 C 
HETATM    8  C15 UNL     1      21.355   3.392  51.864  1.00  0.00     0.053 C 
HETATM    9  C16 UNL     1      22.301   4.375  51.667  1.00  0.00     0.043 C 
HETATM   10  C17 UNL     1      23.165   4.595  50.616  1.00  0.00     0.101 C 
ENDROOT
BRANCH   7  11
HETATM   11  N3  UNL     1      20.991   1.009  52.441  1.00  0.00    -0.336 N 
HETATM   12  C7  UNL     1      19.576   0.879  52.290  1.00  0.00     0.158 C 
BRANCH  11  13
HETATM   13  C8  UNL     1      21.906   0.296  53.263  1.00  0.00     0.036 A 
HETATM   14  C9  UNL     1      21.499  -0.420  54.377  1.00  0.00     0.029 A 
HETATM   15  C10 UNL     1      22.469  -1.077  55.107  1.00  0.00     0.003 A 
HETATM   16  C11 UNL     1      23.818  -1.081  54.818  1.00  0.00     0.016 A 
HETATM   17  C12 UNL     1      24.228  -0.358  53.692  1.00  0.00     0.050 A 
HETATM   18  C14 UNL     1      23.254   0.296  52.968  1.00  0.00     0.045 A 
BRANCH  17  19
HETATM   19  C13 UNL     1      25.671  -0.296  53.288  1.00  0.00     0.417 C 
HETATM   20  F1  UNL     1      26.045  -1.503  52.722  1.00  0.00    -0.166 F 
HETATM   21  F2  UNL     1      26.443   0.023  54.376  1.00  0.00    -0.166 F 
HETATM   22  F3  UNL     1      25.805   0.699  52.338  1.00  0.00    -0.166 F 
ENDBRANCH  17  19
ENDBRANCH  11  13
ENDBRANCH   7  11
BRANCH  10  23
HETATM   23  O2  UNL     1      24.313   5.308  50.856  1.00  0.00    -0.353 OA
HETATM   24  C18 UNL     1      24.291   6.674  51.199  1.00  0.00     0.210 C 
ENDBRANCH  10  23
BRANCH   1  25
HETATM   25  O1  UNL     1      23.509   4.997  48.293  1.00  0.00    -0.353 OA
HETATM   26  C1  UNL     1      22.855   6.086  47.732  1.00  0.00     0.210 C 
ENDBRANCH   1  25
TORSDOF 5
ENDMDL
MODEL 7
REMARK VINA RESULT:      -7.1      3.220      4.519
REMARK  5 active torsions:
REMARK  status: ('A' for Active; 'I' for Inactive)
REMARK    1  A    between atoms: O1_2  and  C2_3 
REMARK    2  A    between atoms: C6_9  and  N3_10 
REMARK    3  A    between atoms: N3_10  and  C8_12 
REMARK    4  A    between atoms: C12_16  and  C13_17 
REMARK    5  A    between atoms: C17_24  and  O2_25 
ROOT
HETATM    1  C2  UNL     1      22.842   4.993  49.060  1.00  0.00     0.102 C 
HETATM    2  C3  UNL     1      22.557   5.349  50.361  1.00  0.00     0.059 C 
HETATM    3  C4  UNL     1      23.088   5.139  51.617  1.00  0.00     0.121 C 
HETATM    4  N1  UNL     1      22.543   4.272  52.510  1.00  0.00    -0.254 NA
HETATM    5  C5  UNL     1      21.306   3.783  52.241  1.00  0.00     0.234 C 
HETATM    6  N2  UNL     1      21.202   3.336  50.984  1.00  0.00    -0.224 NA
HETATM    7  C6  UNL     1      21.511   2.095  50.571  1.00  0.00     0.131 C 
HETATM    8  C15 UNL     1      22.479   1.877  49.614  1.00  0.00     0.053 C 
HETATM    9  C16 UNL     1      22.698   2.581  48.449  1.00  0.00     0.043 C 
HETATM   10  C17 UNL     1      22.668   3.935  48.198  1.00  0.00     0.101 C 
ENDROOT
BRANCH   7  11
HETATM   11  N3  UNL     1      20.761   1.069  51.208  1.00  0.00    -0.336 N 
HETATM   12  C7  UNL     1      19.510   0.916  50.533  1.00  0.00     0.158 C 
BRANCH  11  13
HETATM   13  C8  UNL     1      21.298   0.385  52.333  1.00  0.00     0.036 A 
HETATM   14  C9  UNL     1      20.497  -0.278  53.250  1.00  0.00     0.029 A 
HETATM   15  C10 UNL     1      21.121  -0.911  54.306  1.00  0.00     0.003 A 
HETATM   16  C11 UNL     1      22.483  -0.939  54.527  1.00  0.00     0.016 A 
HETATM   17  C12 UNL     1      23.290  -0.269  53.600  1.00  0.00     0.050 A 
HETATM   18  C14 UNL     1      22.661   0.360  52.548  1.00  0.00     0.045 A 
BRANCH  17  19
HETATM   19  C13 UNL     1      24.782  -0.239  53.745  1.00  0.00     0.417 C 
HETATM   20  F1  UNL     1      25.242   1.049  53.530  1.00  0.00    -0.166 F 
HETATM   21  F2  UNL     1      25.350  -1.139  52.880  1.00  0.00    -0.166 F 
HETATM   22  F3  UNL     1      25.092  -0.608  55.041  1.00  0.00    -0.166 F 
ENDBRANCH  17  19
ENDBRANCH  11  13
ENDBRANCH   7  11
BRANCH  10  23
HETATM   23  O2  UNL     1      22.431   4.353  46.911  1.00  0.00    -0.353 OA
HETATM   24  C18 UNL     1      21.596   3.638  46.032  1.00  0.00     0.210 C 
ENDBRANCH  10  23
BRANCH   1  25
HETATM   25  O1  UNL     1      23.478   6.127  48.662  1.00  0.00    -0.353 OA
HETATM   26  C1  UNL     1      24.846   6.366  48.652  1.00  0.00     0.210 C 
ENDBRANCH   1  25
TORSDOF 5
ENDMDL
MODEL 8
REMARK VINA RESULT:      -7.1      3.930      6.594
REMARK  5 active torsions:
REMARK  status: ('A' for Active; 'I' for Inactive)
REMARK    1  A    between atoms: O1_2  and  C2_3 
REMARK    2  A    between atoms: C6_9  and  N3_10 
REMARK    3  A    between atoms: N3_10  and  C8_12 
REMARK    4  A    between atoms: C12_16  and  C13_17 
REMARK    5  A    between atoms: C17_24  and  O2_25 
ROOT
HETATM    1  C2  UNL     1      25.670   0.257  53.954  1.00  0.00     0.102 C 
HETATM    2  C3  UNL     1      24.295   0.149  53.955  1.00  0.00     0.059 C 
HETATM    3  C4  UNL     1      23.320  -0.487  53.214  1.00  0.00     0.121 C 
HETATM    4  N1  UNL     1      22.535   0.167  52.318  1.00  0.00    -0.254 NA
HETATM    5  C5  UNL     1      22.553   1.524  52.334  1.00  0.00     0.234 C 
HETATM    6  N2  UNL     1      23.799   2.012  52.356  1.00  0.00    -0.224 NA
HETATM    7  C6  UNL     1      24.554   2.263  51.273  1.00  0.00     0.131 C 
HETATM    8  C15 UNL     1      25.767   1.634  51.083  1.00  0.00     0.053 C 
HETATM    9  C16 UNL     1      26.753   1.387  52.015  1.00  0.00     0.043 C 
HETATM   10  C17 UNL     1      26.668   0.962  53.322  1.00  0.00     0.101 C 
ENDROOT
BRANCH   7  11
HETATM   11  N3  UNL     1      23.988   3.208  50.376  1.00  0.00    -0.336 N 
HETATM   12  C7  UNL     1      23.015   2.554  49.559  1.00  0.00     0.158 C 
BRANCH  11  13
HETATM   13  C8  UNL     1      24.419   4.563  50.400  1.00  0.00     0.036 A 
HETATM   14  C9  UNL     1      23.870   5.501  51.259  1.00  0.00     0.029 A 
HETATM   15  C10 UNL     1      24.362   6.789  51.202  1.00  0.00     0.003 A 
HETATM   16  C11 UNL     1      25.361   7.224  50.355  1.00  0.00     0.016 A 
HETATM   17  C12 UNL     1      25.915   6.276  49.487  1.00  0.00     0.050 A 
HETATM   18  C14 UNL     1      25.419   4.991  49.550  1.00  0.00     0.045 A 
BRANCH  17  19
HETATM   19  C13 UNL     1      27.007   6.641  48.526  1.00  0.00     0.417 C 
HETATM   20  F1  UNL     1      27.697   5.501  48.154  1.00  0.00    -0.166 F 
HETATM   21  F2  UNL     1      27.831   7.577  49.098  1.00  0.00    -0.166 F 
HETATM   22  F3  UNL     1      26.419   7.190  47.403  1.00  0.00    -0.166 F 
ENDBRANCH  17  19
ENDBRANCH  11  13
ENDBRANCH   7  11
BRANCH  10  23
HETATM   23  O2  UNL     1      27.706   1.258  54.171  1.00  0.00    -0.353 OA
HETATM   24  C18 UNL     1      28.717   2.177  53.830  1.00  0.00     0.210 C 
ENDBRANCH  10  23
BRANCH   1  25
HETATM   25  O1  UNL     1      25.957  -0.668  54.908  1.00  0.00    -0.353 OA
HETATM   26  C1  UNL     1      25.285  -0.882  56.104  1.00  0.00     0.210 C 
ENDBRANCH   1  25
TORSDOF 5
ENDMDL
MODEL 9
REMARK VINA RESULT:      -7.0      4.154      5.980
REMARK  5 active torsions:
REMARK  status: ('A' for Active; 'I' for Inactive)
REMARK    1  A    between atoms: O1_2  and  C2_3 
REMARK    2  A    between atoms: C6_9  and  N3_10 
REMARK    3  A    between atoms: N3_10  and  C8_12 
REMARK    4  A    between atoms: C12_16  and  C13_17 
REMARK    5  A    between atoms: C17_24  and  O2_25 
ROOT
HETATM    1  C2  UNL     1      23.994   5.716  50.478  1.00  0.00     0.102 C 
HETATM    2  C3  UNL     1      22.656   6.032  50.370  1.00  0.00     0.059 C 
HETATM    3  C4  UNL     1      21.531   5.996  51.167  1.00  0.00     0.121 C 
HETATM    4  N1  UNL     1      20.564   5.050  51.031  1.00  0.00    -0.254 NA
HETATM    5  C5  UNL     1      20.597   4.268  49.923  1.00  0.00     0.234 C 
HETATM    6  N2  UNL     1      21.818   3.771  49.691  1.00  0.00    -0.224 NA
HETATM    7  C6  UNL     1      22.303   2.630  50.208  1.00  0.00     0.131 C 
HETATM    8  C15 UNL     1      23.434   2.623  50.999  1.00  0.00     0.053 C 
HETATM    9  C16 UNL     1      24.607   3.323  50.812  1.00  0.00     0.043 C 
HETATM   10  C17 UNL     1      24.824   4.621  50.404  1.00  0.00     0.101 C 
ENDROOT
BRANCH   7  11
HETATM   11  N3  UNL     1      21.551   1.472  49.867  1.00  0.00    -0.336 N 
HETATM   12  C7  UNL     1      21.792   1.144  48.498  1.00  0.00     0.158 C 
BRANCH  11  13
HETATM   13  C8  UNL     1      20.728   0.844  50.841  1.00  0.00     0.036 A 
HETATM   14  C9  UNL     1      19.365   0.672  50.661  1.00  0.00     0.029 A 
HETATM   15  C10 UNL     1      18.658   0.048  51.669  1.00  0.00     0.003 A 
HETATM   16  C11 UNL     1      19.199  -0.423  52.848  1.00  0.00     0.016 A 
HETATM   17  C12 UNL     1      20.575  -0.249  53.029  1.00  0.00     0.050 A 
HETATM   18  C14 UNL     1      21.275   0.375  52.019  1.00  0.00     0.045 A 
BRANCH  17  19
HETATM   19  C13 UNL     1      21.264  -0.724  54.274  1.00  0.00     0.417 C 
HETATM   20  F1  UNL     1      22.627  -0.808  54.045  1.00  0.00    -0.166 F 
HETATM   21  F2  UNL     1      20.733  -1.927  54.666  1.00  0.00    -0.166 F 
HETATM   22  F3  UNL     1      21.039   0.210  55.268  1.00  0.00    -0.166 F 
ENDBRANCH  17  19
ENDBRANCH  11  13
ENDBRANCH   7  11
BRANCH  10  23
HETATM   23  O2  UNL     1      26.034   4.929  49.831  1.00  0.00    -0.353 OA
HETATM   24  C18 UNL     1      26.872   3.945  49.274  1.00  0.00     0.210 C 
ENDBRANCH  10  23
BRANCH   1  25
HETATM   25  O1  UNL     1      24.488   6.957  50.729  1.00  0.00    -0.353 OA
HETATM   26  C1  UNL     1      24.346   8.095  49.946  1.00  0.00     0.210 C 
ENDBRANCH   1  25
TORSDOF 5
ENDMDL
