MODEL 1
REMARK VINA RESULT:      -9.9      0.000      0.000
REMARK  5 active torsions:
REMARK  status: ('A' for Active; 'I' for Inactive)
REMARK    1  A    between atoms: N1_1  and  C1_2 
REMARK    2  A    between atoms: C3_4  and  C4_5 
REMARK    3  A    between atoms: C4_5  and  C5_6 
REMARK    4  A    between atoms: C9_11  and  N3_12 
REMARK    5  A    between atoms: N5_15  and  C11_16 
ROOT
HETATM    1  C5  UNL     1      24.072   1.279  52.443  1.00  0.00     0.024 A 
HETATM    2  C6  UNL     1      22.868   0.616  52.510  1.00  0.00     0.042 A 
HETATM    3  C7  UNL     1      22.052   0.886  51.435  1.00  0.00     0.030 A 
HETATM    4  C8  UNL     1      20.777   0.389  51.185  1.00  0.00     0.135 A 
HETATM    5  N2  UNL     1      20.217   0.846  50.026  1.00  0.00    -0.230 NA
HETATM    6  C9  UNL     1      20.896   1.700  49.241  1.00  0.00     0.201 A 
HETATM    7  N4  UNL     1      22.131   2.151  49.531  1.00  0.00    -0.199 NA
HETATM    8  C10 UNL     1      22.778   1.766  50.650  1.00  0.00     0.150 A 
HETATM    9  N5  UNL     1      23.939   1.968  51.267  1.00  0.00    -0.299 N 
ENDROOT
BRANCH   1  10
HETATM   10  C4  UNL     1      25.319   1.429  53.194  1.00  0.00     0.097 C 
BRANCH  10  11
HETATM   11  C3  UNL     1      26.272   0.330  53.072  1.00  0.00    -0.039 A 
HETATM   12  C2  UNL     1      27.609   0.394  53.377  1.00  0.00     0.008 A 
HETATM   13  C1  UNL     1      28.402   1.363  53.764  1.00  0.00     0.038 A 
HETATM   14  C20 UNL     1      28.466  -0.675  53.277  1.00  0.00    -0.012 A 
HETATM   15  C22 UNL     1      29.780   0.947  53.974  1.00  0.00     0.043 A 
HETATM   16  C21 UNL     1      29.687  -0.329  53.633  1.00  0.00    -0.012 A 
HETATM   17  C19 UNL     1      27.998  -1.901  52.850  1.00  0.00     0.013 A 
HETATM   18  C18 UNL     1      26.656  -2.045  52.521  1.00  0.00     0.002 A 
HETATM   19  C17 UNL     1      25.850  -0.913  52.648  1.00  0.00     0.008 A 
BRANCH  13  20
HETATM   20  N1  UNL     1      27.962   2.690  53.960  1.00  0.00    -0.398 N 
HETATM   21  H1  UNL     1      27.886   3.454  53.238  1.00  0.00     0.156 HD
HETATM   22  H2  UNL     1      27.641   3.652  54.109  1.00  0.00     0.156 HD
ENDBRANCH  13  20
ENDBRANCH  10  11
ENDBRANCH   1  10
BRANCH   9  23
HETATM   23  C11 UNL     1      24.846   2.871  50.597  1.00  0.00     0.041 A 
HETATM   24  C12 UNL     1      24.356   4.175  50.675  1.00  0.00     0.032 A 
HETATM   25  C13 UNL     1      25.082   5.211  50.088  1.00  0.00     0.026 A 
HETATM   26  C14 UNL     1      26.268   4.927  49.441  1.00  0.00     0.034 A 
HETATM   27 CL1  UNL     1      27.206   6.202  48.691  1.00  0.00    -0.084 Cl
HETATM   28  C15 UNL     1      26.728   3.622  49.381  1.00  0.00     0.026 A 
HETATM   29  C16 UNL     1      26.032   2.600  49.949  1.00  0.00     0.032 A 
ENDBRANCH   9  23
BRANCH   6  30
HETATM   30  N3  UNL     1      20.261   2.153  48.029  1.00  0.00    -0.271 NA
HETATM   31  H7  UNL     1      20.773   1.818  47.176  1.00  0.00     0.127 HD
HETATM   32  H8  UNL     1      20.760   1.827  47.162  1.00  0.00     0.127 HD
ENDBRANCH   6  30
TORSDOF 5
ENDMDL
MODEL 2
REMARK VINA RESULT:      -9.8      2.210      2.730
REMARK  5 active torsions:
REMARK  status: ('A' for Active; 'I' for Inactive)
REMARK    1  A    between atoms: N1_1  and  C1_2 
REMARK    2  A    between atoms: C3_4  and  C4_5 
REMARK    3  A    between atoms: C4_5  and  C5_6 
REMARK    4  A    between atoms: C9_11  and  N3_12 
REMARK    5  A    between atoms: N5_15  and  C11_16 
ROOT
HETATM    1  C5  UNL     1      23.909   0.376  53.112  1.00  0.00     0.024 A 
HETATM    2  C6  UNL     1      23.307  -0.583  53.893  1.00  0.00     0.042 A 
HETATM    3  C7  UNL     1      21.951  -0.673  53.672  1.00  0.00     0.030 A 
HETATM    4  C8  UNL     1      21.042  -1.530  54.285  1.00  0.00     0.135 A 
HETATM    5  N2  UNL     1      19.755  -1.382  53.850  1.00  0.00    -0.230 NA
HETATM    6  C9  UNL     1      19.464  -0.468  52.909  1.00  0.00     0.201 A 
HETATM    7  N4  UNL     1      20.385   0.338  52.347  1.00  0.00    -0.199 NA
HETATM    8  C10 UNL     1      21.685   0.278  52.702  1.00  0.00     0.150 A 
HETATM    9  N5  UNL     1      22.842   0.863  52.405  1.00  0.00    -0.299 N 
ENDROOT
BRANCH   1  10
HETATM   10  C4  UNL     1      25.230   0.950  52.851  1.00  0.00     0.097 C 
BRANCH  10  11
HETATM   11  C3  UNL     1      26.351   0.015  52.892  1.00  0.00    -0.039 A 
HETATM   12  C2  UNL     1      27.609   0.297  53.363  1.00  0.00     0.008 A 
HETATM   13  C1  UNL     1      28.183   1.386  53.813  1.00  0.00     0.038 A 
HETATM   14  C20 UNL     1      28.628  -0.623  53.413  1.00  0.00    -0.012 A 
HETATM   15  C22 UNL     1      29.569   1.198  54.213  1.00  0.00     0.043 A 
HETATM   16  C21 UNL     1      29.722  -0.081  53.910  1.00  0.00    -0.012 A 
HETATM   17  C19 UNL     1      28.418  -1.915  52.975  1.00  0.00     0.013 A 
HETATM   18  C18 UNL     1      27.170  -2.276  52.482  1.00  0.00     0.002 A 
HETATM   19  C17 UNL     1      26.187  -1.285  52.464  1.00  0.00     0.008 A 
BRANCH  13  20
HETATM   20  N1  UNL     1      27.519   2.629  53.903  1.00  0.00    -0.398 N 
HETATM   21  H1  UNL     1      27.886   3.523  54.322  1.00  0.00     0.156 HD
HETATM   22  H2  UNL     1      27.032   3.528  53.965  1.00  0.00     0.156 HD
ENDBRANCH  13  20
ENDBRANCH  10  11
ENDBRANCH   1  10
BRANCH   9  23
HETATM   23  C11 UNL     1      22.771   1.898  51.401  1.00  0.00     0.041 A 
HETATM   24  C12 UNL     1      22.632   3.143  52.017  1.00  0.00     0.032 A 
HETATM   25  C13 UNL     1      22.543   4.288  51.225  1.00  0.00     0.026 A 
HETATM   26  C14 UNL     1      22.593   4.169  49.851  1.00  0.00     0.034 A 
HETATM   27 CL1  UNL     1      22.483   5.584  48.826  1.00  0.00    -0.084 Cl
HETATM   28  C15 UNL     1      22.732   2.919  49.270  1.00  0.00     0.026 A 
HETATM   29  C16 UNL     1      22.821   1.793  50.027  1.00  0.00     0.032 A 
ENDBRANCH   9  23
BRANCH   6  30
HETATM   30  N3  UNL     1      18.091  -0.350  52.485  1.00  0.00    -0.271 NA
HETATM   31  H7  UNL     1      17.747  -1.236  52.038  1.00  0.00     0.127 HD
HETATM   32  H8  UNL     1      17.728  -1.229  52.035  1.00  0.00     0.127 HD
ENDBRANCH   6  30
TORSDOF 5
ENDMDL
MODEL 3
REMARK VINA RESULT:      -9.7      2.566      3.608
REMARK  5 active torsions:
REMARK  status: ('A' for Active; 'I' for Inactive)
REMARK    1  A    between atoms: N1_1  and  C1_2 
REMARK    2  A    between atoms: C3_4  and  C4_5 
REMARK    3  A    between atoms: C4_5  and  C5_6 
REMARK    4  A    between atoms: C9_11  and  N3_12 
REMARK    5  A    between atoms: N5_15  and  C11_16 
ROOT
HETATM    1  C5  UNL     1      24.733   0.282  52.666  1.00  0.00     0.024 A 
HETATM    2  C6  UNL     1      24.432  -0.609  53.670  1.00  0.00     0.042 A 
HETATM    3  C7  UNL     1      23.080  -0.695  53.916  1.00  0.00     0.030 A 
HETATM    4  C8  UNL     1      22.433  -1.491  54.856  1.00  0.00     0.135 A 
HETATM    5  N2  UNL     1      21.074  -1.355  54.861  1.00  0.00    -0.230 NA
HETATM    6  C9  UNL     1      20.479  -0.507  54.005  1.00  0.00     0.201 A 
HETATM    7  N4  UNL     1      21.155   0.242  53.114  1.00  0.00    -0.199 NA
HETATM    8  C10 UNL     1      22.500   0.188  53.022  1.00  0.00     0.150 A 
HETATM    9  N5  UNL     1      23.488   0.733  52.317  1.00  0.00    -0.299 N 
ENDROOT
BRANCH   1  10
HETATM   10  C4  UNL     1      25.888   0.816  51.942  1.00  0.00     0.097 C 
BRANCH  10  11
HETATM   11  C3  UNL     1      27.120   0.945  52.714  1.00  0.00    -0.039 A 
HETATM   12  C2  UNL     1      27.990  -0.076  53.007  1.00  0.00     0.008 A 
HETATM   13  C1  UNL     1      27.976  -1.367  52.784  1.00  0.00     0.038 A 
HETATM   14  C20 UNL     1      29.157   0.095  53.711  1.00  0.00    -0.012 A 
HETATM   15  C22 UNL     1      29.148  -2.065  53.289  1.00  0.00     0.043 A 
HETATM   16  C21 UNL     1      29.794  -1.051  53.844  1.00  0.00    -0.012 A 
HETATM   17  C19 UNL     1      29.514   1.348  54.169  1.00  0.00     0.013 A 
HETATM   18  C18 UNL     1      28.683   2.432  53.913  1.00  0.00     0.002 A 
HETATM   19  C17 UNL     1      27.516   2.177  53.192  1.00  0.00     0.008 A 
BRANCH  13  20
HETATM   20  N1  UNL     1      26.920  -2.024  52.115  1.00  0.00    -0.398 N 
HETATM   21  H1  UNL     1      26.694  -3.053  52.128  1.00  0.00     0.156 HD
HETATM   22  H2  UNL     1      26.152  -2.495  51.627  1.00  0.00     0.156 HD
ENDBRANCH  13  20
ENDBRANCH  10  11
ENDBRANCH   1  10
BRANCH   9  23
HETATM   23  C11 UNL     1      23.079   1.695  51.321  1.00  0.00     0.041 A 
HETATM   24  C12 UNL     1      23.252   2.988  51.815  1.00  0.00     0.032 A 
HETATM   25  C13 UNL     1      22.915   4.075  51.009  1.00  0.00     0.026 A 
HETATM   26  C14 UNL     1      22.418   3.852  49.741  1.00  0.00     0.034 A 
HETATM   27 CL1  UNL     1      21.982   5.193  48.702  1.00  0.00    -0.084 Cl
HETATM   28  C15 UNL     1      22.257   2.556  49.280  1.00  0.00     0.026 A 
HETATM   29  C16 UNL     1      22.581   1.485  50.053  1.00  0.00     0.032 A 
ENDBRANCH   9  23
BRANCH   6  30
HETATM   30  N3  UNL     1      19.042  -0.399  54.051  1.00  0.00    -0.271 NA
HETATM   31  H7  UNL     1      18.723   0.150  54.888  1.00  0.00     0.127 HD
HETATM   32  H8  UNL     1      18.703   0.148  54.883  1.00  0.00     0.127 HD
ENDBRANCH   6  30
TORSDOF 5
ENDMDL
MODEL 4
REMARK VINA RESULT:      -9.4      2.957      6.054
REMARK  5 active torsions:
REMARK  status: ('A' for Active; 'I' for Inactive)
REMARK    1  A    between atoms: N1_1  and  C1_2 
REMARK    2  A    between atoms: C3_4  and  C4_5 
REMARK    3  A    between atoms: C4_5  and  C5_6 
REMARK    4  A    between atoms: C9_11  and  N3_12 
REMARK    5  A    between atoms: N5_15  and  C11_16 
ROOT
HETATM    1  C5  UNL     1      24.345   2.697  52.190  1.00  0.00     0.024 A 
HETATM    2  C6  UNL     1      23.915   3.664  51.310  1.00  0.00     0.042 A 
HETATM    3  C7  UNL     1      24.913   4.093  50.464  1.00  0.00     0.030 A 
HETATM    4  C8  UNL     1      24.826   5.053  49.460  1.00  0.00     0.135 A 
HETATM    5  N2  UNL     1      25.995   5.262  48.786  1.00  0.00    -0.230 NA
HETATM    6  C9  UNL     1      27.097   4.565  49.116  1.00  0.00     0.201 A 
HETATM    7  N4  UNL     1      27.126   3.646  50.098  1.00  0.00    -0.199 NA
HETATM    8  C10 UNL     1      26.029   3.359  50.830  1.00  0.00     0.150 A 
HETATM    9  N5  UNL     1      25.659   2.564  51.830  1.00  0.00    -0.299 N 
ENDROOT
BRANCH   1  10
HETATM   10  C4  UNL     1      23.839   1.858  53.277  1.00  0.00     0.097 C 
BRANCH  10  11
HETATM   11  C3  UNL     1      22.503   1.301  53.084  1.00  0.00    -0.039 A 
HETATM   12  C2  UNL     1      22.053   0.111  53.597  1.00  0.00     0.008 A 
HETATM   13  C1  UNL     1      22.619  -0.848  54.288  1.00  0.00     0.038 A 
HETATM   14  C20 UNL     1      20.775  -0.362  53.416  1.00  0.00    -0.012 A 
HETATM   15  C22 UNL     1      21.722  -1.944  54.619  1.00  0.00     0.043 A 
HETATM   16  C21 UNL     1      20.619  -1.525  54.019  1.00  0.00    -0.012 A 
HETATM   17  C19 UNL     1      19.862   0.369  52.685  1.00  0.00     0.013 A 
HETATM   18  C18 UNL     1      20.244   1.585  52.132  1.00  0.00     0.002 A 
HETATM   19  C17 UNL     1      21.558   1.997  52.359  1.00  0.00     0.008 A 
BRANCH  13  20
HETATM   20  N1  UNL     1      23.976  -0.822  54.678  1.00  0.00    -0.398 N 
HETATM   21  H1  UNL     1      24.411  -0.249  55.447  1.00  0.00     0.156 HD
HETATM   22  H2  UNL     1      24.962  -0.807  54.955  1.00  0.00     0.156 HD
ENDBRANCH  13  20
ENDBRANCH  10  11
ENDBRANCH   1  10
BRANCH   9  23
HETATM   23  C11 UNL     1      26.699   1.711  52.357  1.00  0.00     0.041 A 
HETATM   24  C12 UNL     1      26.431   0.383  52.025  1.00  0.00     0.032 A 
HETATM   25  C13 UNL     1      27.315  -0.613  52.440  1.00  0.00     0.026 A 
HETATM   26  C14 UNL     1      28.434  -0.268  53.169  1.00  0.00     0.034 A 
HETATM   27 CL1  UNL     1      29.565  -1.492  53.708  1.00  0.00    -0.084 Cl
HETATM   28  C15 UNL     1      28.672   1.060  53.482  1.00  0.00     0.026 A 
HETATM   29  C16 UNL     1      27.820   2.044  53.086  1.00  0.00     0.032 A 
ENDBRANCH   9  23
BRANCH   6  30
HETATM   30  N3  UNL     1      28.306   4.824  48.374  1.00  0.00    -0.271 NA
HETATM   31  H7  UNL     1      28.174   5.600  47.679  1.00  0.00     0.127 HD
HETATM   32  H8  UNL     1      28.193   5.600  47.673  1.00  0.00     0.127 HD
ENDBRANCH   6  30
TORSDOF 5
ENDMDL
MODEL 5
REMARK VINA RESULT:      -9.3      2.932      6.312
REMARK  5 active torsions:
REMARK  status: ('A' for Active; 'I' for Inactive)
REMARK    1  A    between atoms: N1_1  and  C1_2 
REMARK    2  A    between atoms: C3_4  and  C4_5 
REMARK    3  A    between atoms: C4_5  and  C5_6 
REMARK    4  A    between atoms: C9_11  and  N3_12 
REMARK    5  A    between atoms: N5_15  and  C11_16 
ROOT
HETATM    1  C5  UNL     1      23.384   2.737  51.968  1.00  0.00     0.024 A 
HETATM    2  C6  UNL     1      22.035   2.490  52.074  1.00  0.00     0.042 A 
HETATM    3  C7  UNL     1      21.757   1.371  52.827  1.00  0.00     0.030 A 
HETATM    4  C8  UNL     1      20.510   0.837  53.134  1.00  0.00     0.135 A 
HETATM    5  N2  UNL     1      20.559  -0.288  53.907  1.00  0.00    -0.230 NA
HETATM    6  C9  UNL     1      21.745  -0.782  54.302  1.00  0.00     0.201 A 
HETATM    7  N4  UNL     1      22.926  -0.224  53.975  1.00  0.00    -0.199 NA
HETATM    8  C10 UNL     1      22.996   0.888  53.215  1.00  0.00     0.150 A 
HETATM    9  N5  UNL     1      23.909   1.705  52.699  1.00  0.00    -0.299 N 
ENDROOT
BRANCH   1  10
HETATM   10  C4  UNL     1      24.310   3.696  51.365  1.00  0.00     0.097 C 
BRANCH  10  11
HETATM   11  C3  UNL     1      23.797   4.443  50.219  1.00  0.00    -0.039 A 
HETATM   12  C2  UNL     1      23.703   5.809  50.133  1.00  0.00     0.008 A 
HETATM   13  C1  UNL     1      23.944   6.787  50.973  1.00  0.00     0.038 A 
HETATM   14  C20 UNL     1      23.243   6.473  49.022  1.00  0.00    -0.012 A 
HETATM   15  C22 UNL     1      23.696   8.110  50.422  1.00  0.00     0.043 A 
HETATM   16  C21 UNL     1      23.263   7.778  49.216  1.00  0.00    -0.012 A 
HETATM   17  C19 UNL     1      22.842   5.765  47.907  1.00  0.00     0.013 A 
HETATM   18  C18 UNL     1      22.906   4.377  47.918  1.00  0.00     0.002 A 
HETATM   19  C17 UNL     1      23.385   3.777  49.084  1.00  0.00     0.008 A 
BRANCH  13  20
HETATM   20  N1  UNL     1      24.401   6.577  52.292  1.00  0.00    -0.398 N 
HETATM   21  H1  UNL     1      24.251   7.198  53.129  1.00  0.00     0.156 HD
HETATM   22  H2  UNL     1      24.736   6.419  53.247  1.00  0.00     0.156 HD
ENDBRANCH  13  20
ENDBRANCH  10  11
ENDBRANCH   1  10
BRANCH   9  23
HETATM   23  C11 UNL     1      25.281   1.363  52.995  1.00  0.00     0.041 A 
HETATM   24  C12 UNL     1      25.691   0.311  52.176  1.00  0.00     0.032 A 
HETATM   25  C13 UNL     1      26.991  -0.180  52.298  1.00  0.00     0.026 A 
HETATM   26  C14 UNL     1      27.845   0.382  53.225  1.00  0.00     0.034 A 
HETATM   27 CL1  UNL     1      29.483  -0.210  53.408  1.00  0.00    -0.084 Cl
HETATM   28  C15 UNL     1      27.407   1.426  54.024  1.00  0.00     0.026 A 
HETATM   29  C16 UNL     1      26.143   1.916  53.917  1.00  0.00     0.032 A 
ENDBRANCH   9  23
BRANCH   6  30
HETATM   30  N3  UNL     1      21.743  -1.972  55.116  1.00  0.00    -0.271 NA
HETATM   31  H7  UNL     1      20.818  -2.111  55.594  1.00  0.00     0.127 HD
HETATM   32  H8  UNL     1      20.824  -2.128  55.603  1.00  0.00     0.127 HD
ENDBRANCH   6  30
TORSDOF 5
ENDMDL
MODEL 6
REMARK VINA RESULT:      -9.2      2.669      5.920
REMARK  5 active torsions:
REMARK  status: ('A' for Active; 'I' for Inactive)
REMARK    1  A    between atoms: N1_1  and  C1_2 
REMARK    2  A    between atoms: C3_4  and  C4_5 
REMARK    3  A    between atoms: C4_5  and  C5_6 
REMARK    4  A    between atoms: C9_11  and  N3_12 
REMARK    5  A    between atoms: N5_15  and  C11_16 
ROOT
HETATM    1  C5  UNL     1      23.931   1.992  51.212  1.00  0.00     0.024 A 
HETATM    2  C6  UNL     1      22.579   1.736  51.231  1.00  0.00     0.042 A 
HETATM    3  C7  UNL     1      22.226   0.814  52.191  1.00  0.00     0.030 A 
HETATM    4  C8  UNL     1      20.955   0.329  52.482  1.00  0.00     0.135 A 
HETATM    5  N2  UNL     1      20.925  -0.585  53.497  1.00  0.00    -0.230 NA
HETATM    6  C9  UNL     1      22.064  -0.938  54.118  1.00  0.00     0.201 A 
HETATM    7  N4  UNL     1      23.270  -0.436  53.796  1.00  0.00    -0.199 NA
HETATM    8  C10 UNL     1      23.417   0.472  52.808  1.00  0.00     0.150 A 
HETATM    9  N5  UNL     1      24.378   1.173  52.214  1.00  0.00    -0.299 N 
ENDROOT
BRANCH   1  10
HETATM   10  C4  UNL     1      24.912   2.813  50.502  1.00  0.00     0.097 C 
BRANCH  10  11
HETATM   11  C3  UNL     1      24.742   4.258  50.623  1.00  0.00    -0.039 A 
HETATM   12  C2  UNL     1      25.501   5.208  49.987  1.00  0.00     0.008 A 
HETATM   13  C1  UNL     1      26.553   5.151  49.207  1.00  0.00     0.038 A 
HETATM   14  C20 UNL     1      25.286   6.560  50.105  1.00  0.00    -0.012 A 
HETATM   15  C22 UNL     1      27.023   6.452  48.757  1.00  0.00     0.043 A 
HETATM   16  C21 UNL     1      26.160   7.236  49.386  1.00  0.00    -0.012 A 
HETATM   17  C19 UNL     1      24.260   7.033  50.898  1.00  0.00     0.013 A 
HETATM   18  C18 UNL     1      23.448   6.132  51.576  1.00  0.00     0.002 A 
HETATM   19  C17 UNL     1      23.730   4.775  51.405  1.00  0.00     0.008 A 
BRANCH  13  20
HETATM   20  N1  UNL     1      27.175   3.939  48.837  1.00  0.00    -0.398 N 
HETATM   21  H1  UNL     1      26.752   3.139  48.298  1.00  0.00     0.156 HD
HETATM   22  H2  UNL     1      27.632   3.061  48.571  1.00  0.00     0.156 HD
ENDBRANCH  13  20
ENDBRANCH  10  11
ENDBRANCH   1  10
BRANCH   9  23
HETATM   23  C11 UNL     1      25.711   0.950  52.724  1.00  0.00     0.041 A 
HETATM   24  C12 UNL     1      26.188  -0.280  52.271  1.00  0.00     0.032 A 
HETATM   25  C13 UNL     1      27.465  -0.695  52.649  1.00  0.00     0.026 A 
HETATM   26  C14 UNL     1      28.230   0.116  53.462  1.00  0.00     0.034 A 
HETATM   27 CL1  UNL     1      29.837  -0.373  53.958  1.00  0.00    -0.084 Cl
HETATM   28  C15 UNL     1      27.727   1.332  53.895  1.00  0.00     0.026 A 
HETATM   29  C16 UNL     1      26.484   1.752  53.536  1.00  0.00     0.032 A 
ENDBRANCH   9  23
BRANCH   6  30
HETATM   30  N3  UNL     1      21.979  -1.907  55.183  1.00  0.00    -0.271 NA
HETATM   31  H7  UNL     1      21.865  -1.443  56.118  1.00  0.00     0.127 HD
HETATM   32  H8  UNL     1      21.863  -1.461  56.129  1.00  0.00     0.127 HD
ENDBRANCH   6  30
TORSDOF 5
ENDMDL
MODEL 7
REMARK VINA RESULT:      -9.2      1.496      6.431
REMARK  5 active torsions:
REMARK  status: ('A' for Active; 'I' for Inactive)
REMARK    1  A    between atoms: N1_1  and  C1_2 
REMARK    2  A    between atoms: C3_4  and  C4_5 
REMARK    3  A    between atoms: C4_5  and  C5_6 
REMARK    4  A    between atoms: C9_11  and  N3_12 
REMARK    5  A    between atoms: N5_15  and  C11_16 
ROOT
HETATM    1  C5  UNL     1      24.492   0.714  52.552  1.00  0.00     0.024 A 
HETATM    2  C6  UNL     1      25.098  -0.058  53.515  1.00  0.00     0.042 A 
HETATM    3  C7  UNL     1      26.327   0.433  53.895  1.00  0.00     0.030 A 
HETATM    4  C8  UNL     1      27.203  -0.096  54.838  1.00  0.00     0.135 A 
HETATM    5  N2  UNL     1      28.353   0.623  54.995  1.00  0.00    -0.230 NA
HETATM    6  C9  UNL     1      28.556   1.736  54.269  1.00  0.00     0.201 A 
HETATM    7  N4  UNL     1      27.673   2.205  53.368  1.00  0.00    -0.199 NA
HETATM    8  C10 UNL     1      26.504   1.574  53.131  1.00  0.00     0.150 A 
HETATM    9  N5  UNL     1      25.423   1.702  52.368  1.00  0.00    -0.299 N 
ENDROOT
BRANCH   1  10
HETATM   10  C4  UNL     1      23.260   0.771  51.763  1.00  0.00     0.097 C 
BRANCH  10  11
HETATM   11  C3  UNL     1      22.063   0.241  52.411  1.00  0.00    -0.039 A 
HETATM   12  C2  UNL     1      20.792   0.281  51.895  1.00  0.00     0.008 A 
HETATM   13  C1  UNL     1      20.271   0.807  50.814  1.00  0.00     0.038 A 
HETATM   14  C20 UNL     1      19.697  -0.258  52.525  1.00  0.00    -0.012 A 
HETATM   15  C22 UNL     1      18.840   0.586  50.682  1.00  0.00     0.043 A 
HETATM   16  C21 UNL     1      18.608  -0.077  51.805  1.00  0.00    -0.012 A 
HETATM   17  C19 UNL     1      19.838  -0.884  53.747  1.00  0.00     0.013 A 
HETATM   18  C18 UNL     1      21.095  -0.964  54.334  1.00  0.00     0.002 A 
HETATM   19  C17 UNL     1      22.157  -0.392  53.633  1.00  0.00     0.008 A 
BRANCH  13  20
HETATM   20  N1  UNL     1      21.029   1.524  49.861  1.00  0.00    -0.398 N 
HETATM   21  H1  UNL     1      20.668   2.140  49.087  1.00  0.00     0.156 HD
HETATM   22  H2  UNL     1      21.584   2.042  49.173  1.00  0.00     0.156 HD
ENDBRANCH  13  20
ENDBRANCH  10  11
ENDBRANCH   1  10
BRANCH   9  23
HETATM   23  C11 UNL     1      25.420   2.846  51.487  1.00  0.00     0.041 A 
HETATM   24  C12 UNL     1      26.426   2.707  50.531  1.00  0.00     0.032 A 
HETATM   25  C13 UNL     1      26.600   3.709  49.576  1.00  0.00     0.026 A 
HETATM   26  C14 UNL     1      25.776   4.816  49.594  1.00  0.00     0.034 A 
HETATM   27 CL1  UNL     1      25.967   6.093  48.412  1.00  0.00    -0.084 Cl
HETATM   28  C15 UNL     1      24.786   4.924  50.557  1.00  0.00     0.026 A 
HETATM   29  C16 UNL     1      24.603   3.957  51.496  1.00  0.00     0.032 A 
ENDBRANCH   9  23
BRANCH   6  30
HETATM   30  N3  UNL     1      29.787   2.459  54.472  1.00  0.00    -0.271 NA
HETATM   31  H7  UNL     1      29.610   3.435  54.818  1.00  0.00     0.127 HD
HETATM   32  H8  UNL     1      29.630   3.440  54.819  1.00  0.00     0.127 HD
ENDBRANCH   6  30
TORSDOF 5
ENDMDL
MODEL 8
REMARK VINA RESULT:      -9.2      2.906      6.651
REMARK  5 active torsions:
REMARK  status: ('A' for Active; 'I' for Inactive)
REMARK    1  A    between atoms: N1_1  and  C1_2 
REMARK    2  A    between atoms: C3_4  and  C4_5 
REMARK    3  A    between atoms: C4_5  and  C5_6 
REMARK    4  A    between atoms: C9_11  and  N3_12 
REMARK    5  A    between atoms: N5_15  and  C11_16 
ROOT
HETATM    1  C5  UNL     1      25.196   2.320  51.157  1.00  0.00     0.024 A 
HETATM    2  C6  UNL     1      26.370   2.021  51.808  1.00  0.00     0.042 A 
HETATM    3  C7  UNL     1      26.192   1.138  52.849  1.00  0.00     0.030 A 
HETATM    4  C8  UNL     1      27.158   0.626  53.710  1.00  0.00     0.135 A 
HETATM    5  N2  UNL     1      26.668  -0.235  54.650  1.00  0.00    -0.230 NA
HETATM    6  C9  UNL     1      25.355  -0.521  54.682  1.00  0.00     0.201 A 
HETATM    7  N4  UNL     1      24.461   0.003  53.823  1.00  0.00    -0.199 NA
HETATM    8  C10 UNL     1      24.834   0.866  52.855  1.00  0.00     0.150 A 
HETATM    9  N5  UNL     1      24.294   1.568  51.863  1.00  0.00    -0.299 N 
ENDROOT
BRANCH   1  10
HETATM   10  C4  UNL     1      24.700   3.122  50.039  1.00  0.00     0.097 C 
BRANCH  10  11
HETATM   11  C3  UNL     1      25.509   4.284  49.680  1.00  0.00    -0.039 A 
HETATM   12  C2  UNL     1      25.223   5.587  50.000  1.00  0.00     0.008 A 
HETATM   13  C1  UNL     1      24.213   6.170  50.600  1.00  0.00     0.038 A 
HETATM   14  C20 UNL     1      26.029   6.648  49.668  1.00  0.00    -0.012 A 
HETATM   15  C22 UNL     1      24.353   7.612  50.720  1.00  0.00     0.043 A 
HETATM   16  C21 UNL     1      25.511   7.781  50.102  1.00  0.00    -0.012 A 
HETATM   17  C19 UNL     1      27.203   6.437  48.974  1.00  0.00     0.013 A 
HETATM   18  C18 UNL     1      27.561   5.144  48.613  1.00  0.00     0.002 A 
HETATM   19  C17 UNL     1      26.690   4.120  48.986  1.00  0.00     0.008 A 
BRANCH  13  20
HETATM   20  N1  UNL     1      23.091   5.463  51.085  1.00  0.00    -0.398 N 
HETATM   21  H1  UNL     1      23.036   4.863  51.949  1.00  0.00     0.156 HD
HETATM   22  H2  UNL     1      22.273   4.953  51.433  1.00  0.00     0.156 HD
ENDBRANCH  13  20
ENDBRANCH  10  11
ENDBRANCH   1  10
BRANCH   9  23
HETATM   23  C11 UNL     1      22.866   1.418  51.706  1.00  0.00     0.041 A 
HETATM   24  C12 UNL     1      22.204   2.336  52.521  1.00  0.00     0.032 A 
HETATM   25  C13 UNL     1      20.809   2.361  52.524  1.00  0.00     0.026 A 
HETATM   26  C14 UNL     1      20.112   1.480  51.723  1.00  0.00     0.034 A 
HETATM   27 CL1  UNL     1      18.361   1.482  51.702  1.00  0.00    -0.084 Cl
HETATM   28  C15 UNL     1      20.800   0.580  50.925  1.00  0.00     0.026 A 
HETATM   29  C16 UNL     1      22.159   0.543  50.910  1.00  0.00     0.032 A 
ENDBRANCH   9  23
BRANCH   6  30
HETATM   30  N3  UNL     1      24.888  -1.436  55.694  1.00  0.00    -0.271 NA
HETATM   31  H7  UNL     1      24.928  -2.432  55.362  1.00  0.00     0.127 HD
HETATM   32  H8  UNL     1      24.921  -2.440  55.379  1.00  0.00     0.127 HD
ENDBRANCH   6  30
TORSDOF 5
ENDMDL
MODEL 9
REMARK VINA RESULT:      -9.2      2.572      4.255
REMARK  5 active torsions:
REMARK  status: ('A' for Active; 'I' for Inactive)
REMARK    1  A    between atoms: N1_1  and  C1_2 
REMARK    2  A    between atoms: C3_4  and  C4_5 
REMARK    3  A    between atoms: C4_5  and  C5_6 
REMARK    4  A    between atoms: C9_11  and  N3_12 
REMARK    5  A    between atoms: N5_15  and  C11_16 
ROOT
HETATM    1  C5  UNL     1      25.181   2.167  51.944  1.00  0.00     0.024 A 
HETATM    2  C6  UNL     1      26.064   2.966  51.256  1.00  0.00     0.042 A 
HETATM    3  C7  UNL     1      25.443   3.765  50.323  1.00  0.00     0.030 A 
HETATM    4  C8  UNL     1      26.029   4.685  49.461  1.00  0.00     0.135 A 
HETATM    5  N2  UNL     1      25.143   5.330  48.646  1.00  0.00    -0.230 NA
HETATM    6  C9  UNL     1      23.830   5.051  48.724  1.00  0.00     0.201 A 
HETATM    7  N4  UNL     1      23.314   4.148  49.579  1.00  0.00    -0.199 NA
HETATM    8  C10 UNL     1      24.098   3.452  50.429  1.00  0.00     0.150 A 
HETATM    9  N5  UNL     1      23.988   2.525  51.376  1.00  0.00    -0.299 N 
ENDROOT
BRANCH   1  10
HETATM   10  C4  UNL     1      25.165   1.158  53.004  1.00  0.00     0.097 C 
BRANCH  10  11
HETATM   11  C3  UNL     1      26.215   0.144  52.935  1.00  0.00    -0.039 A 
HETATM   12  C2  UNL     1      27.500   0.293  53.393  1.00  0.00     0.008 A 
HETATM   13  C1  UNL     1      28.163   1.296  53.916  1.00  0.00     0.038 A 
HETATM   14  C20 UNL     1      28.449  -0.699  53.337  1.00  0.00    -0.012 A 
HETATM   15  C22 UNL     1      29.540   0.975  54.260  1.00  0.00     0.043 A 
HETATM   16  C21 UNL     1      29.591  -0.282  53.847  1.00  0.00    -0.012 A 
HETATM   17  C19 UNL     1      28.134  -1.930  52.798  1.00  0.00     0.013 A 
HETATM   18  C18 UNL     1      26.852  -2.157  52.312  1.00  0.00     0.002 A 
HETATM   19  C17 UNL     1      25.946  -1.100  52.405  1.00  0.00     0.008 A 
BRANCH  13  20
HETATM   20  N1  UNL     1      27.595   2.571  54.127  1.00  0.00    -0.398 N 
HETATM   21  H1  UNL     1      28.095   3.459  54.395  1.00  0.00     0.156 HD
HETATM   22  H2  UNL     1      27.177   3.494  54.280  1.00  0.00     0.156 HD
ENDBRANCH  13  20
ENDBRANCH  10  11
ENDBRANCH   1  10
BRANCH   9  23
HETATM   23  C11 UNL     1      22.645   2.063  51.635  1.00  0.00     0.041 A 
HETATM   24  C12 UNL     1      22.365   0.956  50.834  1.00  0.00     0.032 A 
HETATM   25  C13 UNL     1      21.112   0.349  50.925  1.00  0.00     0.026 A 
HETATM   26  C14 UNL     1      20.176   0.853  51.804  1.00  0.00     0.034 A 
HETATM   27 CL1  UNL     1      18.593   0.118  51.944  1.00  0.00    -0.084 Cl
HETATM   28  C15 UNL     1      20.484   1.954  52.586  1.00  0.00     0.026 A 
HETATM   29  C16 UNL     1      21.701   2.557  52.509  1.00  0.00     0.032 A 
ENDBRANCH   9  23
BRANCH   6  30
HETATM   30  N3  UNL     1      22.936   5.758  47.841  1.00  0.00    -0.271 NA
HETATM   31  H7  UNL     1      22.715   6.718  48.204  1.00  0.00     0.127 HD
HETATM   32  H8  UNL     1      22.703   6.724  48.188  1.00  0.00     0.127 HD
ENDBRANCH   6  30
TORSDOF 5
ENDMDL
