MODEL 1
REMARK VINA RESULT:      -8.3      0.000      0.000
REMARK  6 active torsions:
REMARK  status: ('A' for Active; 'I' for Inactive)
REMARK    1  A    between atoms: O1_2  and  C2_3 
REMARK    2  A    between atoms: C5_6  and  O2_7 
REMARK    3  A    between atoms: C7_9  and  C8_10 
REMARK    4  A    between atoms: C12_14  and  N1_15 
REMARK    5  A    between atoms: N1_15  and  C13_16 
REMARK    6  A    between atoms: C19_24  and  N2_25 
ROOT
HETATM    1  C8  UNL     1      22.132   1.870  52.183  1.00  0.00    -0.037 A 
HETATM    2  C9  UNL     1      23.392   1.964  52.575  1.00  0.00    -0.028 A 
HETATM    3  C10 UNL     1      23.964   1.618  53.875  1.00  0.00     0.051 C 
HETATM    4  C11 UNL     1      24.156   2.492  51.453  1.00  0.00     0.068 A 
HETATM    5  C12 UNL     1      25.405   2.808  51.164  1.00  0.00     0.092 A 
HETATM    6  C19 UNL     1      25.999   3.338  49.936  1.00  0.00     0.392 A 
HETATM    7  N3  UNL     1      24.987   3.497  48.937  1.00  0.00    -0.243 NA
HETATM    8  C20 UNL     1      23.753   3.210  49.137  1.00  0.00     0.207 A 
HETATM    9  N4  UNL     1      23.247   2.703  50.364  1.00  0.00    -0.336 N 
HETATM   10  C21 UNL     1      21.910   2.325  50.773  1.00  0.00     0.166 A 
ENDROOT
BRANCH   5  11
HETATM   11  N1  UNL     1      26.361   2.605  52.200  1.00  0.00    -0.352 N 
HETATM   12  H13 UNL     1      26.805   3.147  52.974  1.00  0.00     0.166 HD
BRANCH  11  13
HETATM   13  C13 UNL     1      27.086   1.416  52.509  1.00  0.00     0.071 A 
HETATM   14  C14 UNL     1      26.783   0.109  52.246  1.00  0.00     0.034 A 
HETATM   15  C15 UNL     1      27.623  -0.911  52.640  1.00  0.00     0.026 A 
HETATM   16  C16 UNL     1      28.810  -0.628  53.321  1.00  0.00     0.037 A 
HETATM   17 CL1  UNL     1      29.860  -1.960  53.809  1.00  0.00    -0.084 Cl
HETATM   18  C17 UNL     1      29.162   0.670  53.610  1.00  0.00     0.068 A 
HETATM   19  C18 UNL     1      28.285   1.659  53.193  1.00  0.00     0.144 A 
HETATM   20  F1  UNL     1      28.704   2.927  53.517  1.00  0.00    -0.204 F 
ENDBRANCH  11  13
ENDBRANCH   5  11
BRANCH   6  21
HETATM   21  N2  UNL     1      26.568   4.672  50.163  1.00  0.00     0.109 N 
HETATM   22  H18 UNL     1      27.284   4.687  50.913  1.00  0.00     0.316 HD
HETATM   23  H19 UNL     1      26.825   5.164  49.296  1.00  0.00     0.316 HD
ENDBRANCH   6  21
BRANCH   1  24
HETATM   24  C7  UNL     1      20.922   1.393  52.918  1.00  0.00     0.130 A 
HETATM   25  C2  UNL     1      20.698  -0.042  52.617  1.00  0.00     0.060 A 
HETATM   26  C3  UNL     1      19.594  -0.303  51.948  1.00  0.00     0.036 A 
HETATM   27  C4  UNL     1      18.973   1.008  51.745  1.00  0.00     0.036 A 
HETATM   28  C5  UNL     1      19.692   1.980  52.275  1.00  0.00     0.060 A 
BRANCH  25  29
HETATM   29  O1  UNL     1      21.704  -0.873  53.099  1.00  0.00    -0.359 OA
HETATM   30  C1  UNL     1      21.573  -1.274  54.457  1.00  0.00     0.209 C 
ENDBRANCH  25  29
BRANCH  28  31
HETATM   31  O2  UNL     1      19.507   3.354  52.332  1.00  0.00    -0.359 OA
HETATM   32  C6  UNL     1      18.685   3.989  51.360  1.00  0.00     0.209 C 
ENDBRANCH  28  31
ENDBRANCH   1  24
TORSDOF 6
ENDMDL
MODEL 2
REMARK VINA RESULT:      -7.9      3.298      4.789
REMARK  6 active torsions:
REMARK  status: ('A' for Active; 'I' for Inactive)
REMARK    1  A    between atoms: O1_2  and  C2_3 
REMARK    2  A    between atoms: C5_6  and  O2_7 
REMARK    3  A    between atoms: C7_9  and  C8_10 
REMARK    4  A    between atoms: C12_14  and  N1_15 
REMARK    5  A    between atoms: N1_15  and  C13_16 
REMARK    6  A    between atoms: C19_24  and  N2_25 
ROOT
HETATM    1  C8  UNL     1      22.252   1.188  52.275  1.00  0.00    -0.037 A 
HETATM    2  C9  UNL     1      22.820   2.306  51.849  1.00  0.00    -0.028 A 
HETATM    3  C10 UNL     1      23.536   3.311  52.632  1.00  0.00     0.051 C 
HETATM    4  C11 UNL     1      22.608   2.378  50.410  1.00  0.00     0.068 A 
HETATM    5  C12 UNL     1      22.905   3.179  49.403  1.00  0.00     0.092 A 
HETATM    6  C19 UNL     1      22.598   3.075  47.976  1.00  0.00     0.392 A 
HETATM    7  N3  UNL     1      21.866   1.872  47.723  1.00  0.00    -0.243 NA
HETATM    8  C20 UNL     1      21.542   1.041  48.645  1.00  0.00     0.207 A 
HETATM    9  N4  UNL     1      21.870   1.213  50.016  1.00  0.00    -0.336 N 
HETATM   10  C21 UNL     1      21.598   0.399  51.183  1.00  0.00     0.166 A 
ENDROOT
BRANCH   5  11
HETATM   11  N1  UNL     1      23.653   4.346  49.727  1.00  0.00    -0.352 N 
HETATM   12  H13 UNL     1      23.527   5.234  50.261  1.00  0.00     0.166 HD
BRANCH  11  13
HETATM   13  C13 UNL     1      24.989   4.669  49.347  1.00  0.00     0.071 A 
HETATM   14  C14 UNL     1      26.126   3.912  49.403  1.00  0.00     0.034 A 
HETATM   15  C15 UNL     1      27.341   4.416  48.990  1.00  0.00     0.026 A 
HETATM   16  C16 UNL     1      27.436   5.722  48.502  1.00  0.00     0.037 A 
HETATM   17 CL1  UNL     1      29.008   6.334  47.982  1.00  0.00    -0.084 Cl
HETATM   18  C17 UNL     1      26.322   6.526  48.424  1.00  0.00     0.068 A 
HETATM   19  C18 UNL     1      25.126   5.973  48.851  1.00  0.00     0.144 A 
HETATM   20  F1  UNL     1      24.061   6.835  48.743  1.00  0.00    -0.204 F 
ENDBRANCH  11  13
ENDBRANCH   5  11
BRANCH   6  21
HETATM   21  N2  UNL     1      21.737   4.182  47.543  1.00  0.00     0.109 N 
HETATM   22  H18 UNL     1      20.726   3.984  47.665  1.00  0.00     0.316 HD
HETATM   23  H19 UNL     1      22.051   5.104  47.877  1.00  0.00     0.316 HD
ENDBRANCH   6  21
BRANCH   1  24
HETATM   24  C7  UNL     1      22.162   0.610  53.648  1.00  0.00     0.130 A 
HETATM   25  C2  UNL     1      23.259  -0.371  53.841  1.00  0.00     0.060 A 
HETATM   26  C3  UNL     1      22.866  -1.619  53.994  1.00  0.00     0.036 A 
HETATM   27  C4  UNL     1      21.405  -1.554  53.910  1.00  0.00     0.036 A 
HETATM   28  C5  UNL     1      20.978  -0.320  53.715  1.00  0.00     0.060 A 
BRANCH  25  29
HETATM   29  O1  UNL     1      24.525   0.203  53.826  1.00  0.00    -0.359 OA
HETATM   30  C1  UNL     1      25.523  -0.526  53.124  1.00  0.00     0.209 C 
ENDBRANCH  25  29
BRANCH  28  31
HETATM   31  O2  UNL     1      19.706   0.217  53.574  1.00  0.00    -0.359 OA
HETATM   32  C6  UNL     1      18.649  -0.607  53.102  1.00  0.00     0.209 C 
ENDBRANCH  28  31
ENDBRANCH   1  24
TORSDOF 6
ENDMDL
MODEL 3
REMARK VINA RESULT:      -7.7      4.515      6.462
REMARK  6 active torsions:
REMARK  status: ('A' for Active; 'I' for Inactive)
REMARK    1  A    between atoms: O1_2  and  C2_3 
REMARK    2  A    between atoms: C5_6  and  O2_7 
REMARK    3  A    between atoms: C7_9  and  C8_10 
REMARK    4  A    between atoms: C12_14  and  N1_15 
REMARK    5  A    between atoms: N1_15  and  C13_16 
REMARK    6  A    between atoms: C19_24  and  N2_25 
ROOT
HETATM    1  C8  UNL     1      24.297   3.515  50.570  1.00  0.00    -0.037 A 
HETATM    2  C9  UNL     1      25.407   4.002  50.038  1.00  0.00    -0.028 A 
HETATM    3  C10 UNL     1      26.534   3.267  49.468  1.00  0.00     0.051 C 
HETATM    4  C11 UNL     1      25.324   5.453  50.116  1.00  0.00     0.068 A 
HETATM    5  C12 UNL     1      26.043   6.508  49.777  1.00  0.00     0.092 A 
HETATM    6  C19 UNL     1      25.779   7.938  49.938  1.00  0.00     0.392 A 
HETATM    7  N3  UNL     1      24.507   8.129  50.563  1.00  0.00    -0.243 NA
HETATM    8  C20 UNL     1      23.747   7.159  50.919  1.00  0.00     0.207 A 
HETATM    9  N4  UNL     1      24.075   5.789  50.735  1.00  0.00    -0.336 N 
HETATM   10  C21 UNL     1      23.359   4.573  51.064  1.00  0.00     0.166 A 
ENDROOT
BRANCH   5  11
HETATM   11  N1  UNL     1      27.289   6.241  49.141  1.00  0.00    -0.352 N 
HETATM   12  H13 UNL     1      28.088   5.576  49.231  1.00  0.00     0.166 HD
BRANCH  11  13
HETATM   13  C13 UNL     1      27.875   6.920  48.032  1.00  0.00     0.071 A 
HETATM   14  C14 UNL     1      27.298   7.727  47.091  1.00  0.00     0.034 A 
HETATM   15  C15 UNL     1      28.045   8.291  46.079  1.00  0.00     0.026 A 
HETATM   16  C16 UNL     1      29.419   8.047  45.993  1.00  0.00     0.037 A 
HETATM   17 CL1  UNL     1      30.343   8.785  44.683  1.00  0.00    -0.084 Cl
HETATM   18  C17 UNL     1      30.048   7.242  46.914  1.00  0.00     0.068 A 
HETATM   19  C18 UNL     1      29.253   6.700  47.911  1.00  0.00     0.144 A 
HETATM   20  F1  UNL     1      29.953   5.909  48.792  1.00  0.00    -0.204 F 
ENDBRANCH  11  13
ENDBRANCH   5  11
BRANCH   6  21
HETATM   21  N2  UNL     1      26.772   8.557  50.825  1.00  0.00     0.109 N 
HETATM   22  H18 UNL     1      27.735   8.205  50.666  1.00  0.00     0.316 HD
HETATM   23  H19 UNL     1      26.681   9.580  50.896  1.00  0.00     0.316 HD
ENDBRANCH   6  21
BRANCH   1  24
HETATM   24  C7  UNL     1      23.849   2.103  50.753  1.00  0.00     0.130 A 
HETATM   25  C2  UNL     1      22.367   2.046  50.698  1.00  0.00     0.060 A 
HETATM   26  C3  UNL     1      21.784   1.692  51.825  1.00  0.00     0.036 A 
HETATM   27  C4  UNL     1      22.892   1.477  52.757  1.00  0.00     0.036 A 
HETATM   28  C5  UNL     1      24.063   1.699  52.189  1.00  0.00     0.060 A 
BRANCH  25  29
HETATM   29  O1  UNL     1      21.845   2.380  49.454  1.00  0.00    -0.359 OA
HETATM   30  C1  UNL     1      21.616   1.291  48.569  1.00  0.00     0.209 C 
ENDBRANCH  25  29
BRANCH  28  31
HETATM   31  O2  UNL     1      25.363   1.625  52.668  1.00  0.00    -0.359 OA
HETATM   32  C6  UNL     1      26.245   0.638  52.146  1.00  0.00     0.209 C 
ENDBRANCH  28  31
ENDBRANCH   1  24
TORSDOF 6
ENDMDL
MODEL 4
REMARK VINA RESULT:      -7.6      3.768      5.621
REMARK  6 active torsions:
REMARK  status: ('A' for Active; 'I' for Inactive)
REMARK    1  A    between atoms: O1_2  and  C2_3 
REMARK    2  A    between atoms: C5_6  and  O2_7 
REMARK    3  A    between atoms: C7_9  and  C8_10 
REMARK    4  A    between atoms: C12_14  and  N1_15 
REMARK    5  A    between atoms: N1_15  and  C13_16 
REMARK    6  A    between atoms: C19_24  and  N2_25 
ROOT
HETATM    1  C8  UNL     1      23.082   2.221  51.808  1.00  0.00    -0.037 A 
HETATM    2  C9  UNL     1      23.190   3.484  51.429  1.00  0.00    -0.028 A 
HETATM    3  C10 UNL     1      23.568   4.641  52.238  1.00  0.00     0.051 C 
HETATM    4  C11 UNL     1      22.858   3.541  50.013  1.00  0.00     0.068 A 
HETATM    5  C12 UNL     1      22.780   4.439  49.047  1.00  0.00     0.092 A 
HETATM    6  C19 UNL     1      22.421   4.298  47.636  1.00  0.00     0.392 A 
HETATM    7  N3  UNL     1      22.137   2.928  47.342  1.00  0.00    -0.243 NA
HETATM    8  C20 UNL     1      22.193   1.995  48.221  1.00  0.00     0.207 A 
HETATM    9  N4  UNL     1      22.545   2.210  49.581  1.00  0.00    -0.336 N 
HETATM   10  C21 UNL     1      22.663   1.301  50.702  1.00  0.00     0.166 A 
ENDROOT
BRANCH   5  11
HETATM   11  N1  UNL     1      23.097   5.780  49.409  1.00  0.00    -0.352 N 
HETATM   12  H13 UNL     1      22.611   6.629  49.774  1.00  0.00     0.166 HD
BRANCH  11  13
HETATM   13  C13 UNL     1      24.366   6.429  49.359  1.00  0.00     0.071 A 
HETATM   14  C14 UNL     1      25.523   6.050  48.738  1.00  0.00     0.034 A 
HETATM   15  C15 UNL     1      26.662   6.823  48.817  1.00  0.00     0.026 A 
HETATM   16  C16 UNL     1      26.657   8.019  49.540  1.00  0.00     0.037 A 
HETATM   17 CL1  UNL     1      28.134   8.982  49.619  1.00  0.00    -0.084 Cl
HETATM   18  C17 UNL     1      25.519   8.446  50.184  1.00  0.00     0.068 A 
HETATM   19  C18 UNL     1      24.401   7.634  50.073  1.00  0.00     0.144 A 
HETATM   20  F1  UNL     1      23.306   8.127  50.742  1.00  0.00    -0.204 F 
ENDBRANCH  11  13
ENDBRANCH   5  11
BRANCH   6  21
HETATM   21  N2  UNL     1      21.198   5.050  47.328  1.00  0.00     0.109 N 
HETATM   22  H18 UNL     1      20.387   4.763  47.908  1.00  0.00     0.316 HD
HETATM   23  H19 UNL     1      21.347   6.065  47.247  1.00  0.00     0.316 HD
ENDBRANCH   6  21
BRANCH   1  24
HETATM   24  C7  UNL     1      23.303   1.586  53.141  1.00  0.00     0.130 A 
HETATM   25  C2  UNL     1      24.532   0.756  53.092  1.00  0.00     0.060 A 
HETATM   26  C3  UNL     1      24.333  -0.538  53.236  1.00  0.00     0.036 A 
HETATM   27  C4  UNL     1      22.884  -0.667  53.399  1.00  0.00     0.036 A 
HETATM   28  C5  UNL     1      22.276   0.504  53.350  1.00  0.00     0.060 A 
BRANCH  25  29
HETATM   29  O1  UNL     1      25.694   1.497  52.901  1.00  0.00    -0.359 OA
HETATM   30  C1  UNL     1      26.580   1.005  51.905  1.00  0.00     0.209 C 
ENDBRANCH  25  29
BRANCH  28  31
HETATM   31  O2  UNL     1      20.942   0.869  53.453  1.00  0.00    -0.359 OA
HETATM   32  C6  UNL     1      19.934  -0.128  53.340  1.00  0.00     0.209 C 
ENDBRANCH  28  31
ENDBRANCH   1  24
TORSDOF 6
ENDMDL
MODEL 5
REMARK VINA RESULT:      -7.3      9.855     13.015
REMARK  6 active torsions:
REMARK  status: ('A' for Active; 'I' for Inactive)
REMARK    1  A    between atoms: O1_2  and  C2_3 
REMARK    2  A    between atoms: C5_6  and  O2_7 
REMARK    3  A    between atoms: C7_9  and  C8_10 
REMARK    4  A    between atoms: C12_14  and  N1_15 
REMARK    5  A    between atoms: N1_15  and  C13_16 
REMARK    6  A    between atoms: C19_24  and  N2_25 
ROOT
HETATM    1  C8  UNL     1      32.957   6.046  47.248  1.00  0.00    -0.037 A 
HETATM    2  C9  UNL     1      32.710   7.335  47.423  1.00  0.00    -0.028 A 
HETATM    3  C10 UNL     1      33.636   8.458  47.296  1.00  0.00     0.051 C 
HETATM    4  C11 UNL     1      31.304   7.462  47.778  1.00  0.00     0.068 A 
HETATM    5  C12 UNL     1      30.435   8.414  48.064  1.00  0.00     0.092 A 
HETATM    6  C19 UNL     1      29.013   8.342  48.401  1.00  0.00     0.392 A 
HETATM    7  N3  UNL     1      28.578   6.979  48.383  1.00  0.00    -0.243 NA
HETATM    8  C20 UNL     1      29.358   5.997  48.113  1.00  0.00     0.207 A 
HETATM    9  N4  UNL     1      30.736   6.145  47.799  1.00  0.00    -0.336 N 
HETATM   10  C21 UNL     1      31.760   5.175  47.470  1.00  0.00     0.166 A 
ENDROOT
BRANCH   5  11
HETATM   11  N1  UNL     1      30.934   9.748  48.042  1.00  0.00    -0.352 N 
HETATM   12  H13 UNL     1      31.799  10.264  48.314  1.00  0.00     0.166 HD
BRANCH  11  13
HETATM   13  C13 UNL     1      30.281  10.925  47.571  1.00  0.00     0.071 A 
HETATM   14  C14 UNL     1      29.689  11.178  46.366  1.00  0.00     0.034 A 
HETATM   15  C15 UNL     1      29.110  12.401  46.096  1.00  0.00     0.026 A 
HETATM   16  C16 UNL     1      29.119  13.414  47.059  1.00  0.00     0.037 A 
HETATM   17 CL1  UNL     1      28.369  14.967  46.679  1.00  0.00    -0.084 Cl
HETATM   18  C17 UNL     1      29.702  13.211  48.289  1.00  0.00     0.068 A 
HETATM   19  C18 UNL     1      30.268  11.966  48.509  1.00  0.00     0.144 A 
HETATM   20  F1  UNL     1      30.829  11.840  49.758  1.00  0.00    -0.204 F 
ENDBRANCH  11  13
ENDBRANCH   5  11
BRANCH   6  21
HETATM   21  N2  UNL     1      28.772   8.835  49.763  1.00  0.00     0.109 N 
HETATM   22  H18 UNL     1      27.838   9.271  49.880  1.00  0.00     0.316 HD
HETATM   23  H19 UNL     1      29.043   8.167  50.498  1.00  0.00     0.316 HD
ENDBRANCH   6  21
BRANCH   1  24
HETATM   24  C7  UNL     1      34.221   5.344  46.875  1.00  0.00     0.130 A 
HETATM   25  C2  UNL     1      33.903   4.195  45.992  1.00  0.00     0.060 A 
HETATM   26  C3  UNL     1      34.163   3.011  46.507  1.00  0.00     0.036 A 
HETATM   27  C4  UNL     1      34.700   3.303  47.838  1.00  0.00     0.036 A 
HETATM   28  C5  UNL     1      34.745   4.601  48.077  1.00  0.00     0.060 A 
BRANCH  25  29
HETATM   29  O1  UNL     1      33.380   4.571  44.760  1.00  0.00    -0.359 OA
HETATM   30  C1  UNL     1      34.296   5.188  43.865  1.00  0.00     0.209 C 
ENDBRANCH  25  29
BRANCH  28  31
HETATM   31  O2  UNL     1      35.168   5.334  49.176  1.00  0.00    -0.359 OA
HETATM   32  C6  UNL     1      36.135   6.362  48.999  1.00  0.00     0.209 C 
ENDBRANCH  28  31
ENDBRANCH   1  24
TORSDOF 6
ENDMDL
MODEL 6
REMARK VINA RESULT:      -7.2      3.432      5.628
REMARK  6 active torsions:
REMARK  status: ('A' for Active; 'I' for Inactive)
REMARK    1  A    between atoms: O1_2  and  C2_3 
REMARK    2  A    between atoms: C5_6  and  O2_7 
REMARK    3  A    between atoms: C7_9  and  C8_10 
REMARK    4  A    between atoms: C12_14  and  N1_15 
REMARK    5  A    between atoms: N1_15  and  C13_16 
REMARK    6  A    between atoms: C19_24  and  N2_25 
ROOT
HETATM    1  C8  UNL     1      23.014   5.187  49.809  1.00  0.00    -0.037 A 
HETATM    2  C9  UNL     1      23.622   4.043  50.080  1.00  0.00    -0.028 A 
HETATM    3  C10 UNL     1      24.906   3.560  49.575  1.00  0.00     0.051 C 
HETATM    4  C11 UNL     1      22.770   3.308  51.003  1.00  0.00     0.068 A 
HETATM    5  C12 UNL     1      22.772   2.159  51.655  1.00  0.00     0.092 A 
HETATM    6  C19 UNL     1      21.792   1.579  52.574  1.00  0.00     0.392 A 
HETATM    7  N3  UNL     1      20.691   2.476  52.740  1.00  0.00    -0.243 NA
HETATM    8  C20 UNL     1      20.615   3.611  52.146  1.00  0.00     0.207 A 
HETATM    9  N4  UNL     1      21.607   4.107  51.259  1.00  0.00    -0.336 N 
HETATM   10  C21 UNL     1      21.698   5.342  50.507  1.00  0.00     0.166 A 
ENDROOT
BRANCH   5  11
HETATM   11  N1  UNL     1      23.910   1.326  51.457  1.00  0.00    -0.352 N 
HETATM   12  H13 UNL     1      24.260   0.632  50.759  1.00  0.00     0.166 HD
BRANCH  11  13
HETATM   13  C13 UNL     1      25.059   1.192  52.289  1.00  0.00     0.071 A 
HETATM   14  C14 UNL     1      26.131   2.025  52.448  1.00  0.00     0.034 A 
HETATM   15  C15 UNL     1      27.161   1.708  53.309  1.00  0.00     0.026 A 
HETATM   16  C16 UNL     1      27.129   0.519  54.043  1.00  0.00     0.037 A 
HETATM   17 CL1  UNL     1      28.464   0.147  55.135  1.00  0.00    -0.084 Cl
HETATM   18  C17 UNL     1      26.073  -0.355  53.920  1.00  0.00     0.068 A 
HETATM   19  C18 UNL     1      25.065   0.010  53.042  1.00  0.00     0.144 A 
HETATM   20  F1  UNL     1      24.047  -0.912  52.975  1.00  0.00    -0.204 F 
ENDBRANCH  11  13
ENDBRANCH   5  11
BRANCH   6  21
HETATM   21  N2  UNL     1      21.233   0.336  52.026  1.00  0.00     0.109 N 
HETATM   22  H18 UNL     1      20.245   0.179  52.299  1.00  0.00     0.316 HD
HETATM   23  H19 UNL     1      21.445   0.193  51.029  1.00  0.00     0.316 HD
ENDBRANCH   6  21
BRANCH   1  24
HETATM   24  C7  UNL     1      23.429   6.320  48.930  1.00  0.00     0.130 A 
HETATM   25  C2  UNL     1      23.509   7.564  49.735  1.00  0.00     0.060 A 
HETATM   26  C3  UNL     1      22.630   8.491  49.414  1.00  0.00     0.036 A 
HETATM   27  C4  UNL     1      21.863   7.899  48.316  1.00  0.00     0.036 A 
HETATM   28  C5  UNL     1      22.284   6.683  48.020  1.00  0.00     0.060 A 
BRANCH  25  29
HETATM   29  O1  UNL     1      24.509   7.535  50.700  1.00  0.00    -0.359 OA
HETATM   30  C1  UNL     1      25.842   7.545  50.206  1.00  0.00     0.209 C 
ENDBRANCH  25  29
BRANCH  28  31
HETATM   31  O2  UNL     1      21.871   5.756  47.074  1.00  0.00    -0.359 OA
HETATM   32  C6  UNL     1      22.170   5.979  45.701  1.00  0.00     0.209 C 
ENDBRANCH  28  31
ENDBRANCH   1  24
TORSDOF 6
ENDMDL
MODEL 7
REMARK VINA RESULT:      -7.1      4.211      7.363
REMARK  6 active torsions:
REMARK  status: ('A' for Active; 'I' for Inactive)
REMARK    1  A    between atoms: O1_2  and  C2_3 
REMARK    2  A    between atoms: C5_6  and  O2_7 
REMARK    3  A    between atoms: C7_9  and  C8_10 
REMARK    4  A    between atoms: C12_14  and  N1_15 
REMARK    5  A    between atoms: N1_15  and  C13_16 
REMARK    6  A    between atoms: C19_24  and  N2_25 
ROOT
HETATM    1  C8  UNL     1      23.333   0.774  52.682  1.00  0.00    -0.037 A 
HETATM    2  C9  UNL     1      22.379   1.093  51.823  1.00  0.00    -0.028 A 
HETATM    3  C10 UNL     1      21.477   0.199  51.099  1.00  0.00     0.051 C 
HETATM    4  C11 UNL     1      22.369   2.544  51.706  1.00  0.00     0.068 A 
HETATM    5  C12 UNL     1      21.698   3.484  51.065  1.00  0.00     0.092 A 
HETATM    6  C19 UNL     1      21.836   4.941  51.084  1.00  0.00     0.392 A 
HETATM    7  N3  UNL     1      22.886   5.317  51.979  1.00  0.00    -0.243 NA
HETATM    8  C20 UNL     1      23.582   4.467  52.642  1.00  0.00     0.207 A 
HETATM    9  N4  UNL     1      23.393   3.061  52.567  1.00  0.00    -0.336 N 
HETATM   10  C21 UNL     1      24.066   1.961  53.227  1.00  0.00     0.166 A 
ENDROOT
BRANCH   5  11
HETATM   11  N1  UNL     1      20.654   3.036  50.206  1.00  0.00    -0.352 N 
HETATM   12  H13 UNL     1      20.525   2.375  49.409  1.00  0.00     0.166 HD
BRANCH  11  13
HETATM   13  C13 UNL     1      19.284   3.434  50.203  1.00  0.00     0.071 A 
HETATM   14  C14 UNL     1      18.588   4.182  49.296  1.00  0.00     0.034 A 
HETATM   15  C15 UNL     1      17.252   4.468  49.480  1.00  0.00     0.026 A 
HETATM   16  C16 UNL     1      16.576   3.994  50.608  1.00  0.00     0.037 A 
HETATM   17 CL1  UNL     1      14.866   4.380  50.811  1.00  0.00    -0.084 Cl
HETATM   18  C17 UNL     1      17.230   3.237  51.553  1.00  0.00     0.068 A 
HETATM   19  C18 UNL     1      18.572   2.978  51.321  1.00  0.00     0.144 A 
HETATM   20  F1  UNL     1      19.154   2.217  52.306  1.00  0.00    -0.204 F 
ENDBRANCH  11  13
ENDBRANCH   5  11
BRANCH   6  21
HETATM   21  N2  UNL     1      22.221   5.447  49.760  1.00  0.00     0.109 N 
HETATM   22  H18 UNL     1      21.427   5.486  49.093  1.00  0.00     0.316 HD
HETATM   23  H19 UNL     1      22.810   6.290  49.796  1.00  0.00     0.316 HD
ENDBRANCH   6  21
BRANCH   1  24
HETATM   24  C7  UNL     1      23.785  -0.561  53.177  1.00  0.00     0.130 A 
HETATM   25  C2  UNL     1      23.359  -0.732  54.588  1.00  0.00     0.060 A 
HETATM   26  C3  UNL     1      24.344  -0.801  55.460  1.00  0.00     0.036 A 
HETATM   27  C4  UNL     1      25.557  -0.675  54.649  1.00  0.00     0.036 A 
HETATM   28  C5  UNL     1      25.279  -0.538  53.366  1.00  0.00     0.060 A 
BRANCH  25  29
HETATM   29  O1  UNL     1      21.979  -0.790  54.747  1.00  0.00    -0.359 OA
HETATM   30  C1  UNL     1      21.355  -1.979  54.282  1.00  0.00     0.209 C 
ENDBRANCH  25  29
BRANCH  28  31
HETATM   31  O2  UNL     1      26.086  -0.388  52.246  1.00  0.00    -0.359 OA
HETATM   32  C6  UNL     1      27.314   0.320  52.360  1.00  0.00     0.209 C 
ENDBRANCH  28  31
ENDBRANCH   1  24
TORSDOF 6
ENDMDL
MODEL 8
REMARK VINA RESULT:      -7.0      5.820      9.050
REMARK  6 active torsions:
REMARK  status: ('A' for Active; 'I' for Inactive)
REMARK    1  A    between atoms: O1_2  and  C2_3 
REMARK    2  A    between atoms: C5_6  and  O2_7 
REMARK    3  A    between atoms: C7_9  and  C8_10 
REMARK    4  A    between atoms: C12_14  and  N1_15 
REMARK    5  A    between atoms: N1_15  and  C13_16 
REMARK    6  A    between atoms: C19_24  and  N2_25 
ROOT
HETATM    1  C8  UNL     1      28.013   7.206  47.880  1.00  0.00    -0.037 A 
HETATM    2  C9  UNL     1      27.456   6.228  48.577  1.00  0.00    -0.028 A 
HETATM    3  C10 UNL     1      27.834   4.817  48.616  1.00  0.00     0.051 C 
HETATM    4  C11 UNL     1      26.356   6.808  49.334  1.00  0.00     0.068 A 
HETATM    5  C12 UNL     1      25.434   6.424  50.198  1.00  0.00     0.092 A 
HETATM    6  C19 UNL     1      24.383   7.182  50.877  1.00  0.00     0.392 A 
HETATM    7  N3  UNL     1      24.448   8.557  50.488  1.00  0.00    -0.243 NA
HETATM    8  C20 UNL     1      25.314   9.011  49.658  1.00  0.00     0.207 A 
HETATM    9  N4  UNL     1      26.305   8.209  49.031  1.00  0.00    -0.336 N 
HETATM   10  C21 UNL     1      27.352   8.535  48.085  1.00  0.00     0.166 A 
ENDROOT
BRANCH   5  11
HETATM   11  N1  UNL     1      25.443   5.045  50.554  1.00  0.00    -0.352 N 
HETATM   12  H13 UNL     1      26.032   4.382  51.106  1.00  0.00     0.166 HD
BRANCH  11  13
HETATM   13  C13 UNL     1      24.500   4.037  50.196  1.00  0.00     0.071 A 
HETATM   14  C14 UNL     1      24.025   3.675  48.967  1.00  0.00     0.034 A 
HETATM   15  C15 UNL     1      23.097   2.665  48.828  1.00  0.00     0.026 A 
HETATM   16  C16 UNL     1      22.618   1.985  49.951  1.00  0.00     0.037 A 
HETATM   17 CL1  UNL     1      21.430   0.697  49.736  1.00  0.00    -0.084 Cl
HETATM   18  C17 UNL     1      23.064   2.309  51.212  1.00  0.00     0.068 A 
HETATM   19  C18 UNL     1      23.997   3.331  51.297  1.00  0.00     0.144 A 
HETATM   20  F1  UNL     1      24.393   3.596  52.586  1.00  0.00    -0.204 F 
ENDBRANCH  11  13
ENDBRANCH   5  11
BRANCH   6  21
HETATM   21  N2  UNL     1      23.053   6.702  50.480  1.00  0.00     0.109 N 
HETATM   22  H18 UNL     1      22.413   6.564  51.285  1.00  0.00     0.316 HD
HETATM   23  H19 UNL     1      22.653   7.210  49.679  1.00  0.00     0.316 HD
ENDBRANCH   6  21
BRANCH   1  24
HETATM   24  C7  UNL     1      29.171   7.186  46.939  1.00  0.00     0.130 A 
HETATM   25  C2  UNL     1      30.364   7.753  47.615  1.00  0.00     0.060 A 
HETATM   26  C3  UNL     1      30.805   8.885  47.105  1.00  0.00     0.036 A 
HETATM   27  C4  UNL     1      29.890   9.166  45.997  1.00  0.00     0.036 A 
HETATM   28  C5  UNL     1      28.962   8.235  45.877  1.00  0.00     0.060 A 
BRANCH  25  29
HETATM   29  O1  UNL     1      30.815   6.983  48.681  1.00  0.00    -0.359 OA
HETATM   30  C1  UNL     1      31.515   5.796  48.330  1.00  0.00     0.209 C 
ENDBRANCH  25  29
BRANCH  28  31
HETATM   31  O2  UNL     1      27.904   8.079  44.993  1.00  0.00    -0.359 OA
HETATM   32  C6  UNL     1      27.332   9.227  44.379  1.00  0.00     0.209 C 
ENDBRANCH  28  31
ENDBRANCH   1  24
TORSDOF 6
ENDMDL
MODEL 9
REMARK VINA RESULT:      -7.0      5.411      8.488
REMARK  6 active torsions:
REMARK  status: ('A' for Active; 'I' for Inactive)
REMARK    1  A    between atoms: O1_2  and  C2_3 
REMARK    2  A    between atoms: C5_6  and  O2_7 
REMARK    3  A    between atoms: C7_9  and  C8_10 
REMARK    4  A    between atoms: C12_14  and  N1_15 
REMARK    5  A    between atoms: N1_15  and  C13_16 
REMARK    6  A    between atoms: C19_24  and  N2_25 
ROOT
HETATM    1  C8  UNL     1      28.124   7.190  48.495  1.00  0.00    -0.037 A 
HETATM    2  C9  UNL     1      27.555   6.010  48.679  1.00  0.00    -0.028 A 
HETATM    3  C10 UNL     1      28.028   4.698  48.240  1.00  0.00     0.051 C 
HETATM    4  C11 UNL     1      26.324   6.235  49.424  1.00  0.00     0.068 A 
HETATM    5  C12 UNL     1      25.327   5.531  49.930  1.00  0.00     0.092 A 
HETATM    6  C19 UNL     1      24.141   5.951  50.677  1.00  0.00     0.392 A 
HETATM    7  N3  UNL     1      24.155   7.371  50.850  1.00  0.00    -0.243 NA
HETATM    8  C20 UNL     1      25.087   8.125  50.393  1.00  0.00     0.207 A 
HETATM    9  N4  UNL     1      26.209   7.643  49.668  1.00  0.00    -0.336 N 
HETATM   10  C21 UNL     1      27.345   8.326  49.083  1.00  0.00     0.166 A 
ENDROOT
BRANCH   5  11
HETATM   11  N1  UNL     1      25.391   4.121  49.736  1.00  0.00    -0.352 N 
HETATM   12  H13 UNL     1      25.289   3.432  48.959  1.00  0.00     0.166 HD
BRANCH  11  13
HETATM   13  C13 UNL     1      25.653   3.110  50.707  1.00  0.00     0.071 A 
HETATM   14  C14 UNL     1      26.817   2.783  51.343  1.00  0.00     0.034 A 
HETATM   15  C15 UNL     1      26.867   1.752  52.257  1.00  0.00     0.026 A 
HETATM   16  C16 UNL     1      25.718   1.014  52.555  1.00  0.00     0.037 A 
HETATM   17 CL1  UNL     1      25.819  -0.299  53.730  1.00  0.00    -0.084 Cl
HETATM   18  C17 UNL     1      24.520   1.303  51.943  1.00  0.00     0.068 A 
HETATM   19  C18 UNL     1      24.523   2.348  51.033  1.00  0.00     0.144 A 
HETATM   20  F1  UNL     1      23.292   2.575  50.465  1.00  0.00    -0.204 F 
ENDBRANCH  11  13
ENDBRANCH   5  11
BRANCH   6  21
HETATM   21  N2  UNL     1      22.915   5.637  49.933  1.00  0.00     0.109 N 
HETATM   22  H18 UNL     1      22.627   4.645  50.023  1.00  0.00     0.316 HD
HETATM   23  H19 UNL     1      22.164   6.329  50.064  1.00  0.00     0.316 HD
ENDBRANCH   6  21
BRANCH   1  24
HETATM   24  C7  UNL     1      29.395   7.554  47.802  1.00  0.00     0.130 A 
HETATM   25  C2  UNL     1      30.469   7.739  48.809  1.00  0.00     0.060 A 
HETATM   26  C3  UNL     1      30.932   8.969  48.907  1.00  0.00     0.036 A 
HETATM   27  C4  UNL     1      30.159   9.728  47.921  1.00  0.00     0.036 A 
HETATM   28  C5  UNL     1      29.289   8.966  47.285  1.00  0.00     0.060 A 
BRANCH  25  29
HETATM   29  O1  UNL     1      30.805   6.570  49.482  1.00  0.00    -0.359 OA
HETATM   30  C1  UNL     1      31.678   5.689  48.788  1.00  0.00     0.209 C 
ENDBRANCH  25  29
BRANCH  28  31
HETATM   31  O2  UNL     1      28.361   9.238  46.290  1.00  0.00    -0.359 OA
HETATM   32  C6  UNL     1      28.440   8.541  45.052  1.00  0.00     0.209 C 
ENDBRANCH  28  31
ENDBRANCH   1  24
TORSDOF 6
ENDMDL
