MODEL 1
REMARK VINA RESULT:      -9.3      0.000      0.000
REMARK  0 active torsions:
REMARK  status: ('A' for Active; 'I' for Inactive)
ROOT
HETATM    1  O1  UNL     1      24.887   2.783  50.072  1.00  0.00    -0.272 OA
HETATM    2  C1  UNL     1      23.706   2.823  49.770  1.00  0.00     0.231 C 
HETATM    3  C2  UNL     1      22.652   2.190  48.826  1.00  0.00     0.183 C 
HETATM    4  C3  UNL     1      21.842   1.434  49.808  1.00  0.00    -0.159 C 
HETATM    5  C4  UNL     1      21.222   0.852  50.589  1.00  0.00     0.061 A 
HETATM    6  C5  UNL     1      20.493   0.163  51.547  1.00  0.00     0.043 A 
HETATM    7  C6  UNL     1      21.060   1.088  52.322  1.00  0.00     0.138 A 
HETATM    8  N1  UNL     1      21.885   2.199  52.539  1.00  0.00    -0.267 NA
HETATM    9  C7  UNL     1      23.156   2.149  52.698  1.00  0.00     0.135 A 
HETATM   10  N2  UNL     1      23.637   0.808  52.625  1.00  0.00    -0.215 NA
HETATM   11  C8  UNL     1      24.882   0.513  52.797  1.00  0.00     0.137 A 
HETATM   12  N3  UNL     1      25.351  -0.829  52.723  1.00  0.00    -0.370 N 
HETATM   13  C9  UNL     1      26.736  -1.220  52.923  1.00  0.00     0.150 A 
HETATM   14  C10 UNL     1      27.606  -0.045  53.186  1.00  0.00     0.017 A 
HETATM   15  C11 UNL     1      27.316   1.238  53.273  1.00  0.00     0.045 A 
HETATM   16 CL1  UNL     1      28.481   2.504  53.594  1.00  0.00    -0.084 Cl
HETATM   17  C12 UNL     1      25.895   1.524  53.069  1.00  0.00     0.028 A 
HETATM   18  C13 UNL     1      25.449   2.763  53.125  1.00  0.00     0.006 A 
HETATM   19  C14 UNL     1      24.073   3.282  52.954  1.00  0.00     0.133 A 
HETATM   20  C15 UNL     1      24.139   4.321  51.852  1.00  0.00     0.339 C 
HETATM   21  N4  UNL     1      23.675   5.552  52.396  1.00  0.00     0.107 N 
HETATM   22  C16 UNL     1      23.128   6.358  51.329  1.00  0.00     0.274 C 
HETATM   23  C17 UNL     1      21.774   5.688  51.023  1.00  0.00     0.050 C 
HETATM   24  C18 UNL     1      22.102   4.404  50.287  1.00  0.00     0.130 C 
HETATM   25  N5  UNL     1      23.352   3.841  50.699  1.00  0.00    -0.320 N 
HETATM   26  H5  UNL     1      24.705  -1.614  52.515  1.00  0.00     0.161 HD
HETATM   27  H12 UNL     1      22.999   5.451  53.183  1.00  0.00     0.318 HD
ENDROOT
TORSDOF 0
ENDMDL
MODEL 2
REMARK VINA RESULT:      -8.5      2.888      5.184
REMARK  0 active torsions:
REMARK  status: ('A' for Active; 'I' for Inactive)
ROOT
HETATM    1  O1  UNL     1      21.178   3.850  51.834  1.00  0.00    -0.272 OA
HETATM    2  C1  UNL     1      22.334   4.195  52.008  1.00  0.00     0.231 C 
HETATM    3  C2  UNL     1      23.319   4.709  53.090  1.00  0.00     0.183 C 
HETATM    4  C3  UNL     1      24.196   3.523  53.228  1.00  0.00    -0.159 C 
HETATM    5  C4  UNL     1      24.869   2.590  53.321  1.00  0.00     0.061 A 
HETATM    6  C5  UNL     1      25.664   1.457  53.413  1.00  0.00     0.043 A 
HETATM    7  C6  UNL     1      25.153   1.272  52.195  1.00  0.00     0.138 A 
HETATM    8  N1  UNL     1      24.347   1.642  51.111  1.00  0.00    -0.267 NA
HETATM    9  C7  UNL     1      23.089   1.405  51.019  1.00  0.00     0.135 A 
HETATM   10  N2  UNL     1      22.604   0.714  52.168  1.00  0.00    -0.215 NA
HETATM   11  C8  UNL     1      21.375   0.337  52.276  1.00  0.00     0.137 A 
HETATM   12  N3  UNL     1      20.901  -0.354  53.428  1.00  0.00    -0.370 N 
HETATM   13  C9  UNL     1      19.533  -0.815  53.595  1.00  0.00     0.150 A 
HETATM   14  C10 UNL     1      18.684  -0.453  52.432  1.00  0.00     0.017 A 
HETATM   15  C11 UNL     1      18.980   0.185  51.316  1.00  0.00     0.045 A 
HETATM   16 CL1  UNL     1      17.841   0.530  50.033  1.00  0.00    -0.084 Cl
HETATM   17  C12 UNL     1      20.383   0.595  51.240  1.00  0.00     0.028 A 
HETATM   18  C13 UNL     1      20.833   1.243  50.184  1.00  0.00     0.006 A 
HETATM   19  C14 UNL     1      22.193   1.749  49.892  1.00  0.00     0.133 A 
HETATM   20  C15 UNL     1      22.050   3.231  49.608  1.00  0.00     0.339 C 
HETATM   21  N4  UNL     1      22.552   3.467  48.297  1.00  0.00     0.107 N 
HETATM   22  C16 UNL     1      23.022   4.830  48.215  1.00  0.00     0.274 C 
HETATM   23  C17 UNL     1      24.351   4.805  48.996  1.00  0.00     0.050 C 
HETATM   24  C18 UNL     1      23.972   4.710  50.460  1.00  0.00     0.130 C 
HETATM   25  N5  UNL     1      22.753   3.986  50.665  1.00  0.00    -0.320 N 
HETATM   26  H5  UNL     1      21.530  -0.565  54.225  1.00  0.00     0.161 HD
HETATM   27  H12 UNL     1      23.281   2.791  47.984  1.00  0.00     0.318 HD
ENDROOT
TORSDOF 0
ENDMDL
MODEL 3
REMARK VINA RESULT:      -8.5      1.833      2.368
REMARK  0 active torsions:
REMARK  status: ('A' for Active; 'I' for Inactive)
ROOT
HETATM    1  O1  UNL     1      24.215   3.267  49.903  1.00  0.00    -0.272 OA
HETATM    2  C1  UNL     1      23.301   3.875  49.373  1.00  0.00     0.231 C 
HETATM    3  C2  UNL     1      22.248   3.778  48.239  1.00  0.00     0.183 C 
HETATM    4  C3  UNL     1      21.010   3.653  49.042  1.00  0.00    -0.159 C 
HETATM    5  C4  UNL     1      20.056   3.557  49.687  1.00  0.00     0.061 A 
HETATM    6  C5  UNL     1      18.925   3.446  50.482  1.00  0.00     0.043 A 
HETATM    7  C6  UNL     1      19.754   4.024  51.352  1.00  0.00     0.138 A 
HETATM    8  N1  UNL     1      20.988   4.571  51.726  1.00  0.00    -0.267 NA
HETATM    9  C7  UNL     1      21.996   3.892  52.135  1.00  0.00     0.135 A 
HETATM   10  N2  UNL     1      21.708   2.496  52.161  1.00  0.00    -0.215 NA
HETATM   11  C8  UNL     1      22.564   1.624  52.577  1.00  0.00     0.137 A 
HETATM   12  N3  UNL     1      22.265   0.233  52.600  1.00  0.00    -0.370 N 
HETATM   13  C9  UNL     1      23.184  -0.790  53.072  1.00  0.00     0.150 A 
HETATM   14  C10 UNL     1      24.481  -0.208  53.500  1.00  0.00     0.017 A 
HETATM   15  C11 UNL     1      24.897   1.043  53.525  1.00  0.00     0.045 A 
HETATM   16 CL1  UNL     1      26.479   1.557  54.069  1.00  0.00    -0.084 Cl
HETATM   17  C12 UNL     1      23.894   1.994  53.042  1.00  0.00     0.028 A 
HETATM   18  C13 UNL     1      24.161   3.284  53.007  1.00  0.00     0.006 A 
HETATM   19  C14 UNL     1      23.313   4.415  52.565  1.00  0.00     0.133 A 
HETATM   20  C15 UNL     1      24.098   5.149  51.497  1.00  0.00     0.339 C 
HETATM   21  N4  UNL     1      24.263   6.494  51.935  1.00  0.00     0.107 N 
HETATM   22  C16 UNL     1      24.408   7.348  50.779  1.00  0.00     0.274 C 
HETATM   23  C17 UNL     1      22.978   7.439  50.212  1.00  0.00     0.050 C 
HETATM   24  C18 UNL     1      22.702   6.100  49.558  1.00  0.00     0.130 C 
HETATM   25  N5  UNL     1      23.382   5.022  50.211  1.00  0.00    -0.320 N 
HETATM   26  H5  UNL     1      21.350  -0.127  52.270  1.00  0.00     0.161 HD
HETATM   27  H12 UNL     1      23.514   6.837  52.573  1.00  0.00     0.318 HD
ENDROOT
TORSDOF 0
ENDMDL
MODEL 4
REMARK VINA RESULT:      -8.2      2.287      4.100
REMARK  0 active torsions:
REMARK  status: ('A' for Active; 'I' for Inactive)
ROOT
HETATM    1  O1  UNL     1      23.503   4.160  53.011  1.00  0.00    -0.272 OA
HETATM    2  C1  UNL     1      23.426   5.020  52.149  1.00  0.00     0.231 C 
HETATM    3  C2  UNL     1      23.839   6.477  51.820  1.00  0.00     0.183 C 
HETATM    4  C3  UNL     1      24.839   6.232  50.755  1.00  0.00    -0.159 C 
HETATM    5  C4  UNL     1      25.614   6.019  49.926  1.00  0.00     0.061 A 
HETATM    6  C5  UNL     1      26.539   5.739  48.932  1.00  0.00     0.043 A 
HETATM    7  C6  UNL     1      25.816   4.619  48.886  1.00  0.00     0.138 A 
HETATM    8  N1  UNL     1      24.768   3.792  49.309  1.00  0.00    -0.267 NA
HETATM    9  C7  UNL     1      24.817   3.006  50.321  1.00  0.00     0.135 A 
HETATM   10  N2  UNL     1      26.083   3.076  50.974  1.00  0.00    -0.215 NA
HETATM   11  C8  UNL     1      26.372   2.341  51.995  1.00  0.00     0.137 A 
HETATM   12  N3  UNL     1      27.640   2.419  52.638  1.00  0.00    -0.370 N 
HETATM   13  C9  UNL     1      28.025   1.605  53.779  1.00  0.00     0.150 A 
HETATM   14  C10 UNL     1      26.925   0.704  54.208  1.00  0.00     0.017 A 
HETATM   15  C11 UNL     1      25.712   0.534  53.720  1.00  0.00     0.045 A 
HETATM   16 CL1  UNL     1      24.529  -0.587  54.357  1.00  0.00    -0.084 Cl
HETATM   17  C12 UNL     1      25.429   1.390  52.567  1.00  0.00     0.028 A 
HETATM   18  C13 UNL     1      24.257   1.335  51.967  1.00  0.00     0.006 A 
HETATM   19  C14 UNL     1      23.753   2.095  50.800  1.00  0.00     0.133 A 
HETATM   20  C15 UNL     1      22.473   2.773  51.247  1.00  0.00     0.339 C 
HETATM   21  N4  UNL     1      21.429   2.325  50.390  1.00  0.00     0.107 N 
HETATM   22  C16 UNL     1      20.403   3.339  50.333  1.00  0.00     0.274 C 
HETATM   23  C17 UNL     1      21.019   4.430  49.435  1.00  0.00     0.050 C 
HETATM   24  C18 UNL     1      22.071   5.121  50.280  1.00  0.00     0.130 C 
HETATM   25  N5  UNL     1      22.680   4.235  51.227  1.00  0.00    -0.320 N 
HETATM   26  H5  UNL     1      28.369   3.081  52.313  1.00  0.00     0.161 HD
HETATM   27  H12 UNL     1      21.742   2.043  49.436  1.00  0.00     0.318 HD
ENDROOT
TORSDOF 0
ENDMDL
MODEL 5
REMARK VINA RESULT:      -8.1      3.367      4.954
REMARK  0 active torsions:
REMARK  status: ('A' for Active; 'I' for Inactive)
ROOT
HETATM    1  O1  UNL     1      20.228   3.181  52.552  1.00  0.00    -0.272 OA
HETATM    2  C1  UNL     1      20.844   3.975  51.860  1.00  0.00     0.231 C 
HETATM    3  C2  UNL     1      21.849   5.154  51.932  1.00  0.00     0.183 C 
HETATM    4  C3  UNL     1      23.049   4.509  51.349  1.00  0.00    -0.159 C 
HETATM    5  C4  UNL     1      23.972   3.989  50.892  1.00  0.00     0.061 A 
HETATM    6  C5  UNL     1      25.068   3.343  50.338  1.00  0.00     0.043 A 
HETATM    7  C6  UNL     1      24.088   2.582  49.846  1.00  0.00     0.138 A 
HETATM    8  N1  UNL     1      22.742   2.233  49.684  1.00  0.00    -0.267 NA
HETATM    9  C7  UNL     1      22.064   1.522  50.510  1.00  0.00     0.135 A 
HETATM   10  N2  UNL     1      22.856   1.127  51.628  1.00  0.00    -0.215 NA
HETATM   11  C8  UNL     1      22.393   0.372  52.567  1.00  0.00     0.137 A 
HETATM   12  N3  UNL     1      23.193  -0.017  53.678  1.00  0.00    -0.370 N 
HETATM   13  C9  UNL     1      22.729  -0.877  54.755  1.00  0.00     0.150 A 
HETATM   14  C10 UNL     1      21.310  -1.275  54.567  1.00  0.00     0.017 A 
HETATM   15  C11 UNL     1      20.455  -0.987  53.605  1.00  0.00     0.045 A 
HETATM   16 CL1  UNL     1      18.799  -1.549  53.541  1.00  0.00    -0.084 Cl
HETATM   17  C12 UNL     1      21.024  -0.127  52.566  1.00  0.00     0.028 A 
HETATM   18  C13 UNL     1      20.292   0.248  51.536  1.00  0.00     0.006 A 
HETATM   19  C14 UNL     1      20.651   1.102  50.380  1.00  0.00     0.133 A 
HETATM   20  C15 UNL     1      19.641   2.232  50.350  1.00  0.00     0.339 C 
HETATM   21  N4  UNL     1      18.986   2.186  49.087  1.00  0.00     0.107 N 
HETATM   22  C16 UNL     1      18.523   3.513  48.752  1.00  0.00     0.274 C 
HETATM   23  C17 UNL     1      19.810   4.255  48.344  1.00  0.00     0.050 C 
HETATM   24  C18 UNL     1      20.564   4.521  49.632  1.00  0.00     0.130 C 
HETATM   25  N5  UNL     1      20.343   3.503  50.615  1.00  0.00    -0.320 N 
HETATM   26  H5  UNL     1      24.174   0.306  53.775  1.00  0.00     0.161 HD
HETATM   27  H12 UNL     1      19.555   1.774  48.317  1.00  0.00     0.318 HD
ENDROOT
TORSDOF 0
ENDMDL
MODEL 6
REMARK VINA RESULT:      -7.8      3.000      4.822
REMARK  0 active torsions:
REMARK  status: ('A' for Active; 'I' for Inactive)
ROOT
HETATM    1  O1  UNL     1      20.332   3.074  52.654  1.00  0.00    -0.272 OA
HETATM    2  C1  UNL     1      19.953   3.631  51.637  1.00  0.00     0.231 C 
HETATM    3  C2  UNL     1      20.143   4.915  50.789  1.00  0.00     0.183 C 
HETATM    4  C3  UNL     1      20.825   4.346  49.603  1.00  0.00    -0.159 C 
HETATM    5  C4  UNL     1      21.354   3.883  48.688  1.00  0.00     0.061 A 
HETATM    6  C5  UNL     1      21.986   3.303  47.598  1.00  0.00     0.043 A 
HETATM    7  C6  UNL     1      21.368   2.230  48.094  1.00  0.00     0.138 A 
HETATM    8  N1  UNL     1      20.545   1.582  49.024  1.00  0.00    -0.267 NA
HETATM    9  C7  UNL     1      20.934   1.141  50.164  1.00  0.00     0.135 A 
HETATM   10  N2  UNL     1      22.322   1.394  50.374  1.00  0.00    -0.215 NA
HETATM   11  C8  UNL     1      22.939   1.001  51.438  1.00  0.00     0.137 A 
HETATM   12  N3  UNL     1      24.326   1.257  51.636  1.00  0.00    -0.370 N 
HETATM   13  C9  UNL     1      25.075   0.825  52.805  1.00  0.00     0.150 A 
HETATM   14  C10 UNL     1      24.210   0.110  53.778  1.00  0.00     0.017 A 
HETATM   15  C11 UNL     1      22.926  -0.188  53.732  1.00  0.00     0.045 A 
HETATM   16 CL1  UNL     1      22.057  -1.048  54.984  1.00  0.00    -0.084 Cl
HETATM   17  C12 UNL     1      22.268   0.279  52.511  1.00  0.00     0.028 A 
HETATM   18  C13 UNL     1      20.984   0.057  52.318  1.00  0.00     0.006 A 
HETATM   19  C14 UNL     1      20.119   0.431  51.175  1.00  0.00     0.133 A 
HETATM   20  C15 UNL     1      18.965   1.227  51.751  1.00  0.00     0.339 C 
HETATM   21  N4  UNL     1      17.762   0.550  51.402  1.00  0.00     0.107 N 
HETATM   22  C16 UNL     1      16.685   1.510  51.347  1.00  0.00     0.274 C 
HETATM   23  C17 UNL     1      16.941   2.270  50.030  1.00  0.00     0.050 C 
HETATM   24  C18 UNL     1      18.129   3.173  50.294  1.00  0.00     0.130 C 
HETATM   25  N5  UNL     1      19.043   2.611  51.242  1.00  0.00    -0.320 N 
HETATM   26  H5  UNL     1      24.883   1.781  50.935  1.00  0.00     0.161 HD
HETATM   27  H12 UNL     1      17.819  -0.012  50.527  1.00  0.00     0.318 HD
ENDROOT
TORSDOF 0
ENDMDL
MODEL 7
REMARK VINA RESULT:      -7.8      8.214      9.600
REMARK  0 active torsions:
REMARK  status: ('A' for Active; 'I' for Inactive)
ROOT
HETATM    1  O1  UNL     1      30.738   9.407  46.306  1.00  0.00    -0.272 OA
HETATM    2  C1  UNL     1      29.558   9.715  46.326  1.00  0.00     0.231 C 
HETATM    3  C2  UNL     1      28.232   9.574  45.535  1.00  0.00     0.183 C 
HETATM    4  C3  UNL     1      27.480   8.678  46.444  1.00  0.00    -0.159 C 
HETATM    5  C4  UNL     1      26.910   7.981  47.166  1.00  0.00     0.061 A 
HETATM    6  C5  UNL     1      26.245   7.144  48.050  1.00  0.00     0.043 A 
HETATM    7  C6  UNL     1      27.136   7.686  48.883  1.00  0.00     0.138 A 
HETATM    8  N1  UNL     1      28.206   8.538  49.183  1.00  0.00    -0.267 NA
HETATM    9  C7  UNL     1      29.443   8.251  49.004  1.00  0.00     0.135 A 
HETATM   10  N2  UNL     1      29.601   6.944  48.455  1.00  0.00    -0.215 NA
HETATM   11  C8  UNL     1      30.762   6.429  48.230  1.00  0.00     0.137 A 
HETATM   12  N3  UNL     1      30.908   5.122  47.682  1.00  0.00    -0.370 N 
HETATM   13  C9  UNL     1      32.189   4.486  47.423  1.00  0.00     0.150 A 
HETATM   14  C10 UNL     1      33.325   5.376  47.771  1.00  0.00     0.017 A 
HETATM   15  C11 UNL     1      33.341   6.597  48.270  1.00  0.00     0.045 A 
HETATM   16 CL1  UNL     1      34.790   7.511  48.625  1.00  0.00    -0.084 Cl
HETATM   17  C12 UNL     1      32.002   7.141  48.507  1.00  0.00     0.028 A 
HETATM   18  C13 UNL     1      31.853   8.352  49.004  1.00  0.00     0.006 A 
HETATM   19  C14 UNL     1      30.614   9.099  49.323  1.00  0.00     0.133 A 
HETATM   20  C15 UNL     1      30.692  10.407  48.563  1.00  0.00     0.339 C 
HETATM   21  N4  UNL     1      30.616  11.462  49.516  1.00  0.00     0.107 N 
HETATM   22  C16 UNL     1      30.063  12.632  48.875  1.00  0.00     0.274 C 
HETATM   23  C17 UNL     1      28.564  12.301  48.742  1.00  0.00     0.050 C 
HETATM   24  C18 UNL     1      28.460  11.277  47.629  1.00  0.00     0.130 C 
HETATM   25  N5  UNL     1      29.615  10.433  47.553  1.00  0.00    -0.320 N 
HETATM   26  H5  UNL     1      30.081   4.546  47.435  1.00  0.00     0.161 HD
HETATM   27  H12 UNL     1      30.097  11.222  50.387  1.00  0.00     0.318 HD
ENDROOT
TORSDOF 0
ENDMDL
MODEL 8
REMARK VINA RESULT:      -7.8      3.091      4.595
REMARK  0 active torsions:
REMARK  status: ('A' for Active; 'I' for Inactive)
ROOT
HETATM    1  O1  UNL     1      22.679   3.945  47.975  1.00  0.00    -0.272 OA
HETATM    2  C1  UNL     1      22.083   3.144  48.676  1.00  0.00     0.231 C 
HETATM    3  C2  UNL     1      21.917   1.626  48.947  1.00  0.00     0.183 C 
HETATM    4  C3  UNL     1      22.559   1.527  50.278  1.00  0.00    -0.159 C 
HETATM    5  C4  UNL     1      23.062   1.471  51.316  1.00  0.00     0.061 A 
HETATM    6  C5  UNL     1      23.669   1.429  52.562  1.00  0.00     0.043 A 
HETATM    7  C6  UNL     1      23.337   2.721  52.519  1.00  0.00     0.138 A 
HETATM    8  N1  UNL     1      22.770   3.843  51.902  1.00  0.00    -0.267 NA
HETATM    9  C7  UNL     1      23.366   4.586  51.043  1.00  0.00     0.135 A 
HETATM   10  N2  UNL     1      24.691   4.125  50.786  1.00  0.00    -0.215 NA
HETATM   11  C8  UNL     1      25.491   4.743  49.983  1.00  0.00     0.137 A 
HETATM   12  N3  UNL     1      26.812   4.274  49.735  1.00  0.00    -0.370 N 
HETATM   13  C9  UNL     1      27.760   4.938  48.855  1.00  0.00     0.150 A 
HETATM   14  C10 UNL     1      27.171   6.147  48.226  1.00  0.00     0.017 A 
HETATM   15  C11 UNL     1      25.975   6.689  48.353  1.00  0.00     0.045 A 
HETATM   16 CL1  UNL     1      25.443   8.136  47.526  1.00  0.00    -0.084 Cl
HETATM   17  C12 UNL     1      25.103   5.952  49.270  1.00  0.00     0.028 A 
HETATM   18  C13 UNL     1      23.875   6.370  49.502  1.00  0.00     0.006 A 
HETATM   19  C14 UNL     1      22.829   5.795  50.378  1.00  0.00     0.133 A 
HETATM   20  C15 UNL     1      21.613   5.565  49.504  1.00  0.00     0.339 C 
HETATM   21  N4  UNL     1      20.537   6.311  50.062  1.00  0.00     0.107 N 
HETATM   22  C16 UNL     1      19.291   5.676  49.703  1.00  0.00     0.274 C 
HETATM   23  C17 UNL     1      19.239   4.434  50.614  1.00  0.00     0.050 C 
HETATM   24  C18 UNL     1      20.246   3.456  50.043  1.00  0.00     0.130 C 
HETATM   25  N5  UNL     1      21.356   4.114  49.421  1.00  0.00    -0.320 N 
HETATM   26  H5  UNL     1      27.170   3.410  50.183  1.00  0.00     0.161 HD
HETATM   27  H12 UNL     1      20.604   6.466  51.090  1.00  0.00     0.318 HD
ENDROOT
TORSDOF 0
ENDMDL
MODEL 9
REMARK VINA RESULT:      -7.7      2.686      3.803
REMARK  0 active torsions:
REMARK  status: ('A' for Active; 'I' for Inactive)
ROOT
HETATM    1  O1  UNL     1      23.235   1.930  49.420  1.00  0.00    -0.272 OA
HETATM    2  C1  UNL     1      22.858   2.894  48.774  1.00  0.00     0.231 C 
HETATM    3  C2  UNL     1      21.848   3.329  47.682  1.00  0.00     0.183 C 
HETATM    4  C3  UNL     1      20.933   4.166  48.491  1.00  0.00    -0.159 C 
HETATM    5  C4  UNL     1      20.232   4.816  49.139  1.00  0.00     0.061 A 
HETATM    6  C5  UNL     1      19.406   5.594  49.937  1.00  0.00     0.043 A 
HETATM    7  C6  UNL     1      20.518   5.622  50.673  1.00  0.00     0.138 A 
HETATM    8  N1  UNL     1      21.853   5.284  50.931  1.00  0.00    -0.267 NA
HETATM    9  C7  UNL     1      22.241   4.188  51.471  1.00  0.00     0.135 A 
HETATM   10  N2  UNL     1      21.135   3.341  51.782  1.00  0.00    -0.215 NA
HETATM   11  C8  UNL     1      21.285   2.202  52.369  1.00  0.00     0.137 A 
HETATM   12  N3  UNL     1      20.174   1.366  52.675  1.00  0.00    -0.370 N 
HETATM   13  C9  UNL     1      20.283   0.082  53.349  1.00  0.00     0.150 A 
HETATM   14  C10 UNL     1      21.695  -0.262  53.652  1.00  0.00     0.017 A 
HETATM   15  C11 UNL     1      22.812   0.401  53.422  1.00  0.00     0.045 A 
HETATM   16 CL1  UNL     1      24.412  -0.160  53.852  1.00  0.00    -0.084 Cl
HETATM   17  C12 UNL     1      22.592   1.685  52.752  1.00  0.00     0.028 A 
HETATM   18  C13 UNL     1      23.612   2.465  52.455  1.00  0.00     0.006 A 
HETATM   19  C14 UNL     1      23.630   3.788  51.789  1.00  0.00     0.133 A 
HETATM   20  C15 UNL     1      24.554   3.656  50.595  1.00  0.00     0.339 C 
HETATM   21  N4  UNL     1      25.593   4.616  50.750  1.00  0.00     0.107 N 
HETATM   22  C16 UNL     1      26.096   4.976  49.444  1.00  0.00     0.274 C 
HETATM   23  C17 UNL     1      24.993   5.885  48.867  1.00  0.00     0.050 C 
HETATM   24  C18 UNL     1      23.845   4.966  48.499  1.00  0.00     0.130 C 
HETATM   25  N5  UNL     1      23.761   3.825  49.361  1.00  0.00    -0.320 N 
HETATM   26  H5  UNL     1      19.207   1.642  52.423  1.00  0.00     0.161 HD
HETATM   27  H12 UNL     1      25.326   5.459  51.302  1.00  0.00     0.318 HD
ENDROOT
TORSDOF 0
ENDMDL
