MODEL 1
REMARK VINA RESULT:      -7.2      0.000      0.000
REMARK  7 active torsions:
REMARK  status: ('A' for Active; 'I' for Inactive)
REMARK    1  A    between atoms: O1_2  and  C2_3 
REMARK    2  A    between atoms: C4_5  and  O2_6 
REMARK    3  A    between atoms: O2_6  and  C5_7 
REMARK    4  A    between atoms: C11_15  and  N3_16 
REMARK    5  A    between atoms: N3_16  and  C12_17 
REMARK    6  A    between atoms: C13_18  and  C14_19 
REMARK    7  A    between atoms: C15_20  and  C17_22 
ROOT
HETATM    1  C2  UNL     1      26.487  -1.254  52.519  1.00  0.00     0.070 A 
HETATM    2  C3  UNL     1      27.079  -0.128  52.064  1.00  0.00     0.062 A 
HETATM    3  C4  UNL     1      26.217   0.949  52.406  1.00  0.00     0.186 A 
HETATM    4  C8  UNL     1      25.039   0.362  53.054  1.00  0.00     0.085 A 
HETATM    5  C9  UNL     1      25.180  -0.967  53.155  1.00  0.00     0.067 A 
HETATM    6  N1  UNL     1      23.796   1.046  53.330  1.00  0.00    -0.242 NA
HETATM    7  C10 UNL     1      23.679   2.185  52.638  1.00  0.00     0.235 C 
HETATM    8  N2  UNL     1      24.705   2.641  51.806  1.00  0.00    -0.225 NA
HETATM    9  C11 UNL     1      25.886   2.103  51.634  1.00  0.00     0.150 C 
ENDROOT
BRANCH   9  10
HETATM   10  N3  UNL     1      26.605   2.826  50.645  1.00  0.00    -0.351 N 
HETATM   11  H14 UNL     1      27.664   2.728  50.703  1.00  0.00     0.166 HD
BRANCH  10  12
HETATM   12  C12 UNL     1      26.071   3.636  49.613  1.00  0.00     0.089 C 
HETATM   13  C13 UNL     1      26.786   4.697  49.342  1.00  0.00     0.017 C 
BRANCH  13  14
HETATM   14  C14 UNL     1      26.985   5.900  48.567  1.00  0.00     0.007 C 
HETATM   15  C15 UNL     1      27.611   6.890  47.988  1.00  0.00    -0.051 C 
HETATM   16  C16 UNL     1      26.888   7.944  47.198  1.00  0.00     0.046 C 
BRANCH  15  17
HETATM   17  C17 UNL     1      29.035   7.219  47.942  1.00  0.00     0.194 C 
HETATM   18  C18 UNL     1      29.961   6.035  47.930  1.00  0.00     0.050 C 
HETATM   19  F1  UNL     1      29.400   8.013  49.029  1.00  0.00    -0.245 F 
ENDBRANCH  15  17
ENDBRANCH  13  14
ENDBRANCH  10  12
ENDBRANCH   9  10
BRANCH   3  20
HETATM   20  O2  UNL     1      26.846   1.528  53.671  1.00  0.00    -0.357 OA
BRANCH  20  21
HETATM   21  C5  UNL     1      28.179   1.240  53.648  1.00  0.00     0.116 C 
HETATM   22  C6  UNL     1      28.640   0.512  54.907  1.00  0.00     0.039 C 
HETATM   23  C7  UNL     1      28.926   2.574  53.646  1.00  0.00     0.039 C 
ENDBRANCH  20  21
ENDBRANCH   3  20
BRANCH   1  24
HETATM   24  O1  UNL     1      27.009  -2.537  52.401  1.00  0.00    -0.356 OA
HETATM   25  C1  UNL     1      28.262  -2.836  52.975  1.00  0.00     0.210 C 
ENDBRANCH   1  24
TORSDOF 7
ENDMDL
MODEL 2
REMARK VINA RESULT:      -7.0      4.313      6.778
REMARK  7 active torsions:
REMARK  status: ('A' for Active; 'I' for Inactive)
REMARK    1  A    between atoms: O1_2  and  C2_3 
REMARK    2  A    between atoms: C4_5  and  O2_6 
REMARK    3  A    between atoms: O2_6  and  C5_7 
REMARK    4  A    between atoms: C11_15  and  N3_16 
REMARK    5  A    between atoms: N3_16  and  C12_17 
REMARK    6  A    between atoms: C13_18  and  C14_19 
REMARK    7  A    between atoms: C15_20  and  C17_22 
ROOT
HETATM    1  C2  UNL     1      19.607   0.717  51.364  1.00  0.00     0.070 A 
HETATM    2  C3  UNL     1      20.918   0.404  51.442  1.00  0.00     0.062 A 
HETATM    3  C4  UNL     1      21.563   1.514  52.051  1.00  0.00     0.186 A 
HETATM    4  C8  UNL     1      20.533   2.533  52.279  1.00  0.00     0.085 A 
HETATM    5  C9  UNL     1      19.335   2.074  51.892  1.00  0.00     0.067 A 
HETATM    6  N1  UNL     1      20.771   3.914  52.633  1.00  0.00    -0.242 NA
HETATM    7  C10 UNL     1      22.038   4.284  52.409  1.00  0.00     0.235 C 
HETATM    8  N2  UNL     1      22.991   3.374  51.944  1.00  0.00    -0.225 NA
HETATM    9  C11 UNL     1      22.830   2.092  51.733  1.00  0.00     0.150 C 
ENDROOT
BRANCH   9  10
HETATM   10  N3  UNL     1      24.018   1.540  51.186  1.00  0.00    -0.351 N 
HETATM   11  H14 UNL     1      23.872   0.939  50.319  1.00  0.00     0.166 HD
BRANCH  10  12
HETATM   12  C12 UNL     1      25.343   1.710  51.658  1.00  0.00     0.089 C 
HETATM   13  C13 UNL     1      25.923   0.599  52.033  1.00  0.00     0.017 C 
BRANCH  13  14
HETATM   14  C14 UNL     1      27.080  -0.084  52.564  1.00  0.00     0.007 C 
HETATM   15  C15 UNL     1      28.210  -0.262  53.194  1.00  0.00    -0.051 C 
HETATM   16  C16 UNL     1      28.877  -1.605  53.283  1.00  0.00     0.046 C 
BRANCH  15  17
HETATM   17  C17 UNL     1      29.056   0.687  53.918  1.00  0.00     0.194 C 
HETATM   18  C18 UNL     1      28.738   2.135  53.676  1.00  0.00     0.050 C 
HETATM   19  F1  UNL     1      30.401   0.503  53.597  1.00  0.00    -0.245 F 
ENDBRANCH  15  17
ENDBRANCH  13  14
ENDBRANCH  10  12
ENDBRANCH   9  10
BRANCH   3  20
HETATM   20  O2  UNL     1      21.718   1.088  53.510  1.00  0.00    -0.357 OA
BRANCH  20  21
HETATM   21  C5  UNL     1      21.907  -0.263  53.535  1.00  0.00     0.116 C 
HETATM   22  C6  UNL     1      20.959  -0.967  54.502  1.00  0.00     0.039 C 
HETATM   23  C7  UNL     1      23.312  -0.508  54.084  1.00  0.00     0.039 C 
ENDBRANCH  20  21
ENDBRANCH   3  20
BRANCH   1  24
HETATM   24  O1  UNL     1      18.616  -0.107  50.841  1.00  0.00    -0.356 OA
HETATM   25  C1  UNL     1      17.588  -0.583  51.680  1.00  0.00     0.210 C 
ENDBRANCH   1  24
TORSDOF 7
ENDMDL
MODEL 3
REMARK VINA RESULT:      -7.0      3.893      7.064
REMARK  7 active torsions:
REMARK  status: ('A' for Active; 'I' for Inactive)
REMARK    1  A    between atoms: O1_2  and  C2_3 
REMARK    2  A    between atoms: C4_5  and  O2_6 
REMARK    3  A    between atoms: O2_6  and  C5_7 
REMARK    4  A    between atoms: C11_15  and  N3_16 
REMARK    5  A    between atoms: N3_16  and  C12_17 
REMARK    6  A    between atoms: C13_18  and  C14_19 
REMARK    7  A    between atoms: C15_20  and  C17_22 
ROOT
HETATM    1  C2  UNL     1      22.437   2.962  48.351  1.00  0.00     0.070 A 
HETATM    2  C3  UNL     1      23.315   3.031  49.376  1.00  0.00     0.062 A 
HETATM    3  C4  UNL     1      23.779   4.374  49.419  1.00  0.00     0.186 A 
HETATM    4  C8  UNL     1      23.144   5.080  48.302  1.00  0.00     0.085 A 
HETATM    5  C9  UNL     1      22.311   4.259  47.648  1.00  0.00     0.067 A 
HETATM    6  N1  UNL     1      23.517   6.385  47.803  1.00  0.00    -0.242 NA
HETATM    7  C10 UNL     1      24.726   6.766  48.234  1.00  0.00     0.235 C 
HETATM    8  N2  UNL     1      25.468   5.975  49.115  1.00  0.00    -0.225 NA
HETATM    9  C11 UNL     1      25.100   4.850  49.675  1.00  0.00     0.150 C 
ENDROOT
BRANCH   9  10
HETATM   10  N3  UNL     1      26.172   4.321  50.442  1.00  0.00    -0.351 N 
HETATM   11  H14 UNL     1      26.530   4.964  51.210  1.00  0.00     0.166 HD
BRANCH  10  12
HETATM   12  C12 UNL     1      26.790   3.054  50.296  1.00  0.00     0.089 C 
HETATM   13  C13 UNL     1      26.526   2.216  51.265  1.00  0.00     0.017 C 
BRANCH  13  14
HETATM   14  C14 UNL     1      26.691   0.912  51.863  1.00  0.00     0.007 C 
HETATM   15  C15 UNL     1      27.178  -0.028  52.628  1.00  0.00    -0.051 C 
HETATM   16  C16 UNL     1      26.640  -1.431  52.619  1.00  0.00     0.046 C 
BRANCH  15  17
HETATM   17  C17 UNL     1      28.262   0.010  53.609  1.00  0.00     0.194 C 
HETATM   18  C18 UNL     1      29.282  -1.085  53.472  1.00  0.00     0.050 C 
HETATM   19  F1  UNL     1      27.762  -0.057  54.909  1.00  0.00    -0.245 F 
ENDBRANCH  15  17
ENDBRANCH  13  14
ENDBRANCH  10  12
ENDBRANCH   9  10
BRANCH   3  20
HETATM   20  O2  UNL     1      22.944   5.010  50.529  1.00  0.00    -0.357 OA
BRANCH  20  21
HETATM   21  C5  UNL     1      22.749   4.070  51.498  1.00  0.00     0.116 C 
HETATM   22  C6  UNL     1      21.281   3.937  51.894  1.00  0.00     0.039 C 
HETATM   23  C7  UNL     1      23.470   4.563  52.753  1.00  0.00     0.039 C 
ENDBRANCH  20  21
ENDBRANCH   3  20
BRANCH   1  24
HETATM   24  O1  UNL     1      21.739   1.820  47.971  1.00  0.00    -0.356 OA
HETATM   25  C1  UNL     1      21.140   1.009  48.956  1.00  0.00     0.210 C 
ENDBRANCH   1  24
TORSDOF 7
ENDMDL
MODEL 4
REMARK VINA RESULT:      -6.7      3.786      6.650
REMARK  7 active torsions:
REMARK  status: ('A' for Active; 'I' for Inactive)
REMARK    1  A    between atoms: O1_2  and  C2_3 
REMARK    2  A    between atoms: C4_5  and  O2_6 
REMARK    3  A    between atoms: O2_6  and  C5_7 
REMARK    4  A    between atoms: C11_15  and  N3_16 
REMARK    5  A    between atoms: N3_16  and  C12_17 
REMARK    6  A    between atoms: C13_18  and  C14_19 
REMARK    7  A    between atoms: C15_20  and  C17_22 
ROOT
HETATM    1  C2  UNL     1      26.864   1.618  53.813  1.00  0.00     0.070 A 
HETATM    2  C3  UNL     1      25.561   1.976  53.803  1.00  0.00     0.062 A 
HETATM    3  C4  UNL     1      25.265   2.385  52.475  1.00  0.00     0.186 A 
HETATM    4  C8  UNL     1      26.514   2.290  51.711  1.00  0.00     0.085 A 
HETATM    5  C9  UNL     1      27.495   1.810  52.487  1.00  0.00     0.067 A 
HETATM    6  N1  UNL     1      26.748   2.848  50.398  1.00  0.00    -0.242 NA
HETATM    7  C10 UNL     1      25.828   3.761  50.064  1.00  0.00     0.235 C 
HETATM    8  N2  UNL     1      24.751   4.053  50.905  1.00  0.00    -0.225 NA
HETATM    9  C11 UNL     1      24.451   3.475  52.040  1.00  0.00     0.150 C 
ENDROOT
BRANCH   9  10
HETATM   10  N3  UNL     1      23.326   4.115  52.624  1.00  0.00    -0.351 N 
HETATM   11  H14 UNL     1      23.383   4.241  53.680  1.00  0.00     0.166 HD
BRANCH  10  12
HETATM   12  C12 UNL     1      22.171   4.598  51.961  1.00  0.00     0.089 C 
HETATM   13  C13 UNL     1      21.122   3.826  52.085  1.00  0.00     0.017 C 
BRANCH  13  14
HETATM   14  C14 UNL     1      19.732   3.557  51.797  1.00  0.00     0.007 C 
HETATM   15  C15 UNL     1      18.681   2.959  51.303  1.00  0.00    -0.051 C 
HETATM   16  C16 UNL     1      17.285   3.457  51.548  1.00  0.00     0.046 C 
BRANCH  15  17
HETATM   17  C17 UNL     1      18.571   1.765  50.466  1.00  0.00     0.194 C 
HETATM   18  C18 UNL     1      18.664   0.460  51.205  1.00  0.00     0.050 C 
HETATM   19  F1  UNL     1      19.561   1.750  49.483  1.00  0.00    -0.245 F 
ENDBRANCH  15  17
ENDBRANCH  13  14
ENDBRANCH  10  12
ENDBRANCH   9  10
BRANCH   3  20
HETATM   20  O2  UNL     1      24.588   1.161  51.861  1.00  0.00    -0.357 OA
BRANCH  20  21
HETATM   21  C5  UNL     1      23.599   0.760  52.710  1.00  0.00     0.116 C 
HETATM   22  C6  UNL     1      23.866  -0.619  53.307  1.00  0.00     0.039 C 
HETATM   23  C7  UNL     1      22.327   0.607  51.875  1.00  0.00     0.039 C 
ENDBRANCH  20  21
ENDBRANCH   3  20
BRANCH   1  24
HETATM   24  O1  UNL     1      27.555   1.141  54.922  1.00  0.00    -0.356 OA
HETATM   25  C1  UNL     1      28.622   0.237  54.744  1.00  0.00     0.210 C 
ENDBRANCH   1  24
TORSDOF 7
ENDMDL
MODEL 5
REMARK VINA RESULT:      -6.7      4.003      7.422
REMARK  7 active torsions:
REMARK  status: ('A' for Active; 'I' for Inactive)
REMARK    1  A    between atoms: O1_2  and  C2_3 
REMARK    2  A    between atoms: C4_5  and  O2_6 
REMARK    3  A    between atoms: O2_6  and  C5_7 
REMARK    4  A    between atoms: C11_15  and  N3_16 
REMARK    5  A    between atoms: N3_16  and  C12_17 
REMARK    6  A    between atoms: C13_18  and  C14_19 
REMARK    7  A    between atoms: C15_20  and  C17_22 
ROOT
HETATM    1  C2  UNL     1      22.648   4.359  47.866  1.00  0.00     0.070 A 
HETATM    2  C3  UNL     1      23.416   3.937  48.893  1.00  0.00     0.062 A 
HETATM    3  C4  UNL     1      24.064   5.090  49.413  1.00  0.00     0.186 A 
HETATM    4  C8  UNL     1      23.656   6.222  48.575  1.00  0.00     0.085 A 
HETATM    5  C9  UNL     1      22.784   5.817  47.642  1.00  0.00     0.067 A 
HETATM    6  N1  UNL     1      24.264   7.534  48.568  1.00  0.00    -0.242 NA
HETATM    7  C10 UNL     1      25.465   7.539  49.159  1.00  0.00     0.235 C 
HETATM    8  N2  UNL     1      25.990   6.388  49.753  1.00  0.00    -0.225 NA
HETATM    9  C11 UNL     1      25.407   5.223  49.879  1.00  0.00     0.150 C 
ENDROOT
BRANCH   9  10
HETATM   10  N3  UNL     1      26.306   4.296  50.469  1.00  0.00    -0.351 N 
HETATM   11  H14 UNL     1      26.941   4.706  51.218  1.00  0.00     0.166 HD
BRANCH  10  12
HETATM   12  C12 UNL     1      26.435   2.916  50.174  1.00  0.00     0.089 C 
HETATM   13  C13 UNL     1      26.552   2.153  51.231  1.00  0.00     0.017 C 
BRANCH  13  14
HETATM   14  C14 UNL     1      26.707   0.837  51.805  1.00  0.00     0.007 C 
HETATM   15  C15 UNL     1      27.194  -0.122  52.546  1.00  0.00    -0.051 C 
HETATM   16  C16 UNL     1      26.633  -1.516  52.527  1.00  0.00     0.046 C 
BRANCH  15  17
HETATM   17  C17 UNL     1      28.298  -0.117  53.505  1.00  0.00     0.194 C 
HETATM   18  C18 UNL     1      28.955   1.220  53.712  1.00  0.00     0.050 C 
HETATM   19  F1  UNL     1      29.299  -1.009  53.120  1.00  0.00    -0.245 F 
ENDBRANCH  15  17
ENDBRANCH  13  14
ENDBRANCH  10  12
ENDBRANCH   9  10
BRANCH   3  20
HETATM   20  O2  UNL     1      23.221   5.460  50.633  1.00  0.00    -0.357 OA
BRANCH  20  21
HETATM   21  C5  UNL     1      22.815   4.302  51.229  1.00  0.00     0.116 C 
HETATM   22  C6  UNL     1      21.315   4.281  51.502  1.00  0.00     0.039 C 
HETATM   23  C7  UNL     1      23.484   4.247  52.603  1.00  0.00     0.039 C 
ENDBRANCH  20  21
ENDBRANCH   3  20
BRANCH   1  24
HETATM   24  O1  UNL     1      21.833   3.543  47.087  1.00  0.00    -0.356 OA
HETATM   25  C1  UNL     1      21.815   3.708  45.687  1.00  0.00     0.210 C 
ENDBRANCH   1  24
TORSDOF 7
ENDMDL
MODEL 6
REMARK VINA RESULT:      -6.5      4.108      7.730
REMARK  7 active torsions:
REMARK  status: ('A' for Active; 'I' for Inactive)
REMARK    1  A    between atoms: O1_2  and  C2_3 
REMARK    2  A    between atoms: C4_5  and  O2_6 
REMARK    3  A    between atoms: O2_6  and  C5_7 
REMARK    4  A    between atoms: C11_15  and  N3_16 
REMARK    5  A    between atoms: N3_16  and  C12_17 
REMARK    6  A    between atoms: C13_18  and  C14_19 
REMARK    7  A    between atoms: C15_20  and  C17_22 
ROOT
HETATM    1  C2  UNL     1      22.169   6.442  50.371  1.00  0.00     0.070 A 
HETATM    2  C3  UNL     1      23.401   5.985  50.681  1.00  0.00     0.062 A 
HETATM    3  C4  UNL     1      23.505   4.686  50.112  1.00  0.00     0.186 A 
HETATM    4  C8  UNL     1      22.212   4.392  49.485  1.00  0.00     0.085 A 
HETATM    5  C9  UNL     1      21.388   5.442  49.607  1.00  0.00     0.067 A 
HETATM    6  N1  UNL     1      21.773   3.096  49.017  1.00  0.00    -0.242 NA
HETATM    7  C10 UNL     1      22.520   2.100  49.509  1.00  0.00     0.235 C 
HETATM    8  N2  UNL     1      23.623   2.352  50.328  1.00  0.00    -0.225 NA
HETATM    9  C11 UNL     1      24.112   3.518  50.665  1.00  0.00     0.150 C 
ENDROOT
BRANCH   9  10
HETATM   10  N3  UNL     1      25.189   3.345  51.574  1.00  0.00    -0.351 N 
HETATM   11  H14 UNL     1      25.117   3.920  52.466  1.00  0.00     0.166 HD
BRANCH  10  12
HETATM   12  C12 UNL     1      26.317   2.500  51.420  1.00  0.00     0.089 C 
HETATM   13  C13 UNL     1      26.182   1.323  51.976  1.00  0.00     0.017 C 
BRANCH  13  14
HETATM   14  C14 UNL     1      26.726   0.020  52.279  1.00  0.00     0.007 C 
HETATM   15  C15 UNL     1      27.523  -0.883  52.784  1.00  0.00    -0.051 C 
HETATM   16  C16 UNL     1      27.321  -2.354  52.551  1.00  0.00     0.046 C 
BRANCH  15  17
HETATM   17  C17 UNL     1      28.706  -0.741  53.633  1.00  0.00     0.194 C 
HETATM   18  C18 UNL     1      29.271   0.650  53.708  1.00  0.00     0.050 C 
HETATM   19  F1  UNL     1      29.734  -1.578  53.200  1.00  0.00    -0.245 F 
ENDBRANCH  15  17
ENDBRANCH  13  14
ENDBRANCH  10  12
ENDBRANCH   9  10
BRANCH   3  20
HETATM   20  O2  UNL     1      24.282   4.919  48.818  1.00  0.00    -0.357 OA
BRANCH  20  21
HETATM   21  C5  UNL     1      25.192   5.908  49.047  1.00  0.00     0.116 C 
HETATM   22  C6  UNL     1      25.116   7.023  48.009  1.00  0.00     0.039 C 
HETATM   23  C7  UNL     1      26.580   5.286  48.881  1.00  0.00     0.039 C 
ENDBRANCH  20  21
ENDBRANCH   3  20
BRANCH   1  24
HETATM   24  O1  UNL     1      21.664   7.688  50.728  1.00  0.00    -0.356 OA
HETATM   25  C1  UNL     1      21.065   8.506  49.748  1.00  0.00     0.210 C 
ENDBRANCH   1  24
TORSDOF 7
ENDMDL
MODEL 7
REMARK VINA RESULT:      -6.5      3.402      6.931
REMARK  7 active torsions:
REMARK  status: ('A' for Active; 'I' for Inactive)
REMARK    1  A    between atoms: O1_2  and  C2_3 
REMARK    2  A    between atoms: C4_5  and  O2_6 
REMARK    3  A    between atoms: O2_6  and  C5_7 
REMARK    4  A    between atoms: C11_15  and  N3_16 
REMARK    5  A    between atoms: N3_16  and  C12_17 
REMARK    6  A    between atoms: C13_18  and  C14_19 
REMARK    7  A    between atoms: C15_20  and  C17_22 
ROOT
HETATM    1  C2  UNL     1      25.838   4.254  49.496  1.00  0.00     0.070 A 
HETATM    2  C3  UNL     1      25.178   3.128  49.841  1.00  0.00     0.062 A 
HETATM    3  C4  UNL     1      24.051   3.539  50.604  1.00  0.00     0.186 A 
HETATM    4  C8  UNL     1      24.128   4.998  50.726  1.00  0.00     0.085 A 
HETATM    5  C9  UNL     1      25.187   5.464  50.050  1.00  0.00     0.067 A 
HETATM    6  N1  UNL     1      23.347   5.816  51.627  1.00  0.00    -0.242 NA
HETATM    7  C10 UNL     1      22.772   5.094  52.596  1.00  0.00     0.235 C 
HETATM    8  N2  UNL     1      22.898   3.703  52.641  1.00  0.00    -0.225 NA
HETATM    9  C11 UNL     1      23.496   2.930  51.771  1.00  0.00     0.150 C 
ENDROOT
BRANCH   9  10
HETATM   10  N3  UNL     1      23.471   1.585  52.222  1.00  0.00    -0.351 N 
HETATM   11  H14 UNL     1      22.497   1.186  52.382  1.00  0.00     0.166 HD
BRANCH  10  12
HETATM   12  C12 UNL     1      24.581   0.739  52.468  1.00  0.00     0.089 C 
HETATM   13  C13 UNL     1      25.612   1.349  52.992  1.00  0.00     0.017 C 
BRANCH  13  14
HETATM   14  C14 UNL     1      26.964   1.298  53.499  1.00  0.00     0.007 C 
HETATM   15  C15 UNL     1      28.111   0.795  53.870  1.00  0.00    -0.051 C 
HETATM   16  C16 UNL     1      29.227   1.647  54.403  1.00  0.00     0.046 C 
BRANCH  15  17
HETATM   17  C17 UNL     1      28.588  -0.588  53.870  1.00  0.00     0.194 C 
HETATM   18  C18 UNL     1      30.041  -0.758  53.525  1.00  0.00     0.050 C 
HETATM   19  F1  UNL     1      27.860  -1.367  52.971  1.00  0.00    -0.245 F 
ENDBRANCH  15  17
ENDBRANCH  13  14
ENDBRANCH  10  12
ENDBRANCH   9  10
BRANCH   3  20
HETATM   20  O2  UNL     1      22.901   3.505  49.598  1.00  0.00    -0.357 OA
BRANCH  20  21
HETATM   21  C5  UNL     1      22.857   2.256  49.053  1.00  0.00     0.116 C 
HETATM   22  C6  UNL     1      22.731   2.286  47.533  1.00  0.00     0.039 C 
HETATM   23  C7  UNL     1      21.576   1.592  49.558  1.00  0.00     0.039 C 
ENDBRANCH  20  21
ENDBRANCH   3  20
BRANCH   1  24
HETATM   24  O1  UNL     1      26.998   4.298  48.730  1.00  0.00    -0.356 OA
HETATM   25  C1  UNL     1      27.645   5.532  48.513  1.00  0.00     0.210 C 
ENDBRANCH   1  24
TORSDOF 7
ENDMDL
MODEL 8
REMARK VINA RESULT:      -6.4      2.850      5.022
REMARK  7 active torsions:
REMARK  status: ('A' for Active; 'I' for Inactive)
REMARK    1  A    between atoms: O1_2  and  C2_3 
REMARK    2  A    between atoms: C4_5  and  O2_6 
REMARK    3  A    between atoms: O2_6  and  C5_7 
REMARK    4  A    between atoms: C11_15  and  N3_16 
REMARK    5  A    between atoms: N3_16  and  C12_17 
REMARK    6  A    between atoms: C13_18  and  C14_19 
REMARK    7  A    between atoms: C15_20  and  C17_22 
ROOT
HETATM    1  C2  UNL     1      20.986   2.581  52.407  1.00  0.00     0.070 A 
HETATM    2  C3  UNL     1      21.992   3.080  51.655  1.00  0.00     0.062 A 
HETATM    3  C4  UNL     1      23.027   2.106  51.667  1.00  0.00     0.186 A 
HETATM    4  C8  UNL     1      22.572   1.012  52.532  1.00  0.00     0.085 A 
HETATM    5  C9  UNL     1      21.334   1.260  52.979  1.00  0.00     0.067 A 
HETATM    6  N1  UNL     1      23.394  -0.062  53.043  1.00  0.00    -0.242 NA
HETATM    7  C10 UNL     1      24.702   0.206  52.936  1.00  0.00     0.235 C 
HETATM    8  N2  UNL     1      25.158   1.380  52.331  1.00  0.00    -0.225 NA
HETATM    9  C11 UNL     1      24.438   2.308  51.753  1.00  0.00     0.150 C 
ENDROOT
BRANCH   9  10
HETATM   10  N3  UNL     1      25.274   3.376  51.335  1.00  0.00    -0.351 N 
HETATM   11  H14 UNL     1      25.567   4.044  52.110  1.00  0.00     0.166 HD
BRANCH  10  12
HETATM   12  C12 UNL     1      25.752   3.632  50.025  1.00  0.00     0.089 C 
HETATM   13  C13 UNL     1      26.035   4.889  49.796  1.00  0.00     0.017 C 
BRANCH  13  14
HETATM   14  C14 UNL     1      26.503   5.915  48.894  1.00  0.00     0.007 C 
HETATM   15  C15 UNL     1      27.336   6.639  48.195  1.00  0.00    -0.051 C 
HETATM   16  C16 UNL     1      26.878   7.773  47.323  1.00  0.00     0.046 C 
BRANCH  15  17
HETATM   17  C17 UNL     1      28.791   6.561  48.069  1.00  0.00     0.194 C 
HETATM   18  C18 UNL     1      29.362   7.248  46.861  1.00  0.00     0.050 C 
HETATM   19  F1  UNL     1      29.219   5.234  48.026  1.00  0.00    -0.245 F 
ENDBRANCH  15  17
ENDBRANCH  13  14
ENDBRANCH  10  12
ENDBRANCH   9  10
BRANCH   3  20
HETATM   20  O2  UNL     1      22.848   1.370  50.340  1.00  0.00    -0.357 OA
BRANCH  20  21
HETATM   21  C5  UNL     1      22.044   2.132  49.544  1.00  0.00     0.116 C 
HETATM   22  C6  UNL     1      20.879   1.338  48.961  1.00  0.00     0.039 C 
HETATM   23  C7  UNL     1      22.886   2.567  48.344  1.00  0.00     0.039 C 
ENDBRANCH  20  21
ENDBRANCH   3  20
BRANCH   1  24
HETATM   24  O1  UNL     1      19.772   3.217  52.643  1.00  0.00    -0.356 OA
HETATM   25  C1  UNL     1      18.881   3.440  51.574  1.00  0.00     0.210 C 
ENDBRANCH   1  24
TORSDOF 7
ENDMDL
MODEL 9
REMARK VINA RESULT:      -6.4      3.259      4.967
REMARK  7 active torsions:
REMARK  status: ('A' for Active; 'I' for Inactive)
REMARK    1  A    between atoms: O1_2  and  C2_3 
REMARK    2  A    between atoms: C4_5  and  O2_6 
REMARK    3  A    between atoms: O2_6  and  C5_7 
REMARK    4  A    between atoms: C11_15  and  N3_16 
REMARK    5  A    between atoms: N3_16  and  C12_17 
REMARK    6  A    between atoms: C13_18  and  C14_19 
REMARK    7  A    between atoms: C15_20  and  C17_22 
ROOT
HETATM    1  C2  UNL     1      21.503   0.322  53.214  1.00  0.00     0.070 A 
HETATM    2  C3  UNL     1      21.912   1.548  52.819  1.00  0.00     0.062 A 
HETATM    3  C4  UNL     1      23.326   1.478  52.688  1.00  0.00     0.186 A 
HETATM    4  C8  UNL     1      23.725   0.125  53.091  1.00  0.00     0.085 A 
HETATM    5  C9  UNL     1      22.644  -0.605  53.396  1.00  0.00     0.067 A 
HETATM    6  N1  UNL     1      25.075  -0.313  53.365  1.00  0.00    -0.242 NA
HETATM    7  C10 UNL     1      25.914   0.713  53.549  1.00  0.00     0.235 C 
HETATM    8  N2  UNL     1      25.486   2.037  53.416  1.00  0.00    -0.225 NA
HETATM    9  C11 UNL     1      24.302   2.456  53.050  1.00  0.00     0.150 C 
ENDROOT
BRANCH   9  10
HETATM   10  N3  UNL     1      24.250   3.873  53.117  1.00  0.00    -0.351 N 
HETATM   11  H14 UNL     1      25.042   4.323  53.666  1.00  0.00     0.166 HD
BRANCH  10  12
HETATM   12  C12 UNL     1      23.280   4.727  52.535  1.00  0.00     0.089 C 
HETATM   13  C13 UNL     1      23.782   5.670  51.780  1.00  0.00     0.017 C 
BRANCH  13  14
HETATM   14  C14 UNL     1      23.586   6.815  50.921  1.00  0.00     0.007 C 
HETATM   15  C15 UNL     1      23.870   7.888  50.234  1.00  0.00    -0.051 C 
HETATM   16  C16 UNL     1      22.831   8.636  49.446  1.00  0.00     0.046 C 
BRANCH  15  17
HETATM   17  C17 UNL     1      25.139   8.592  50.047  1.00  0.00     0.194 C 
HETATM   18  C18 UNL     1      25.472   8.934  48.623  1.00  0.00     0.050 C 
HETATM   19  F1  UNL     1      26.203   7.842  50.549  1.00  0.00    -0.245 F 
ENDBRANCH  15  17
ENDBRANCH  13  14
ENDBRANCH  10  12
ENDBRANCH   9  10
BRANCH   3  20
HETATM   20  O2  UNL     1      23.542   1.289  51.188  1.00  0.00    -0.357 OA
BRANCH  20  21
HETATM   21  C5  UNL     1      22.540   1.943  50.534  1.00  0.00     0.116 C 
HETATM   22  C6  UNL     1      21.663   0.998  49.717  1.00  0.00     0.039 C 
HETATM   23  C7  UNL     1      23.202   2.873  49.517  1.00  0.00     0.039 C 
ENDBRANCH  20  21
ENDBRANCH   3  20
BRANCH   1  24
HETATM   24  O1  UNL     1      20.181  -0.044  53.446  1.00  0.00    -0.356 OA
HETATM   25  C1  UNL     1      19.256  -0.030  52.382  1.00  0.00     0.210 C 
ENDBRANCH   1  24
TORSDOF 7
ENDMDL
