MODEL 1
REMARK VINA RESULT:     -10.0      0.000      0.000
REMARK  5 active torsions:
REMARK  status: ('A' for Active; 'I' for Inactive)
REMARK    1  A    between atoms: N1_2  and  C2_3 
REMARK    2  A    between atoms: C4_5  and  O1_6 
REMARK    3  A    between atoms: C5_8  and  C6_9 
REMARK    4  A    between atoms: C9_12  and  O2_13 
REMARK    5  A    between atoms: C13_18  and  C14_19 
ROOT
HETATM    1  C6  UNL     1      22.825   1.746  52.285  1.00  0.00    -0.015 A 
HETATM    2  C7  UNL     1      21.466   1.966  52.210  1.00  0.00     0.013 A 
HETATM    3  C8  UNL     1      20.539   1.246  52.942  1.00  0.00     0.038 A 
HETATM    4  C9  UNL     1      21.004   0.260  53.787  1.00  0.00     0.082 A 
HETATM    5  C10 UNL     1      22.362   0.049  53.856  1.00  0.00     0.082 A 
HETATM    6  C11 UNL     1      22.925  -0.913  54.669  1.00  0.00     0.190 A 
HETATM    7  O3  UNL     1      22.191  -1.640  55.392  1.00  0.00    -0.287 OA
HETATM    8  C12 UNL     1      24.291  -1.043  54.664  1.00  0.00     0.094 A 
HETATM    9  C13 UNL     1      25.164  -0.302  53.920  1.00  0.00     0.091 A 
HETATM   10  O4  UNL     1      24.589   0.592  53.166  1.00  0.00    -0.308 OA
HETATM   11  C20 UNL     1      23.312   0.747  53.142  1.00  0.00     0.100 A 
ENDROOT
BRANCH   1  12
HETATM   12  C5  UNL     1      23.761   2.580  51.455  1.00  0.00     0.052 C 
HETATM   13  P1  UNL     1      23.186   2.532  49.721  1.00  0.00    -0.090 P 
HETATM   14  C4  UNL     1      23.059   4.254  49.059  1.00  0.00     0.145 C 
HETATM   15  H10 UNL     1      21.951   1.798  49.570  1.00  0.00     0.060 HD
HETATM   16  C3  UNL     1      22.808   5.180  50.206  1.00  0.00     0.071 C 
HETATM   17  C2  UNL     1      24.026   5.072  51.122  1.00  0.00     0.223 C 
HETATM   18  C21 UNL     1      23.916   3.924  52.062  1.00  0.00     0.049 C 
BRANCH  14  19
HETATM   19  O1  UNL     1      22.084   4.361  48.074  1.00  0.00    -0.391 OA
HETATM   20  H9  UNL     1      22.456   5.023  47.413  1.00  0.00     0.210 HD
ENDBRANCH  14  19
BRANCH  17  21
HETATM   21  N1  UNL     1      24.036   6.296  51.904  1.00  0.00     0.083 N 
HETATM   22  C1  UNL     1      23.993   7.484  51.096  1.00  0.00     0.307 C 
HETATM   23  H4  UNL     1      24.892   6.257  52.502  1.00  0.00     0.315 HD
ENDBRANCH  17  21
ENDBRANCH   1  12
BRANCH   4  24
HETATM   24  O2  UNL     1      20.183  -0.549  54.589  1.00  0.00    -0.360 OA
HETATM   25  H14 UNL     1      19.194  -0.688  54.325  1.00  0.00     0.217 HD
ENDBRANCH   4  24
BRANCH   9  26
HETATM   26  C14 UNL     1      26.608  -0.380  53.859  1.00  0.00     0.020 A 
HETATM   27  C15 UNL     1      27.331   0.492  54.647  1.00  0.00     0.016 A 
HETATM   28  C16 UNL     1      28.694   0.541  54.702  1.00  0.00     0.001 A 
HETATM   29  C17 UNL     1      29.454  -0.312  53.942  1.00  0.00     0.002 A 
HETATM   30  C18 UNL     1      28.789  -1.206  53.136  1.00  0.00     0.025 A 
HETATM   31  C19 UNL     1      27.420  -1.203  53.128  1.00  0.00     0.047 A 
HETATM   32 CL1  UNL     1      26.712  -2.384  52.063  1.00  0.00    -0.083 Cl
ENDBRANCH   9  26
TORSDOF 5
ENDMDL
MODEL 2
REMARK VINA RESULT:      -9.6      3.655      6.783
REMARK  5 active torsions:
REMARK  status: ('A' for Active; 'I' for Inactive)
REMARK    1  A    between atoms: N1_2  and  C2_3 
REMARK    2  A    between atoms: C4_5  and  O1_6 
REMARK    3  A    between atoms: C5_8  and  C6_9 
REMARK    4  A    between atoms: C9_12  and  O2_13 
REMARK    5  A    between atoms: C13_18  and  C14_19 
ROOT
HETATM    1  C6  UNL     1      25.580   0.701  52.626  1.00  0.00    -0.015 A 
HETATM    2  C7  UNL     1      24.992  -0.285  53.389  1.00  0.00     0.013 A 
HETATM    3  C8  UNL     1      23.645  -0.303  53.699  1.00  0.00     0.038 A 
HETATM    4  C9  UNL     1      22.854   0.721  53.219  1.00  0.00     0.082 A 
HETATM    5  C10 UNL     1      23.450   1.701  52.458  1.00  0.00     0.082 A 
HETATM    6  C11 UNL     1      22.746   2.765  51.934  1.00  0.00     0.190 A 
HETATM    7  O3  UNL     1      21.507   2.870  52.140  1.00  0.00    -0.287 OA
HETATM    8  C12 UNL     1      23.435   3.689  51.188  1.00  0.00     0.094 A 
HETATM    9  C13 UNL     1      24.772   3.658  50.910  1.00  0.00     0.091 A 
HETATM   10  O4  UNL     1      25.396   2.637  51.426  1.00  0.00    -0.308 OA
HETATM   11  C20 UNL     1      24.787   1.749  52.130  1.00  0.00     0.100 A 
ENDROOT
BRANCH   1  12
HETATM   12  C5  UNL     1      27.053   0.639  52.335  1.00  0.00     0.052 C 
HETATM   13  P1  UNL     1      27.868   2.028  53.200  1.00  0.00    -0.090 P 
HETATM   14  C4  UNL     1      29.301   1.395  54.182  1.00  0.00     0.145 C 
HETATM   15  H10 UNL     1      26.945   2.789  54.010  1.00  0.00     0.060 HD
HETATM   16  C3  UNL     1      29.030  -0.030  54.543  1.00  0.00     0.071 C 
HETATM   17  C2  UNL     1      28.934  -0.798  53.226  1.00  0.00     0.223 C 
HETATM   18  C21 UNL     1      27.571  -0.719  52.633  1.00  0.00     0.049 C 
BRANCH  14  19
HETATM   19  O1  UNL     1      29.551   2.182  55.301  1.00  0.00    -0.391 OA
HETATM   20  H9  UNL     1      30.457   1.886  55.627  1.00  0.00     0.210 HD
ENDBRANCH  14  19
BRANCH  17  21
HETATM   21  N1  UNL     1      29.198  -2.186  53.563  1.00  0.00     0.083 N 
HETATM   22  C1  UNL     1      28.233  -3.096  53.010  1.00  0.00     0.307 C 
HETATM   23  H4  UNL     1      29.232  -2.234  54.607  1.00  0.00     0.315 HD
ENDBRANCH  17  21
ENDBRANCH   1  12
BRANCH   4  24
HETATM   24  O2  UNL     1      21.474   0.834  53.454  1.00  0.00    -0.360 OA
HETATM   25  H14 UNL     1      21.142   1.296  54.316  1.00  0.00     0.217 HD
ENDBRANCH   4  24
BRANCH   9  26
HETATM   26  C14 UNL     1      25.566   4.589  50.138  1.00  0.00     0.020 A 
HETATM   27  C15 UNL     1      26.638   4.085  49.428  1.00  0.00     0.016 A 
HETATM   28  C16 UNL     1      27.478   4.831  48.654  1.00  0.00     0.001 A 
HETATM   29  C17 UNL     1      27.295   6.186  48.534  1.00  0.00     0.002 A 
HETATM   30  C18 UNL     1      26.243   6.748  49.218  1.00  0.00     0.025 A 
HETATM   31  C19 UNL     1      25.438   5.941  49.978  1.00  0.00     0.047 A 
HETATM   32 CL1  UNL     1      24.148   6.784  50.787  1.00  0.00    -0.083 Cl
ENDBRANCH   9  26
TORSDOF 5
ENDMDL
MODEL 3
REMARK VINA RESULT:      -9.3      3.010      6.403
REMARK  5 active torsions:
REMARK  status: ('A' for Active; 'I' for Inactive)
REMARK    1  A    between atoms: N1_2  and  C2_3 
REMARK    2  A    between atoms: C4_5  and  O1_6 
REMARK    3  A    between atoms: C5_8  and  C6_9 
REMARK    4  A    between atoms: C9_12  and  O2_13 
REMARK    5  A    between atoms: C13_18  and  C14_19 
ROOT
HETATM    1  C6  UNL     1      24.342  -0.209  53.163  1.00  0.00    -0.015 A 
HETATM    2  C7  UNL     1      24.360  -0.948  54.327  1.00  0.00     0.013 A 
HETATM    3  C8  UNL     1      23.220  -1.263  55.044  1.00  0.00     0.038 A 
HETATM    4  C9  UNL     1      22.007  -0.812  54.566  1.00  0.00     0.082 A 
HETATM    5  C10 UNL     1      21.999  -0.075  53.403  1.00  0.00     0.082 A 
HETATM    6  C11 UNL     1      20.839   0.421  52.846  1.00  0.00     0.190 A 
HETATM    7  O3  UNL     1      19.727   0.205  53.399  1.00  0.00    -0.287 OA
HETATM    8  C12 UNL     1      20.940   1.144  51.683  1.00  0.00     0.094 A 
HETATM    9  C13 UNL     1      22.096   1.426  51.013  1.00  0.00     0.091 A 
HETATM   10  O4  UNL     1      23.166   0.939  51.576  1.00  0.00    -0.308 OA
HETATM   11  C20 UNL     1      23.114   0.256  52.665  1.00  0.00     0.100 A 
ENDROOT
BRANCH   1  12
HETATM   12  C5  UNL     1      25.630   0.083  52.447  1.00  0.00     0.052 C 
HETATM   13  P1  UNL     1      26.108   1.810  52.808  1.00  0.00    -0.090 P 
HETATM   14  C4  UNL     1      27.864   1.863  53.384  1.00  0.00     0.145 C 
HETATM   15  H10 UNL     1      25.208   2.447  53.741  1.00  0.00     0.060 HD
HETATM   16  C3  UNL     1      28.190   0.548  54.015  1.00  0.00     0.071 C 
HETATM   17  C2  UNL     1      28.044  -0.505  52.917  1.00  0.00     0.223 C 
HETATM   18  C21 UNL     1      26.635  -0.960  52.766  1.00  0.00     0.049 C 
BRANCH  14  19
HETATM   19  O1  UNL     1      28.096   2.930  54.245  1.00  0.00    -0.391 OA
HETATM   20  H9  UNL     1      28.991   2.736  54.662  1.00  0.00     0.210 HD
ENDBRANCH  14  19
BRANCH  17  21
HETATM   21  N1  UNL     1      28.839  -1.640  53.355  1.00  0.00     0.083 N 
HETATM   22  C1  UNL     1      30.158  -1.270  53.790  1.00  0.00     0.307 C 
HETATM   23  H4  UNL     1      28.861  -2.311  52.554  1.00  0.00     0.315 HD
ENDBRANCH  17  21
ENDBRANCH   1  12
BRANCH   4  24
HETATM   24  O2  UNL     1      20.770  -1.053  55.187  1.00  0.00    -0.360 OA
HETATM   25  H14 UNL     1      20.489  -2.024  55.397  1.00  0.00     0.217 HD
ENDBRANCH   4  24
BRANCH   9  26
HETATM   26  C14 UNL     1      22.283   2.177  49.791  1.00  0.00     0.020 A 
HETATM   27  C15 UNL     1      21.844   1.607  48.613  1.00  0.00     0.016 A 
HETATM   28  C16 UNL     1      21.946   2.188  47.382  1.00  0.00     0.001 A 
HETATM   29  C17 UNL     1      22.518   3.428  47.242  1.00  0.00     0.002 A 
HETATM   30  C18 UNL     1      22.974   4.048  48.381  1.00  0.00     0.025 A 
HETATM   31  C19 UNL     1      22.841   3.409  49.586  1.00  0.00     0.047 A 
HETATM   32 CL1  UNL     1      23.462   4.308  50.941  1.00  0.00    -0.083 Cl
ENDBRANCH   9  26
TORSDOF 5
ENDMDL
MODEL 4
REMARK VINA RESULT:      -9.1      1.844      2.190
REMARK  5 active torsions:
REMARK  status: ('A' for Active; 'I' for Inactive)
REMARK    1  A    between atoms: N1_2  and  C2_3 
REMARK    2  A    between atoms: C4_5  and  O1_6 
REMARK    3  A    between atoms: C5_8  and  C6_9 
REMARK    4  A    between atoms: C9_12  and  O2_13 
REMARK    5  A    between atoms: C13_18  and  C14_19 
ROOT
HETATM    1  C6  UNL     1      21.478   0.879  51.269  1.00  0.00    -0.015 A 
HETATM    2  C7  UNL     1      20.108   0.803  51.134  1.00  0.00     0.013 A 
HETATM    3  C8  UNL     1      19.297   0.112  52.015  1.00  0.00     0.038 A 
HETATM    4  C9  UNL     1      19.894  -0.533  53.079  1.00  0.00     0.082 A 
HETATM    5  C10 UNL     1      21.262  -0.451  53.205  1.00  0.00     0.082 A 
HETATM    6  C11 UNL     1      21.952  -1.060  54.232  1.00  0.00     0.190 A 
HETATM    7  O3  UNL     1      21.333  -1.723  55.106  1.00  0.00    -0.287 OA
HETATM    8  C12 UNL     1      23.317  -0.916  54.266  1.00  0.00     0.094 A 
HETATM    9  C13 UNL     1      24.072  -0.218  53.367  1.00  0.00     0.091 A 
HETATM   10  O4  UNL     1      23.379   0.339  52.414  1.00  0.00    -0.308 OA
HETATM   11  C20 UNL     1      22.099   0.229  52.347  1.00  0.00     0.100 A 
ENDROOT
BRANCH   1  12
HETATM   12  C5  UNL     1      22.282   1.657  50.265  1.00  0.00     0.052 C 
HETATM   13  P1  UNL     1      21.475   1.493  48.633  1.00  0.00    -0.090 P 
HETATM   14  C4  UNL     1      21.240   3.168  47.884  1.00  0.00     0.145 C 
HETATM   15  H10 UNL     1      20.239   0.749  48.702  1.00  0.00     0.060 HD
HETATM   16  C3  UNL     1      21.139   4.167  48.991  1.00  0.00     0.071 C 
HETATM   17  C2  UNL     1      22.472   4.123  49.735  1.00  0.00     0.223 C 
HETATM   18  C21 UNL     1      22.505   3.039  50.755  1.00  0.00     0.049 C 
BRANCH  14  19
HETATM   19  O1  UNL     1      20.137   3.207  47.037  1.00  0.00    -0.391 OA
HETATM   20  H9  UNL     1      19.392   3.578  47.603  1.00  0.00     0.210 HD
ENDBRANCH  14  19
BRANCH  17  21
HETATM   21  N1  UNL     1      22.576   5.396  50.427  1.00  0.00     0.083 N 
HETATM   22  C1  UNL     1      23.193   5.287  51.721  1.00  0.00     0.307 C 
HETATM   23  H4  UNL     1      21.605   5.779  50.485  1.00  0.00     0.315 HD
ENDBRANCH  17  21
ENDBRANCH   1  12
BRANCH   4  24
HETATM   24  O2  UNL     1      19.199  -1.272  54.050  1.00  0.00    -0.360 OA
HETATM   25  H14 UNL     1      19.614  -2.144  54.418  1.00  0.00     0.217 HD
ENDBRANCH   4  24
BRANCH   9  26
HETATM   26  C14 UNL     1      25.505  -0.023  53.335  1.00  0.00     0.020 A 
HETATM   27  C15 UNL     1      26.299  -1.132  53.121  1.00  0.00     0.016 A 
HETATM   28  C16 UNL     1      27.663  -1.112  53.062  1.00  0.00     0.001 A 
HETATM   29  C17 UNL     1      28.350   0.065  53.222  1.00  0.00     0.002 A 
HETATM   30  C18 UNL     1      27.614   1.205  53.438  1.00  0.00     0.025 A 
HETATM   31  C19 UNL     1      26.248   1.116  53.486  1.00  0.00     0.047 A 
HETATM   32 CL1  UNL     1      25.445   2.634  53.767  1.00  0.00    -0.083 Cl
ENDBRANCH   9  26
TORSDOF 5
ENDMDL
MODEL 5
REMARK VINA RESULT:      -9.1      2.600      5.272
REMARK  5 active torsions:
REMARK  status: ('A' for Active; 'I' for Inactive)
REMARK    1  A    between atoms: N1_2  and  C2_3 
REMARK    2  A    between atoms: C4_5  and  O1_6 
REMARK    3  A    between atoms: C5_8  and  C6_9 
REMARK    4  A    between atoms: C9_12  and  O2_13 
REMARK    5  A    between atoms: C13_18  and  C14_19 
ROOT
HETATM    1  C6  UNL     1      25.569   2.007  51.854  1.00  0.00    -0.015 A 
HETATM    2  C7  UNL     1      26.909   2.205  52.107  1.00  0.00     0.013 A 
HETATM    3  C8  UNL     1      27.608   1.513  53.080  1.00  0.00     0.038 A 
HETATM    4  C9  UNL     1      26.924   0.581  53.832  1.00  0.00     0.082 A 
HETATM    5  C10 UNL     1      25.586   0.391  53.573  1.00  0.00     0.082 A 
HETATM    6  C11 UNL     1      24.815  -0.516  54.270  1.00  0.00     0.190 A 
HETATM    7  O3  UNL     1      25.329  -1.214  55.185  1.00  0.00    -0.287 OA
HETATM    8  C12 UNL     1      23.489  -0.629  53.933  1.00  0.00     0.094 A 
HETATM    9  C13 UNL     1      22.847   0.080  52.958  1.00  0.00     0.091 A 
HETATM   10  O4  UNL     1      23.612   0.925  52.327  1.00  0.00    -0.308 OA
HETATM   11  C20 UNL     1      24.860   1.061  52.612  1.00  0.00     0.100 A 
ENDROOT
BRANCH   1  12
HETATM   12  C5  UNL     1      24.890   2.801  50.774  1.00  0.00     0.052 C 
HETATM   13  P1  UNL     1      23.747   3.988  51.566  1.00  0.00    -0.090 P 
HETATM   14  C4  UNL     1      24.050   5.685  50.897  1.00  0.00     0.145 C 
HETATM   15  H10 UNL     1      23.826   3.948  53.008  1.00  0.00     0.060 HD
HETATM   16  C3  UNL     1      25.473   5.765  50.446  1.00  0.00     0.071 C 
HETATM   17  C2  UNL     1      25.629   4.738  49.325  1.00  0.00     0.223 C 
HETATM   18  C21 UNL     1      25.903   3.374  49.854  1.00  0.00     0.049 C 
BRANCH  14  19
HETATM   19  O1  UNL     1      23.737   6.672  51.825  1.00  0.00    -0.391 OA
HETATM   20  H9  UNL     1      23.240   7.372  51.299  1.00  0.00     0.210 HD
ENDBRANCH  14  19
BRANCH  17  21
HETATM   21  N1  UNL     1      26.788   5.166  48.562  1.00  0.00     0.083 N 
HETATM   22  C1  UNL     1      26.977   6.591  48.574  1.00  0.00     0.307 C 
HETATM   23  H4  UNL     1      26.657   4.794  47.594  1.00  0.00     0.315 HD
ENDBRANCH  17  21
ENDBRANCH   1  12
BRANCH   4  24
HETATM   24  O2  UNL     1      27.501  -0.193  54.853  1.00  0.00    -0.360 OA
HETATM   25  H14 UNL     1      27.675  -1.198  54.691  1.00  0.00     0.217 HD
ENDBRANCH   4  24
BRANCH   9  26
HETATM   26  C14 UNL     1      21.461   0.019  52.547  1.00  0.00     0.020 A 
HETATM   27  C15 UNL     1      20.544  -0.473  53.454  1.00  0.00     0.016 A 
HETATM   28  C16 UNL     1      19.205  -0.593  53.218  1.00  0.00     0.001 A 
HETATM   29  C17 UNL     1      18.673  -0.214  52.011  1.00  0.00     0.002 A 
HETATM   30  C18 UNL     1      19.538   0.284  51.066  1.00  0.00     0.025 A 
HETATM   31  C19 UNL     1      20.871   0.378  51.366  1.00  0.00     0.047 A 
HETATM   32 CL1  UNL     1      21.847   1.025  50.079  1.00  0.00    -0.083 Cl
ENDBRANCH   9  26
TORSDOF 5
ENDMDL
MODEL 6
REMARK VINA RESULT:      -8.7      2.787      5.671
REMARK  5 active torsions:
REMARK  status: ('A' for Active; 'I' for Inactive)
REMARK    1  A    between atoms: N1_2  and  C2_3 
REMARK    2  A    between atoms: C4_5  and  O1_6 
REMARK    3  A    between atoms: C5_8  and  C6_9 
REMARK    4  A    between atoms: C9_12  and  O2_13 
REMARK    5  A    between atoms: C13_18  and  C14_19 
ROOT
HETATM    1  C6  UNL     1      24.045   1.003  52.488  1.00  0.00    -0.015 A 
HETATM    2  C7  UNL     1      25.297   0.950  53.061  1.00  0.00     0.013 A 
HETATM    3  C8  UNL     1      25.604   0.144  54.143  1.00  0.00     0.038 A 
HETATM    4  C9  UNL     1      24.601  -0.644  54.670  1.00  0.00     0.082 A 
HETATM    5  C10 UNL     1      23.354  -0.584  54.091  1.00  0.00     0.082 A 
HETATM    6  C11 UNL     1      22.287  -1.330  54.545  1.00  0.00     0.190 A 
HETATM    7  O3  UNL     1      22.430  -2.109  55.526  1.00  0.00    -0.287 OA
HETATM    8  C12 UNL     1      21.085  -1.198  53.896  1.00  0.00     0.094 A 
HETATM    9  C13 UNL     1      20.836  -0.384  52.828  1.00  0.00     0.091 A 
HETATM   10  O4  UNL     1      21.871   0.303  52.434  1.00  0.00    -0.308 OA
HETATM   11  C20 UNL     1      23.015   0.207  53.014  1.00  0.00     0.100 A 
ENDROOT
BRANCH   1  12
HETATM   12  C5  UNL     1      23.803   1.907  51.312  1.00  0.00     0.052 C 
HETATM   13  P1  UNL     1      22.458   3.066  51.746  1.00  0.00    -0.090 P 
HETATM   14  C4  UNL     1      22.989   4.800  51.383  1.00  0.00     0.145 C 
HETATM   15  H10 UNL     1      22.013   2.907  53.111  1.00  0.00     0.060 HD
HETATM   16  C3  UNL     1      24.479   4.864  51.478  1.00  0.00     0.071 C 
HETATM   17  C2  UNL     1      25.022   3.926  50.400  1.00  0.00     0.223 C 
HETATM   18  C21 UNL     1      25.081   2.515  50.869  1.00  0.00     0.049 C 
BRANCH  14  19
HETATM   19  O1  UNL     1      22.368   5.719  52.221  1.00  0.00    -0.391 OA
HETATM   20  H9  UNL     1      21.682   6.175  51.642  1.00  0.00     0.210 HD
ENDBRANCH  14  19
BRANCH  17  21
HETATM   21  N1  UNL     1      26.380   4.373  50.142  1.00  0.00     0.083 N 
HETATM   22  C1  UNL     1      26.477   5.260  49.015  1.00  0.00     0.307 C 
HETATM   23  H4  UNL     1      26.954   3.509  50.015  1.00  0.00     0.315 HD
ENDBRANCH  17  21
ENDBRANCH   1  12
BRANCH   4  24
HETATM   24  O2  UNL     1      24.764  -1.508  55.765  1.00  0.00    -0.360 OA
HETATM   25  H14 UNL     1      24.484  -1.192  56.708  1.00  0.00     0.217 HD
ENDBRANCH   4  24
BRANCH   9  26
HETATM   26  C14 UNL     1      19.603  -0.190  52.095  1.00  0.00     0.020 A 
HETATM   27  C15 UNL     1      19.637   0.635  50.988  1.00  0.00     0.016 A 
HETATM   28  C16 UNL     1      18.562   0.916  50.196  1.00  0.00     0.001 A 
HETATM   29  C17 UNL     1      17.333   0.371  50.469  1.00  0.00     0.002 A 
HETATM   30  C18 UNL     1      17.236  -0.460  51.560  1.00  0.00     0.025 A 
HETATM   31  C19 UNL     1      18.353  -0.701  52.314  1.00  0.00     0.047 A 
HETATM   32 CL1  UNL     1      18.086  -1.768  53.663  1.00  0.00    -0.083 Cl
ENDBRANCH   9  26
TORSDOF 5
ENDMDL
MODEL 7
REMARK VINA RESULT:      -8.4      1.911      2.310
REMARK  5 active torsions:
REMARK  status: ('A' for Active; 'I' for Inactive)
REMARK    1  A    between atoms: N1_2  and  C2_3 
REMARK    2  A    between atoms: C4_5  and  O1_6 
REMARK    3  A    between atoms: C5_8  and  C6_9 
REMARK    4  A    between atoms: C9_12  and  O2_13 
REMARK    5  A    between atoms: C13_18  and  C14_19 
ROOT
HETATM    1  C6  UNL     1      21.205   1.096  51.617  1.00  0.00    -0.015 A 
HETATM    2  C7  UNL     1      19.857   0.816  51.547  1.00  0.00     0.013 A 
HETATM    3  C8  UNL     1      19.229  -0.102  52.369  1.00  0.00     0.038 A 
HETATM    4  C9  UNL     1      19.996  -0.768  53.303  1.00  0.00     0.082 A 
HETATM    5  C10 UNL     1      21.341  -0.482  53.365  1.00  0.00     0.082 A 
HETATM    6  C11 UNL     1      22.190  -1.094  54.262  1.00  0.00     0.190 A 
HETATM    7  O3  UNL     1      21.747  -1.953  55.071  1.00  0.00    -0.287 OA
HETATM    8  C12 UNL     1      23.515  -0.737  54.242  1.00  0.00     0.094 A 
HETATM    9  C13 UNL     1      24.085   0.181  53.407  1.00  0.00     0.091 A 
HETATM   10  O4  UNL     1      23.246   0.733  52.576  1.00  0.00    -0.308 OA
HETATM   11  C20 UNL     1      21.997   0.426  52.563  1.00  0.00     0.100 A 
ENDROOT
BRANCH   1  12
HETATM   12  C5  UNL     1      21.803   2.113  50.686  1.00  0.00     0.052 C 
HETATM   13  P1  UNL     1      21.343   3.778  51.282  1.00  0.00    -0.090 P 
HETATM   14  C4  UNL     1      22.855   4.836  51.404  1.00  0.00     0.145 C 
HETATM   15  H10 UNL     1      20.607   3.734  52.524  1.00  0.00     0.060 HD
HETATM   16  C3  UNL     1      24.033   3.945  51.634  1.00  0.00     0.071 C 
HETATM   17  C2  UNL     1      24.138   3.042  50.405  1.00  0.00     0.223 C 
HETATM   18  C21 UNL     1      23.252   1.851  50.513  1.00  0.00     0.049 C 
BRANCH  14  19
HETATM   19  O1  UNL     1      22.730   5.807  52.391  1.00  0.00    -0.391 OA
HETATM   20  H9  UNL     1      22.553   6.662  51.889  1.00  0.00     0.210 HD
ENDBRANCH  14  19
BRANCH  17  21
HETATM   21  N1  UNL     1      25.515   2.579  50.377  1.00  0.00     0.083 N 
HETATM   22  C1  UNL     1      26.460   3.635  50.139  1.00  0.00     0.307 C 
HETATM   23  H4  UNL     1      25.560   1.836  49.644  1.00  0.00     0.315 HD
ENDBRANCH  17  21
ENDBRANCH   1  12
BRANCH   4  24
HETATM   24  O2  UNL     1      19.497  -1.726  54.202  1.00  0.00    -0.360 OA
HETATM   25  H14 UNL     1      18.833  -2.442  53.864  1.00  0.00     0.217 HD
ENDBRANCH   4  24
BRANCH   9  26
HETATM   26  C14 UNL     1      25.465   0.608  53.324  1.00  0.00     0.020 A 
HETATM   27  C15 UNL     1      25.770   1.883  53.760  1.00  0.00     0.016 A 
HETATM   28  C16 UNL     1      27.020   2.429  53.748  1.00  0.00     0.001 A 
HETATM   29  C17 UNL     1      28.092   1.710  53.281  1.00  0.00     0.002 A 
HETATM   30  C18 UNL     1      27.851   0.433  52.834  1.00  0.00     0.025 A 
HETATM   31  C19 UNL     1      26.572  -0.056  52.872  1.00  0.00     0.047 A 
HETATM   32 CL1  UNL     1      26.414  -1.683  52.275  1.00  0.00    -0.083 Cl
ENDBRANCH   9  26
TORSDOF 5
ENDMDL
MODEL 8
REMARK VINA RESULT:      -8.2      3.194      5.656
REMARK  5 active torsions:
REMARK  status: ('A' for Active; 'I' for Inactive)
REMARK    1  A    between atoms: N1_2  and  C2_3 
REMARK    2  A    between atoms: C4_5  and  O1_6 
REMARK    3  A    between atoms: C5_8  and  C6_9 
REMARK    4  A    between atoms: C9_12  and  O2_13 
REMARK    5  A    between atoms: C13_18  and  C14_19 
ROOT
HETATM    1  C6  UNL     1      23.716   3.033  49.846  1.00  0.00    -0.015 A 
HETATM    2  C7  UNL     1      24.769   3.757  49.329  1.00  0.00     0.013 A 
HETATM    3  C8  UNL     1      26.043   3.735  49.868  1.00  0.00     0.038 A 
HETATM    4  C9  UNL     1      26.263   2.948  50.980  1.00  0.00     0.082 A 
HETATM    5  C10 UNL     1      25.205   2.229  51.489  1.00  0.00     0.082 A 
HETATM    6  C11 UNL     1      25.324   1.416  52.596  1.00  0.00     0.190 A 
HETATM    7  O3  UNL     1      26.432   1.304  53.185  1.00  0.00    -0.287 OA
HETATM    8  C12 UNL     1      24.207   0.741  53.023  1.00  0.00     0.094 A 
HETATM    9  C13 UNL     1      22.969   0.798  52.449  1.00  0.00     0.091 A 
HETATM   10  O4  UNL     1      22.903   1.579  51.409  1.00  0.00    -0.308 OA
HETATM   11  C20 UNL     1      23.926   2.228  50.976  1.00  0.00     0.100 A 
ENDROOT
BRANCH   1  12
HETATM   12  C5  UNL     1      22.365   3.115  49.191  1.00  0.00     0.052 C 
HETATM   13  P1  UNL     1      21.547   4.650  49.753  1.00  0.00    -0.090 P 
HETATM   14  C4  UNL     1      20.932   5.599  48.291  1.00  0.00     0.145 C 
HETATM   15  H10 UNL     1      22.400   5.449  50.602  1.00  0.00     0.060 HD
HETATM   16  C3  UNL     1      21.789   5.255  47.115  1.00  0.00     0.071 C 
HETATM   17  C2  UNL     1      21.603   3.759  46.868  1.00  0.00     0.223 C 
HETATM   18  C21 UNL     1      22.501   2.938  47.725  1.00  0.00     0.049 C 
BRANCH  14  19
HETATM   19  O1  UNL     1      20.900   6.967  48.536  1.00  0.00    -0.391 OA
HETATM   20  H9  UNL     1      20.904   7.049  49.539  1.00  0.00     0.210 HD
ENDBRANCH  14  19
BRANCH  17  21
HETATM   21  N1  UNL     1      21.981   3.542  45.482  1.00  0.00     0.083 N 
HETATM   22  C1  UNL     1      21.229   4.347  44.559  1.00  0.00     0.307 C 
HETATM   23  H4  UNL     1      21.862   2.519  45.301  1.00  0.00     0.315 HD
ENDBRANCH  17  21
ENDBRANCH   1  12
BRANCH   4  24
HETATM   24  O2  UNL     1      27.500   2.829  51.635  1.00  0.00    -0.360 OA
HETATM   25  H14 UNL     1      27.839   1.893  51.914  1.00  0.00     0.217 HD
ENDBRANCH   4  24
BRANCH   9  26
HETATM   26  C14 UNL     1      21.750   0.122  52.840  1.00  0.00     0.020 A 
HETATM   27  C15 UNL     1      20.609   0.383  52.107  1.00  0.00     0.016 A 
HETATM   28  C16 UNL     1      19.387  -0.175  52.349  1.00  0.00     0.001 A 
HETATM   29  C17 UNL     1      19.218  -1.065  53.379  1.00  0.00     0.002 A 
HETATM   30  C18 UNL     1      20.319  -1.366  54.145  1.00  0.00     0.025 A 
HETATM   31  C19 UNL     1      21.517  -0.771  53.850  1.00  0.00     0.047 A 
HETATM   32 CL1  UNL     1      22.824  -1.241  54.899  1.00  0.00    -0.083 Cl
ENDBRANCH   9  26
TORSDOF 5
ENDMDL
MODEL 9
REMARK VINA RESULT:      -8.2      2.898      6.985
REMARK  5 active torsions:
REMARK  status: ('A' for Active; 'I' for Inactive)
REMARK    1  A    between atoms: N1_2  and  C2_3 
REMARK    2  A    between atoms: C4_5  and  O1_6 
REMARK    3  A    between atoms: C5_8  and  C6_9 
REMARK    4  A    between atoms: C9_12  and  O2_13 
REMARK    5  A    between atoms: C13_18  and  C14_19 
ROOT
HETATM    1  C6  UNL     1      25.400   1.735  51.961  1.00  0.00    -0.015 A 
HETATM    2  C7  UNL     1      26.498   2.414  51.479  1.00  0.00     0.013 A 
HETATM    3  C8  UNL     1      26.435   3.305  50.423  1.00  0.00     0.038 A 
HETATM    4  C9  UNL     1      25.210   3.520  49.826  1.00  0.00     0.082 A 
HETATM    5  C10 UNL     1      24.120   2.837  50.315  1.00  0.00     0.082 A 
HETATM    6  C11 UNL     1      22.854   2.981  49.786  1.00  0.00     0.190 A 
HETATM    7  O3  UNL     1      22.657   3.765  48.818  1.00  0.00    -0.287 OA
HETATM    8  C12 UNL     1      21.834   2.254  50.346  1.00  0.00     0.094 A 
HETATM    9  C13 UNL     1      21.951   1.385  51.394  1.00  0.00     0.091 A 
HETATM   10  O4  UNL     1      23.163   1.279  51.860  1.00  0.00    -0.308 OA
HETATM   11  C20 UNL     1      24.147   1.944  51.363  1.00  0.00     0.100 A 
ENDROOT
BRANCH   1  12
HETATM   12  C5  UNL     1      25.559   0.787  53.117  1.00  0.00     0.052 C 
HETATM   13  P1  UNL     1      25.628  -0.916  52.456  1.00  0.00    -0.090 P 
HETATM   14  C4  UNL     1      27.102  -1.793  53.147  1.00  0.00     0.145 C 
HETATM   15  H10 UNL     1      25.602  -0.948  51.013  1.00  0.00     0.060 HD
HETATM   16  C3  UNL     1      28.141  -0.772  53.481  1.00  0.00     0.071 C 
HETATM   17  C2  UNL     1      27.532   0.128  54.555  1.00  0.00     0.223 C 
HETATM   18  C21 UNL     1      26.699   1.212  53.966  1.00  0.00     0.049 C 
BRANCH  14  19
HETATM   19  O1  UNL     1      27.582  -2.766  52.277  1.00  0.00    -0.391 OA
HETATM   20  H9  UNL     1      27.090  -2.605  51.414  1.00  0.00     0.210 HD
ENDBRANCH  14  19
BRANCH  17  21
HETATM   21  N1  UNL     1      28.660   0.745  55.233  1.00  0.00     0.083 N 
HETATM   22  C1  UNL     1      29.394   1.653  54.395  1.00  0.00     0.307 C 
HETATM   23  H4  UNL     1      29.256  -0.038  55.584  1.00  0.00     0.315 HD
ENDBRANCH  17  21
ENDBRANCH   1  12
BRANCH   4  24
HETATM   24  O2  UNL     1      24.996   4.393  48.747  1.00  0.00    -0.360 OA
HETATM   25  H14 UNL     1      25.784   4.634  48.125  1.00  0.00     0.217 HD
ENDBRANCH   4  24
BRANCH   9  26
HETATM   26  C14 UNL     1      20.930   0.586  52.036  1.00  0.00     0.020 A 
HETATM   27  C15 UNL     1      19.710   0.471  51.399  1.00  0.00     0.016 A 
HETATM   28  C16 UNL     1      18.650  -0.246  51.873  1.00  0.00     0.001 A 
HETATM   29  C17 UNL     1      18.743  -0.921  53.064  1.00  0.00     0.002 A 
HETATM   30  C18 UNL     1      19.934  -0.845  53.746  1.00  0.00     0.025 A 
HETATM   31  C19 UNL     1      20.959  -0.108  53.214  1.00  0.00     0.047 A 
HETATM   32 CL1  UNL     1      22.405  -0.098  54.182  1.00  0.00    -0.083 Cl
ENDBRANCH   9  26
TORSDOF 5
ENDMDL
