MODEL 1
REMARK VINA RESULT:      -8.3      0.000      0.000
REMARK  1 active torsions:
REMARK  status: ('A' for Active; 'I' for Inactive)
REMARK    1  A    between atoms: C10_14  and  C11_15 
ROOT
HETATM    1  F1  UNL     1      29.569  -0.050  53.454  1.00  0.00    -0.206 F 
HETATM    2  C1  UNL     1      28.334   0.395  53.452  1.00  0.00     0.117 C 
HETATM    3  C2  UNL     1      27.071   0.026  53.855  1.00  0.00     0.048 C 
HETATM    4  C3  UNL     1      25.748   0.742  53.989  1.00  0.00     0.162 C 
HETATM    5  C4  UNL     1      26.227   2.219  54.109  1.00  0.00     0.093 C 
HETATM    6  C5  UNL     1      27.069   2.218  52.816  1.00  0.00     0.015 C 
HETATM    7  C6  UNL     1      28.352   1.772  52.787  1.00  0.00     0.067 C 
HETATM    8  N1  UNL     1      26.482   2.630  51.544  1.00  0.00    -0.354 N 
HETATM    9  C7  UNL     1      25.070   2.358  51.217  1.00  0.00     0.116 A 
HETATM   10  C8  UNL     1      24.341   1.344  51.898  1.00  0.00     0.196 A 
HETATM   11  N2  UNL     1      23.125   1.206  51.384  1.00  0.00    -0.216 NA
HETATM   12  C9  UNL     1      22.757   2.007  50.333  1.00  0.00     0.236 A 
HETATM   13  N3  UNL     1      23.526   2.963  49.740  1.00  0.00    -0.239 NA
HETATM   14  C10 UNL     1      24.773   3.189  50.180  1.00  0.00     0.099 A 
HETATM   15  O1  UNL     1      24.825   0.566  52.982  1.00  0.00    -0.323 OA
HETATM   16  H6  UNL     1      27.211   3.081  50.955  1.00  0.00     0.166 HD
ENDROOT
BRANCH  14  17
HETATM   17  C11 UNL     1      25.726   4.157  49.673  1.00  0.00    -0.004 A 
HETATM   18  C12 UNL     1      26.954   4.059  49.035  1.00  0.00     0.014 A 
HETATM   19  C13 UNL     1      27.640   5.177  48.649  1.00  0.00     0.002 A 
HETATM   20  C14 UNL     1      27.163   6.434  48.865  1.00  0.00     0.019 A 
HETATM   21  C15 UNL     1      25.943   6.577  49.497  1.00  0.00     0.011 A 
HETATM   22 BR1  UNL     1      25.344   8.367  49.764  1.00  0.00    -0.051 Br
HETATM   23  C16 UNL     1      25.243   5.454  49.891  1.00  0.00     0.033 A 
ENDBRANCH  14  17
TORSDOF 1
ENDMDL
MODEL 2
REMARK VINA RESULT:      -8.2      3.732      5.930
REMARK  1 active torsions:
REMARK  status: ('A' for Active; 'I' for Inactive)
REMARK    1  A    between atoms: C10_14  and  C11_15 
ROOT
HETATM    1  F1  UNL     1      28.531   0.178  55.327  1.00  0.00    -0.206 F 
HETATM    2  C1  UNL     1      27.853   0.624  54.294  1.00  0.00     0.117 C 
HETATM    3  C2  UNL     1      27.924   1.582  53.310  1.00  0.00     0.048 C 
HETATM    4  C3  UNL     1      27.168   1.849  52.031  1.00  0.00     0.162 C 
HETATM    5  C4  UNL     1      26.600   0.430  51.728  1.00  0.00     0.093 C 
HETATM    6  C5  UNL     1      25.918   0.236  53.098  1.00  0.00     0.015 C 
HETATM    7  C6  UNL     1      26.589  -0.231  54.182  1.00  0.00     0.067 C 
HETATM    8  N1  UNL     1      24.526   0.627  53.299  1.00  0.00    -0.354 N 
HETATM    9  C7  UNL     1      23.940   1.795  52.615  1.00  0.00     0.116 A 
HETATM   10  C8  UNL     1      24.766   2.823  52.082  1.00  0.00     0.196 A 
HETATM   11  N2  UNL     1      24.034   3.818  51.597  1.00  0.00    -0.216 NA
HETATM   12  C9  UNL     1      22.668   3.728  51.668  1.00  0.00     0.236 A 
HETATM   13  N3  UNL     1      21.954   2.696  52.198  1.00  0.00    -0.239 NA
HETATM   14  C10 UNL     1      22.592   1.635  52.716  1.00  0.00     0.099 A 
HETATM   15  O1  UNL     1      26.187   2.815  52.063  1.00  0.00    -0.323 OA
HETATM   16  H6  UNL     1      24.082  -0.010  53.992  1.00  0.00     0.166 HD
ENDROOT
BRANCH  14  17
HETATM   17  C11 UNL     1      22.001   0.456  53.317  1.00  0.00    -0.004 A 
HETATM   18  C12 UNL     1      22.470  -0.528  54.176  1.00  0.00     0.014 A 
HETATM   19  C13 UNL     1      21.656  -1.542  54.599  1.00  0.00     0.002 A 
HETATM   20  C14 UNL     1      20.356  -1.642  54.207  1.00  0.00     0.019 A 
HETATM   21  C15 UNL     1      19.848  -0.683  53.353  1.00  0.00     0.011 A 
HETATM   22 BR1  UNL     1      18.021  -0.894  52.851  1.00  0.00    -0.051 Br
HETATM   23  C16 UNL     1      20.662   0.345  52.920  1.00  0.00     0.033 A 
ENDBRANCH  14  17
TORSDOF 1
ENDMDL
MODEL 3
REMARK VINA RESULT:      -7.8      3.515      5.581
REMARK  1 active torsions:
REMARK  status: ('A' for Active; 'I' for Inactive)
REMARK    1  A    between atoms: C10_14  and  C11_15 
ROOT
HETATM    1  F1  UNL     1      21.583  -1.665  53.121  1.00  0.00    -0.206 F 
HETATM    2  C1  UNL     1      21.974  -0.469  52.745  1.00  0.00     0.117 C 
HETATM    3  C2  UNL     1      21.588   0.565  51.924  1.00  0.00     0.048 C 
HETATM    4  C3  UNL     1      22.025   2.000  51.747  1.00  0.00     0.162 C 
HETATM    5  C4  UNL     1      22.679   2.278  53.134  1.00  0.00     0.093 C 
HETATM    6  C5  UNL     1      23.650   1.079  53.094  1.00  0.00     0.015 C 
HETATM    7  C6  UNL     1      23.278  -0.168  53.486  1.00  0.00     0.067 C 
HETATM    8  N1  UNL     1      24.998   1.229  52.555  1.00  0.00    -0.354 N 
HETATM    9  C7  UNL     1      25.287   2.138  51.431  1.00  0.00     0.116 A 
HETATM   10  C8  UNL     1      24.254   2.576  50.556  1.00  0.00     0.196 A 
HETATM   11  N2  UNL     1      24.747   3.307  49.565  1.00  0.00    -0.216 NA
HETATM   12  C9  UNL     1      26.100   3.530  49.518  1.00  0.00     0.236 A 
HETATM   13  N3  UNL     1      27.024   3.070  50.407  1.00  0.00    -0.239 NA
HETATM   14  C10 UNL     1      26.636   2.321  51.451  1.00  0.00     0.099 A 
HETATM   15  O1  UNL     1      22.872   2.281  50.698  1.00  0.00    -0.323 OA
HETATM   16  H6  UNL     1      25.647   0.591  53.059  1.00  0.00     0.166 HD
ENDROOT
BRANCH  14  17
HETATM   17  C11 UNL     1      27.473   1.750  52.487  1.00  0.00    -0.004 A 
HETATM   18  C12 UNL     1      28.176   2.279  53.560  1.00  0.00     0.014 A 
HETATM   19  C13 UNL     1      28.889   1.473  54.404  1.00  0.00     0.002 A 
HETATM   20  C14 UNL     1      28.949   0.123  54.241  1.00  0.00     0.019 A 
HETATM   21  C15 UNL     1      28.263  -0.446  53.185  1.00  0.00     0.011 A 
HETATM   22 BR1  UNL     1      28.397  -2.341  53.025  1.00  0.00    -0.051 Br
HETATM   23  C16 UNL     1      27.541   0.360  52.328  1.00  0.00     0.033 A 
ENDBRANCH  14  17
TORSDOF 1
ENDMDL
MODEL 4
REMARK VINA RESULT:      -7.7      3.180      4.682
REMARK  1 active torsions:
REMARK  status: ('A' for Active; 'I' for Inactive)
REMARK    1  A    between atoms: C10_14  and  C11_15 
ROOT
HETATM    1  F1  UNL     1      20.040   0.794  55.015  1.00  0.00    -0.206 F 
HETATM    2  C1  UNL     1      21.169   0.230  54.653  1.00  0.00     0.117 C 
HETATM    3  C2  UNL     1      22.073  -0.711  55.088  1.00  0.00     0.048 C 
HETATM    4  C3  UNL     1      23.239  -1.435  54.457  1.00  0.00     0.162 C 
HETATM    5  C4  UNL     1      22.875  -1.311  52.947  1.00  0.00     0.093 C 
HETATM    6  C5  UNL     1      22.723   0.225  52.947  1.00  0.00     0.015 C 
HETATM    7  C6  UNL     1      21.566   0.839  53.307  1.00  0.00     0.067 C 
HETATM    8  N1  UNL     1      23.858   1.086  52.629  1.00  0.00    -0.354 N 
HETATM    9  C7  UNL     1      25.237   0.725  53.007  1.00  0.00     0.116 A 
HETATM   10  C8  UNL     1      25.490  -0.222  54.038  1.00  0.00     0.196 A 
HETATM   11  N2  UNL     1      26.792  -0.326  54.278  1.00  0.00    -0.216 NA
HETATM   12  C9  UNL     1      27.662   0.442  53.548  1.00  0.00     0.236 A 
HETATM   13  N3  UNL     1      27.328   1.329  52.569  1.00  0.00    -0.239 NA
HETATM   14  C10 UNL     1      26.040   1.514  52.242  1.00  0.00     0.099 A 
HETATM   15  O1  UNL     1      24.503  -0.967  54.736  1.00  0.00    -0.323 OA
HETATM   16  H6  UNL     1      23.518   1.948  52.155  1.00  0.00     0.166 HD
ENDROOT
BRANCH  14  17
HETATM   17  C11 UNL     1      25.505   2.409  51.235  1.00  0.00    -0.004 A 
HETATM   18  C12 UNL     1      24.223   2.728  50.811  1.00  0.00     0.014 A 
HETATM   19  C13 UNL     1      24.016   3.647  49.819  1.00  0.00     0.002 A 
HETATM   20  C14 UNL     1      25.042   4.292  49.200  1.00  0.00     0.019 A 
HETATM   21  C15 UNL     1      26.335   4.004  49.592  1.00  0.00     0.011 A 
HETATM   22 BR1  UNL     1      27.716   4.948  48.677  1.00  0.00    -0.051 Br
HETATM   23  C16 UNL     1      26.554   3.078  50.592  1.00  0.00     0.033 A 
ENDBRANCH  14  17
TORSDOF 1
ENDMDL
MODEL 5
REMARK VINA RESULT:      -7.7      4.103      6.119
REMARK  1 active torsions:
REMARK  status: ('A' for Active; 'I' for Inactive)
REMARK    1  A    between atoms: C10_14  and  C11_15 
ROOT
HETATM    1  F1  UNL     1      22.120   5.817  51.527  1.00  0.00    -0.206 F 
HETATM    2  C1  UNL     1      22.095   4.505  51.569  1.00  0.00     0.117 C 
HETATM    3  C2  UNL     1      21.202   3.460  51.613  1.00  0.00     0.048 C 
HETATM    4  C3  UNL     1      21.307   1.964  51.434  1.00  0.00     0.162 C 
HETATM    5  C4  UNL     1      22.617   1.863  50.598  1.00  0.00     0.093 C 
HETATM    6  C5  UNL     1      23.494   2.669  51.579  1.00  0.00     0.015 C 
HETATM    7  C6  UNL     1      23.548   4.026  51.555  1.00  0.00     0.067 C 
HETATM    8  N1  UNL     1      24.247   1.994  52.632  1.00  0.00    -0.354 N 
HETATM    9  C7  UNL     1      23.731   0.788  53.305  1.00  0.00     0.116 A 
HETATM   10  C8  UNL     1      22.345   0.472  53.282  1.00  0.00     0.196 A 
HETATM   11  N2  UNL     1      22.088  -0.598  54.025  1.00  0.00    -0.216 NA
HETATM   12  C9  UNL     1      23.127  -1.216  54.673  1.00  0.00     0.236 A 
HETATM   13  N3  UNL     1      24.436  -0.843  54.636  1.00  0.00    -0.239 NA
HETATM   14  C10 UNL     1      24.810   0.225  53.914  1.00  0.00     0.099 A 
HETATM   15  O1  UNL     1      21.345   1.190  52.572  1.00  0.00    -0.323 OA
HETATM   16  H6  UNL     1      25.128   2.516  52.818  1.00  0.00     0.166 HD
ENDROOT
BRANCH  14  17
HETATM   17  C11 UNL     1      26.148   0.762  53.761  1.00  0.00    -0.004 A 
HETATM   18  C12 UNL     1      26.669   2.046  53.694  1.00  0.00     0.014 A 
HETATM   19  C13 UNL     1      28.014   2.255  53.558  1.00  0.00     0.002 A 
HETATM   20  C14 UNL     1      28.905   1.229  53.481  1.00  0.00     0.019 A 
HETATM   21  C15 UNL     1      28.428  -0.066  53.544  1.00  0.00     0.011 A 
HETATM   22 BR1  UNL     1      29.738  -1.447  53.429  1.00  0.00    -0.051 Br
HETATM   23  C16 UNL     1      27.072  -0.287  53.682  1.00  0.00     0.033 A 
ENDBRANCH  14  17
TORSDOF 1
ENDMDL
MODEL 6
REMARK VINA RESULT:      -7.6      2.499      4.541
REMARK  1 active torsions:
REMARK  status: ('A' for Active; 'I' for Inactive)
REMARK    1  A    between atoms: C10_14  and  C11_15 
ROOT
HETATM    1  F1  UNL     1      25.748  -0.514  56.355  1.00  0.00    -0.206 F 
HETATM    2  C1  UNL     1      26.100  -0.198  55.130  1.00  0.00     0.117 C 
HETATM    3  C2  UNL     1      27.198   0.221  54.415  1.00  0.00     0.048 C 
HETATM    4  C3  UNL     1      27.527   0.339  52.945  1.00  0.00     0.162 C 
HETATM    5  C4  UNL     1      26.516  -0.680  52.339  1.00  0.00     0.093 C 
HETATM    6  C5  UNL     1      25.259  -0.060  52.985  1.00  0.00     0.015 C 
HETATM    7  C6  UNL     1      24.864  -0.373  54.246  1.00  0.00     0.067 C 
HETATM    8  N1  UNL     1      24.484   0.956  52.281  1.00  0.00    -0.354 N 
HETATM    9  C7  UNL     1      25.124   1.945  51.395  1.00  0.00     0.116 A 
HETATM   10  C8  UNL     1      26.511   2.238  51.503  1.00  0.00     0.196 A 
HETATM   11  N2  UNL     1      26.857   3.220  50.679  1.00  0.00    -0.216 NA
HETATM   12  C9  UNL     1      25.893   3.784  49.884  1.00  0.00     0.236 A 
HETATM   13  N3  UNL     1      24.576   3.437  49.843  1.00  0.00    -0.239 NA
HETATM   14  C10 UNL     1      24.116   2.455  50.633  1.00  0.00     0.099 A 
HETATM   15  O1  UNL     1      27.428   1.587  52.371  1.00  0.00    -0.323 OA
HETATM   16  H6  UNL     1      23.480   0.869  52.540  1.00  0.00     0.166 HD
ENDROOT
BRANCH  14  17
HETATM   17  C11 UNL     1      22.758   1.956  50.722  1.00  0.00    -0.004 A 
HETATM   18  C12 UNL     1      22.201   0.691  50.836  1.00  0.00     0.014 A 
HETATM   19  C13 UNL     1      20.846   0.521  50.916  1.00  0.00     0.002 A 
HETATM   20  C14 UNL     1      19.979   1.570  50.890  1.00  0.00     0.019 A 
HETATM   21  C15 UNL     1      20.492   2.848  50.779  1.00  0.00     0.011 A 
HETATM   22 BR1  UNL     1      19.214   4.262  50.749  1.00  0.00    -0.051 Br
HETATM   23  C16 UNL     1      21.859   3.029  50.697  1.00  0.00     0.033 A 
ENDBRANCH  14  17
TORSDOF 1
ENDMDL
MODEL 7
REMARK VINA RESULT:      -7.6      3.814      5.900
REMARK  1 active torsions:
REMARK  status: ('A' for Active; 'I' for Inactive)
REMARK    1  A    between atoms: C10_14  and  C11_15 
ROOT
HETATM    1  F1  UNL     1      26.715   2.502  49.761  1.00  0.00    -0.206 F 
HETATM    2  C1  UNL     1      26.266   2.152  50.945  1.00  0.00     0.117 C 
HETATM    3  C2  UNL     1      26.659   1.461  52.067  1.00  0.00     0.048 C 
HETATM    4  C3  UNL     1      26.116   1.317  53.470  1.00  0.00     0.162 C 
HETATM    5  C4  UNL     1      25.262   2.615  53.585  1.00  0.00     0.093 C 
HETATM    6  C5  UNL     1      24.422   2.365  52.315  1.00  0.00     0.015 C 
HETATM    7  C6  UNL     1      24.853   2.723  51.078  1.00  0.00     0.067 C 
HETATM    8  N1  UNL     1      23.149   1.654  52.392  1.00  0.00    -0.354 N 
HETATM    9  C7  UNL     1      22.927   0.562  53.356  1.00  0.00     0.116 A 
HETATM   10  C8  UNL     1      24.021  -0.131  53.945  1.00  0.00     0.196 A 
HETATM   11  N2  UNL     1      23.596  -1.133  54.706  1.00  0.00    -0.216 NA
HETATM   12  C9  UNL     1      22.247  -1.352  54.816  1.00  0.00     0.236 A 
HETATM   13  N3  UNL     1      21.261  -0.631  54.214  1.00  0.00    -0.239 NA
HETATM   14  C10 UNL     1      21.576   0.407  53.423  1.00  0.00     0.099 A 
HETATM   15  O1  UNL     1      25.394   0.182  53.758  1.00  0.00    -0.323 OA
HETATM   16  H6  UNL     1      22.501   2.022  51.664  1.00  0.00     0.166 HD
ENDROOT
BRANCH  14  17
HETATM   17  C11 UNL     1      20.666   1.278  52.706  1.00  0.00    -0.004 A 
HETATM   18  C12 UNL     1      20.546   2.655  52.582  1.00  0.00     0.014 A 
HETATM   19  C13 UNL     1      19.569   3.211  51.803  1.00  0.00     0.002 A 
HETATM   20  C14 UNL     1      18.671   2.455  51.114  1.00  0.00     0.019 A 
HETATM   21  C15 UNL     1      18.755   1.079  51.209  1.00  0.00     0.011 A 
HETATM   22 BR1  UNL     1      17.462   0.092  50.215  1.00  0.00    -0.051 Br
HETATM   23  C16 UNL     1      19.738   0.509  51.993  1.00  0.00     0.033 A 
ENDBRANCH  14  17
TORSDOF 1
ENDMDL
MODEL 8
REMARK VINA RESULT:      -7.6      2.333      3.101
REMARK  1 active torsions:
REMARK  status: ('A' for Active; 'I' for Inactive)
REMARK    1  A    between atoms: C10_14  and  C11_15 
ROOT
HETATM    1  F1  UNL     1      24.971  -1.138  54.301  1.00  0.00    -0.206 F 
HETATM    2  C1  UNL     1      23.998  -0.513  53.678  1.00  0.00     0.117 C 
HETATM    3  C2  UNL     1      22.670  -0.671  53.354  1.00  0.00     0.048 C 
HETATM    4  C3  UNL     1      21.594   0.240  52.812  1.00  0.00     0.162 C 
HETATM    5  C4  UNL     1      22.160   1.633  53.221  1.00  0.00     0.093 C 
HETATM    6  C5  UNL     1      23.537   1.447  52.550  1.00  0.00     0.015 C 
HETATM    7  C6  UNL     1      24.566   0.814  53.172  1.00  0.00     0.067 C 
HETATM    8  N1  UNL     1      23.762   1.884  51.176  1.00  0.00    -0.354 N 
HETATM    9  C7  UNL     1      22.701   1.812  50.155  1.00  0.00     0.116 A 
HETATM   10  C8  UNL     1      21.581   0.950  50.320  1.00  0.00     0.196 A 
HETATM   11  N2  UNL     1      20.801   0.972  49.246  1.00  0.00    -0.216 NA
HETATM   12  C9  UNL     1      21.156   1.771  48.189  1.00  0.00     0.236 A 
HETATM   13  N3  UNL     1      22.254   2.572  48.117  1.00  0.00    -0.239 NA
HETATM   14  C10 UNL     1      23.112   2.630  49.147  1.00  0.00     0.099 A 
HETATM   15  O1  UNL     1      21.311   0.158  51.467  1.00  0.00    -0.323 OA
HETATM   16  H6  UNL     1      24.750   2.194  51.067  1.00  0.00     0.166 HD
ENDROOT
BRANCH  14  17
HETATM   17  C11 UNL     1      24.323   3.421  49.245  1.00  0.00    -0.004 A 
HETATM   18  C12 UNL     1      25.646   3.127  49.543  1.00  0.00     0.014 A 
HETATM   19  C13 UNL     1      26.602   4.104  49.547  1.00  0.00     0.002 A 
HETATM   20  C14 UNL     1      26.315   5.404  49.260  1.00  0.00     0.019 A 
HETATM   21  C15 UNL     1      25.010   5.740  48.957  1.00  0.00     0.011 A 
HETATM   22 BR1  UNL     1      24.689   7.578  48.568  1.00  0.00    -0.051 Br
HETATM   23  C16 UNL     1      24.037   4.760  48.951  1.00  0.00     0.033 A 
ENDBRANCH  14  17
TORSDOF 1
ENDMDL
MODEL 9
REMARK VINA RESULT:      -7.5      3.602      5.858
REMARK  1 active torsions:
REMARK  status: ('A' for Active; 'I' for Inactive)
REMARK    1  A    between atoms: C10_14  and  C11_15 
ROOT
HETATM    1  F1  UNL     1      24.184   6.817  50.117  1.00  0.00    -0.206 F 
HETATM    2  C1  UNL     1      23.884   5.539  50.086  1.00  0.00     0.117 C 
HETATM    3  C2  UNL     1      22.824   4.703  49.822  1.00  0.00     0.048 C 
HETATM    4  C3  UNL     1      22.672   3.215  49.608  1.00  0.00     0.162 C 
HETATM    5  C4  UNL     1      24.120   2.835  49.175  1.00  0.00     0.093 C 
HETATM    6  C5  UNL     1      24.820   3.454  50.404  1.00  0.00     0.015 C 
HETATM    7  C6  UNL     1      25.152   4.770  50.463  1.00  0.00     0.067 C 
HETATM    8  N1  UNL     1      25.085   2.650  51.593  1.00  0.00    -0.354 N 
HETATM    9  C7  UNL     1      24.165   1.585  52.032  1.00  0.00     0.116 A 
HETATM   10  C8  UNL     1      22.810   1.563  51.600  1.00  0.00     0.196 A 
HETATM   11  N2  UNL     1      22.140   0.578  52.186  1.00  0.00    -0.216 NA
HETATM   12  C9  UNL     1      22.800  -0.235  53.071  1.00  0.00     0.236 A 
HETATM   13  N3  UNL     1      24.112  -0.142  53.427  1.00  0.00    -0.239 NA
HETATM   14  C10 UNL     1      24.885   0.817  52.895  1.00  0.00     0.099 A 
HETATM   15  O1  UNL     1      22.224   2.464  50.671  1.00  0.00    -0.323 OA
HETATM   16  H6  UNL     1      25.962   2.980  52.048  1.00  0.00     0.166 HD
ENDROOT
BRANCH  14  17
HETATM   17  C11 UNL     1      26.290   1.064  53.155  1.00  0.00    -0.004 A 
HETATM   18  C12 UNL     1      27.032   2.200  53.443  1.00  0.00     0.014 A 
HETATM   19  C13 UNL     1      28.380   2.126  53.662  1.00  0.00     0.002 A 
HETATM   20  C14 UNL     1      29.061   0.948  53.610  1.00  0.00     0.019 A 
HETATM   21  C15 UNL     1      28.360  -0.208  53.328  1.00  0.00     0.011 A 
HETATM   22 BR1  UNL     1      29.384  -1.815  53.274  1.00  0.00    -0.051 Br
HETATM   23  C16 UNL     1      26.999  -0.142  53.105  1.00  0.00     0.033 A 
ENDBRANCH  14  17
TORSDOF 1
ENDMDL
