MODEL 1
REMARK VINA RESULT:      -8.5      0.000      0.000
REMARK  4 active torsions:
REMARK  status: ('A' for Active; 'I' for Inactive)
REMARK    1  A    between atoms: O1_2  and  C2_3 
REMARK    2  A    between atoms: C10_14  and  N3_15 
REMARK    3  A    between atoms: C10_14  and  C17_23 
REMARK    4  A    between atoms: N3_15  and  C11_16 
ROOT
HETATM    1  C2  UNL     1      26.390  -0.815  52.498  1.00  0.00     0.069 A 
HETATM    2  C3  UNL     1      25.088  -1.022  53.198  1.00  0.00     0.037 A 
HETATM    3  C4  UNL     1      24.525   0.288  53.435  1.00  0.00     0.012 A 
HETATM    4  C5  UNL     1      24.915   1.568  53.169  1.00  0.00    -0.021 A 
HETATM    5  C6  UNL     1      26.117   1.250  52.558  1.00  0.00    -0.014 A 
HETATM    6  C7  UNL     1      26.940   0.263  52.173  1.00  0.00     0.049 A 
HETATM    7  C8  UNL     1      26.285   2.197  51.680  1.00  0.00     0.033 A 
HETATM    8  P1  UNL     1      26.419   3.048  50.868  1.00  0.00     0.172 P 
HETATM    9  N1  UNL     1      26.737   4.762  49.167  1.00  0.00     0.000 N 
HETATM   10  C9  UNL     1      27.737   4.887  48.583  1.00  0.00     0.082 A 
HETATM   11  N2  UNL     1      26.400   5.270  48.847  1.00  0.00    -0.206 NA
HETATM   12  C10 UNL     1      25.623   4.538  49.858  1.00  0.00     0.195 A 
HETATM   13  C17 UNL     1      26.448   3.263  50.659  1.00  0.00     0.256 A 
HETATM   14  N4  UNL     1      24.801   3.595  51.705  1.00  0.00    -0.023 N 
HETATM   15  C18 UNL     1      24.534   2.971  53.160  1.00  0.00     0.280 C 
HETATM   16  H7  UNL     1      28.005   4.171  49.069  1.00  0.00     0.043 HD
HETATM   17  H14 UNL     1      23.721   4.242  51.717  1.00  0.00     0.287 HD
ENDROOT
BRANCH  12  18
HETATM   18  N3  UNL     1      24.091   5.353  49.867  1.00  0.00    -0.359 N 
HETATM   19  H9  UNL     1      23.833   6.199  50.349  1.00  0.00     0.162 HD
BRANCH  18  20
HETATM   20  C11 UNL     1      23.291   4.497  49.045  1.00  0.00     0.031 A 
HETATM   21  C12 UNL     1      22.971   5.101  47.877  1.00  0.00     0.029 A 
HETATM   22  C13 UNL     1      22.085   4.450  47.023  1.00  0.00     0.004 A 
HETATM   23  C14 UNL     1      21.484   3.208  47.263  1.00  0.00     0.019 A 
HETATM   24  C15 UNL     1      21.893   2.675  48.487  1.00  0.00     0.013 A 
HETATM   25 BR1  UNL     1      21.167   0.982  48.958  1.00  0.00    -0.051 Br
HETATM   26  C16 UNL     1      22.762   3.266  49.380  1.00  0.00     0.048 A 
ENDBRANCH  18  20
ENDBRANCH  12  18
BRANCH   1  27
HETATM   27  O1  UNL     1      26.795  -2.155  52.301  1.00  0.00    -0.356 OA
HETATM   28  C1  UNL     1      27.939  -2.712  52.809  1.00  0.00     0.210 C 
ENDBRANCH   1  27
TORSDOF 4
ENDMDL
MODEL 2
REMARK VINA RESULT:      -8.5      3.077      5.974
REMARK  4 active torsions:
REMARK  status: ('A' for Active; 'I' for Inactive)
REMARK    1  A    between atoms: O1_2  and  C2_3 
REMARK    2  A    between atoms: C10_14  and  N3_15 
REMARK    3  A    between atoms: C10_14  and  C17_23 
REMARK    4  A    between atoms: N3_15  and  C11_16 
ROOT
HETATM    1  C2  UNL     1      28.325   5.937  48.356  1.00  0.00     0.069 A 
HETATM    2  C3  UNL     1      27.454   7.149  48.357  1.00  0.00     0.037 A 
HETATM    3  C4  UNL     1      26.123   6.710  48.708  1.00  0.00     0.012 A 
HETATM    4  C5  UNL     1      25.552   5.508  49.012  1.00  0.00    -0.021 A 
HETATM    5  C6  UNL     1      26.699   4.743  48.873  1.00  0.00    -0.014 A 
HETATM    6  C7  UNL     1      28.009   4.747  48.588  1.00  0.00     0.049 A 
HETATM    7  C8  UNL     1      26.539   3.778  49.734  1.00  0.00     0.033 A 
HETATM    8  P1  UNL     1      26.398   2.917  50.534  1.00  0.00     0.172 P 
HETATM    9  N1  UNL     1      26.171   1.135  52.179  1.00  0.00     0.000 N 
HETATM   10  C9  UNL     1      26.886   0.216  52.210  1.00  0.00     0.082 A 
HETATM   11  N2  UNL     1      25.789   0.950  52.721  1.00  0.00    -0.206 NA
HETATM   12  C10 UNL     1      25.414   2.226  52.092  1.00  0.00     0.195 A 
HETATM   13  C17 UNL     1      26.361   2.702  50.742  1.00  0.00     0.256 A 
HETATM   14  N4  UNL     1      24.764   3.870  50.733  1.00  0.00    -0.023 N 
HETATM   15  C18 UNL     1      24.368   4.821  49.501  1.00  0.00     0.280 C 
HETATM   16  H7  UNL     1      27.298   0.628  51.516  1.00  0.00     0.043 HD
HETATM   17  H14 UNL     1      23.737   4.188  51.388  1.00  0.00     0.287 HD
ENDROOT
BRANCH  12  18
HETATM   18  N3  UNL     1      24.033   2.743  53.006  1.00  0.00    -0.359 N 
HETATM   19  H9  UNL     1      23.942   3.549  53.604  1.00  0.00     0.162 HD
BRANCH  18  20
HETATM   20  C11 UNL     1      23.080   1.716  52.717  1.00  0.00     0.031 A 
HETATM   21  C12 UNL     1      22.449   1.951  51.543  1.00  0.00     0.029 A 
HETATM   22  C13 UNL     1      21.397   1.113  51.184  1.00  0.00     0.004 A 
HETATM   23  C14 UNL     1      20.922   0.031  51.936  1.00  0.00     0.019 A 
HETATM   24  C15 UNL     1      21.651  -0.124  53.116  1.00  0.00     0.013 A 
HETATM   25 BR1  UNL     1      21.131  -1.559  54.249  1.00  0.00    -0.051 Br
HETATM   26  C16 UNL     1      22.699   0.670  53.534  1.00  0.00     0.048 A 
ENDBRANCH  18  20
ENDBRANCH  12  18
BRANCH   1  27
HETATM   27  O1  UNL     1      29.576   6.516  48.042  1.00  0.00    -0.356 OA
HETATM   28  C1  UNL     1      30.030   7.715  48.527  1.00  0.00     0.210 C 
ENDBRANCH   1  27
TORSDOF 4
ENDMDL
MODEL 3
REMARK VINA RESULT:      -7.8      2.508      2.942
REMARK  4 active torsions:
REMARK  status: ('A' for Active; 'I' for Inactive)
REMARK    1  A    between atoms: O1_2  and  C2_3 
REMARK    2  A    between atoms: C10_14  and  N3_15 
REMARK    3  A    between atoms: C10_14  and  C17_23 
REMARK    4  A    between atoms: N3_15  and  C11_16 
ROOT
HETATM    1  C2  UNL     1      27.025   0.235  53.135  1.00  0.00     0.069 A 
HETATM    2  C3  UNL     1      26.358  -1.094  53.010  1.00  0.00     0.037 A 
HETATM    3  C4  UNL     1      24.939  -0.869  53.170  1.00  0.00     0.012 A 
HETATM    4  C5  UNL     1      24.155   0.226  53.393  1.00  0.00    -0.021 A 
HETATM    5  C6  UNL     1      25.181   1.155  53.440  1.00  0.00    -0.014 A 
HETATM    6  C7  UNL     1      26.505   1.354  53.354  1.00  0.00     0.049 A 
HETATM    7  C8  UNL     1      24.641   2.245  52.974  1.00  0.00     0.033 A 
HETATM    8  P1  UNL     1      24.149   3.225  52.528  1.00  0.00     0.172 P 
HETATM    9  N1  UNL     1      23.197   5.265  51.598  1.00  0.00     0.000 N 
HETATM   10  C9  UNL     1      23.744   6.291  51.649  1.00  0.00     0.082 A 
HETATM   11  N2  UNL     1      22.645   5.492  51.255  1.00  0.00    -0.206 NA
HETATM   12  C10 UNL     1      22.649   4.053  51.560  1.00  0.00     0.195 A 
HETATM   13  C17 UNL     1      24.022   3.471  52.410  1.00  0.00     0.256 A 
HETATM   14  N4  UNL     1      22.669   2.031  52.500  1.00  0.00    -0.023 N 
HETATM   15  C18 UNL     1      22.800   0.750  53.459  1.00  0.00     0.280 C 
HETATM   16  H7  UNL     1      24.401   5.819  52.056  1.00  0.00     0.043 HD
HETATM   17  H14 UNL     1      21.538   1.675  52.077  1.00  0.00     0.287 HD
ENDROOT
BRANCH  12  18
HETATM   18  N3  UNL     1      21.129   3.497  50.934  1.00  0.00    -0.359 N 
HETATM   19  H9  UNL     1      20.273   3.317  51.434  1.00  0.00     0.162 HD
BRANCH  18  20
HETATM   20  C11 UNL     1      21.420   3.332  49.543  1.00  0.00     0.031 A 
HETATM   21  C12 UNL     1      21.845   2.074  49.280  1.00  0.00     0.029 A 
HETATM   22  C13 UNL     1      22.296   1.790  47.993  1.00  0.00     0.004 A 
HETATM   23  C14 UNL     1      22.351   2.699  46.928  1.00  0.00     0.019 A 
HETATM   24  C15 UNL     1      21.879   3.955  47.311  1.00  0.00     0.013 A 
HETATM   25 BR1  UNL     1      21.884   5.304  45.970  1.00  0.00    -0.051 Br
HETATM   26  C16 UNL     1      21.423   4.306  48.564  1.00  0.00     0.048 A 
ENDBRANCH  18  20
ENDBRANCH  12  18
BRANCH   1  27
HETATM   27  O1  UNL     1      28.373  -0.130  52.922  1.00  0.00    -0.356 OA
HETATM   28  C1  UNL     1      29.249  -0.512  53.906  1.00  0.00     0.210 C 
ENDBRANCH   1  27
TORSDOF 4
ENDMDL
MODEL 4
REMARK VINA RESULT:      -7.7      3.466      6.681
REMARK  4 active torsions:
REMARK  status: ('A' for Active; 'I' for Inactive)
REMARK    1  A    between atoms: O1_2  and  C2_3 
REMARK    2  A    between atoms: C10_14  and  N3_15 
REMARK    3  A    between atoms: C10_14  and  C17_23 
REMARK    4  A    between atoms: N3_15  and  C11_16 
ROOT
HETATM    1  C2  UNL     1      26.502   7.178  48.220  1.00  0.00     0.069 A 
HETATM    2  C3  UNL     1      26.897   7.907  49.461  1.00  0.00     0.037 A 
HETATM    3  C4  UNL     1      25.826   7.722  50.415  1.00  0.00     0.012 A 
HETATM    4  C5  UNL     1      24.628   7.070  50.405  1.00  0.00    -0.021 A 
HETATM    5  C6  UNL     1      24.712   6.590  49.108  1.00  0.00    -0.014 A 
HETATM    6  C7  UNL     1      25.452   6.534  47.991  1.00  0.00     0.049 A 
HETATM    7  C8  UNL     1      24.065   5.461  49.148  1.00  0.00     0.033 A 
HETATM    8  P1  UNL     1      23.496   4.424  49.196  1.00  0.00     0.172 P 
HETATM    9  N1  UNL     1      22.354   2.273  49.242  1.00  0.00     0.000 N 
HETATM   10  C9  UNL     1      22.096   1.680  48.274  1.00  0.00     0.082 A 
HETATM   11  N2  UNL     1      22.098   1.810  49.683  1.00  0.00    -0.206 NA
HETATM   12  C10 UNL     1      22.707   2.999  50.300  1.00  0.00     0.195 A 
HETATM   13  C17 UNL     1      23.354   4.158  49.213  1.00  0.00     0.256 A 
HETATM   14  N4  UNL     1      23.271   5.046  50.979  1.00  0.00    -0.023 N 
HETATM   15  C18 UNL     1      23.487   6.624  51.190  1.00  0.00     0.280 C 
HETATM   16  H7  UNL     1      22.511   2.365  47.851  1.00  0.00     0.043 HD
HETATM   17  H14 UNL     1      23.030   4.854  52.200  1.00  0.00     0.287 HD
ENDROOT
BRANCH  12  18
HETATM   18  N3  UNL     1      22.458   2.750  51.999  1.00  0.00    -0.359 N 
HETATM   19  H9  UNL     1      21.718   3.105  52.584  1.00  0.00     0.162 HD
BRANCH  18  20
HETATM   20  C11 UNL     1      23.588   1.947  52.353  1.00  0.00     0.031 A 
HETATM   21  C12 UNL     1      23.202   0.717  52.767  1.00  0.00     0.029 A 
HETATM   22  C13 UNL     1      24.175  -0.140  53.274  1.00  0.00     0.004 A 
HETATM   23  C14 UNL     1      25.539   0.156  53.397  1.00  0.00     0.019 A 
HETATM   24  C15 UNL     1      25.822   1.440  52.931  1.00  0.00     0.013 A 
HETATM   25 BR1  UNL     1      27.640   1.991  53.025  1.00  0.00    -0.051 Br
HETATM   26  C16 UNL     1      24.910   2.340  52.422  1.00  0.00     0.048 A 
ENDBRANCH  18  20
ENDBRANCH  12  18
BRANCH   1  27
HETATM   27  O1  UNL     1      27.638   7.410  47.411  1.00  0.00    -0.356 OA
HETATM   28  C1  UNL     1      28.902   6.955  47.682  1.00  0.00     0.210 C 
ENDBRANCH   1  27
TORSDOF 4
ENDMDL
MODEL 5
REMARK VINA RESULT:      -7.5      3.071      4.627
REMARK  4 active torsions:
REMARK  status: ('A' for Active; 'I' for Inactive)
REMARK    1  A    between atoms: O1_2  and  C2_3 
REMARK    2  A    between atoms: C10_14  and  N3_15 
REMARK    3  A    between atoms: C10_14  and  C17_23 
REMARK    4  A    between atoms: N3_15  and  C11_16 
ROOT
HETATM    1  C2  UNL     1      21.161  -0.080  53.134  1.00  0.00     0.069 A 
HETATM    2  C3  UNL     1      20.305  -0.129  51.913  1.00  0.00     0.037 A 
HETATM    3  C4  UNL     1      20.773   0.915  51.029  1.00  0.00     0.012 A 
HETATM    4  C5  UNL     1      21.758   1.857  51.086  1.00  0.00    -0.021 A 
HETATM    5  C6  UNL     1      22.234   1.521  52.343  1.00  0.00    -0.014 A 
HETATM    6  C7  UNL     1      22.102   0.705  53.399  1.00  0.00     0.049 A 
HETATM    7  C8  UNL     1      23.505   1.799  52.284  1.00  0.00     0.033 A 
HETATM    8  P1  UNL     1      24.663   2.034  52.215  1.00  0.00     0.172 P 
HETATM    9  N1  UNL     1      27.057   2.476  52.124  1.00  0.00     0.000 N 
HETATM   10  C9  UNL     1      27.733   2.460  53.072  1.00  0.00     0.082 A 
HETATM   11  N2  UNL     1      27.560   2.619  51.676  1.00  0.00    -0.206 NA
HETATM   12  C10 UNL     1      26.222   2.450  51.088  1.00  0.00     0.195 A 
HETATM   13  C17 UNL     1      24.959   2.090  52.193  1.00  0.00     0.256 A 
HETATM   14  N4  UNL     1      24.078   2.587  50.492  1.00  0.00    -0.023 N 
HETATM   15  C18 UNL     1      22.503   2.873  50.360  1.00  0.00     0.280 C 
HETATM   16  H7  UNL     1      26.969   2.236  53.503  1.00  0.00     0.043 HD
HETATM   17  H14 UNL     1      24.292   2.864  49.283  1.00  0.00     0.287 HD
ENDROOT
BRANCH  12  18
HETATM   18  N3  UNL     1      26.475   2.758  49.399  1.00  0.00    -0.359 N 
HETATM   19  H9  UNL     1      26.661   2.097  48.662  1.00  0.00     0.162 HD
BRANCH  18  20
HETATM   20  C11 UNL     1      26.386   4.185  49.338  1.00  0.00     0.031 A 
HETATM   21  C12 UNL     1      27.447   4.713  48.683  1.00  0.00     0.029 A 
HETATM   22  C13 UNL     1      27.576   6.099  48.654  1.00  0.00     0.004 A 
HETATM   23  C14 UNL     1      26.698   7.013  49.249  1.00  0.00     0.019 A 
HETATM   24  C15 UNL     1      25.640   6.360  49.884  1.00  0.00     0.013 A 
HETATM   25 BR1  UNL     1      24.352   7.468  50.737  1.00  0.00    -0.051 Br
HETATM   26  C16 UNL     1      25.453   4.995  49.955  1.00  0.00     0.048 A 
ENDBRANCH  18  20
ENDBRANCH  12  18
BRANCH   1  27
HETATM   27  O1  UNL     1      20.623  -1.159  53.872  1.00  0.00    -0.356 OA
HETATM   28  C1  UNL     1      21.347  -1.997  54.679  1.00  0.00     0.210 C 
ENDBRANCH   1  27
TORSDOF 4
ENDMDL
MODEL 6
REMARK VINA RESULT:      -7.4      3.573      4.783
REMARK  4 active torsions:
REMARK  status: ('A' for Active; 'I' for Inactive)
REMARK    1  A    between atoms: O1_2  and  C2_3 
REMARK    2  A    between atoms: C10_14  and  N3_15 
REMARK    3  A    between atoms: C10_14  and  C17_23 
REMARK    4  A    between atoms: N3_15  and  C11_16 
ROOT
HETATM    1  C2  UNL     1      26.869   1.554  53.860  1.00  0.00     0.069 A 
HETATM    2  C3  UNL     1      27.136   0.091  53.749  1.00  0.00     0.037 A 
HETATM    3  C4  UNL     1      25.859  -0.556  53.544  1.00  0.00     0.012 A 
HETATM    4  C5  UNL     1      24.567  -0.128  53.442  1.00  0.00    -0.021 A 
HETATM    5  C6  UNL     1      24.827   1.222  53.612  1.00  0.00    -0.014 A 
HETATM    6  C7  UNL     1      25.770   2.155  53.812  1.00  0.00     0.049 A 
HETATM    7  C8  UNL     1      23.908   1.812  52.901  1.00  0.00     0.033 A 
HETATM    8  P1  UNL     1      23.084   2.340  52.236  1.00  0.00     0.172 P 
HETATM    9  N1  UNL     1      21.425   3.481  50.865  1.00  0.00     0.000 N 
HETATM   10  C9  UNL     1      21.256   4.632  50.914  1.00  0.00     0.082 A 
HETATM   11  N2  UNL     1      20.955   3.357  50.377  1.00  0.00    -0.206 NA
HETATM   12  C10 UNL     1      21.696   2.178  50.850  1.00  0.00     0.195 A 
HETATM   13  C17 UNL     1      22.876   2.471  52.062  1.00  0.00     0.256 A 
HETATM   14  N4  UNL     1      22.615   0.511  52.011  1.00  0.00    -0.023 N 
HETATM   15  C18 UNL     1      23.195  -0.490  53.125  1.00  0.00     0.280 C 
HETATM   16  H7  UNL     1      21.931   4.614  51.519  1.00  0.00     0.043 HD
HETATM   17  H14 UNL     1      22.045  -0.420  51.384  1.00  0.00     0.287 HD
ENDROOT
BRANCH  12  18
HETATM   18  N3  UNL     1      20.989   0.867  49.961  1.00  0.00    -0.359 N 
HETATM   19  H9  UNL     1      21.407   0.297  49.243  1.00  0.00     0.162 HD
BRANCH  18  20
HETATM   20  C11 UNL     1      19.659   0.830  50.488  1.00  0.00     0.031 A 
HETATM   21  C12 UNL     1      19.603   0.095  51.623  1.00  0.00     0.029 A 
HETATM   22  C13 UNL     1      18.353  -0.149  52.186  1.00  0.00     0.004 A 
HETATM   23  C14 UNL     1      17.128   0.305  51.680  1.00  0.00     0.019 A 
HETATM   24  C15 UNL     1      17.307   1.059  50.520  1.00  0.00     0.013 A 
HETATM   25 BR1  UNL     1      15.733   1.754  49.711  1.00  0.00    -0.051 Br
HETATM   26  C16 UNL     1      18.512   1.334  49.907  1.00  0.00     0.048 A 
ENDBRANCH  18  20
ENDBRANCH  12  18
BRANCH   1  27
HETATM   27  O1  UNL     1      28.184   2.047  54.014  1.00  0.00    -0.356 OA
HETATM   28  C1  UNL     1      29.292   1.273  54.246  1.00  0.00     0.210 C 
ENDBRANCH   1  27
TORSDOF 4
ENDMDL
MODEL 7
REMARK VINA RESULT:      -7.4      2.662      3.532
REMARK  4 active torsions:
REMARK  status: ('A' for Active; 'I' for Inactive)
REMARK    1  A    between atoms: O1_2  and  C2_3 
REMARK    2  A    between atoms: C10_14  and  N3_15 
REMARK    3  A    between atoms: C10_14  and  C17_23 
REMARK    4  A    between atoms: N3_15  and  C11_16 
ROOT
HETATM    1  C2  UNL     1      26.319   1.248  54.027  1.00  0.00     0.069 A 
HETATM    2  C3  UNL     1      25.921  -0.157  54.332  1.00  0.00     0.037 A 
HETATM    3  C4  UNL     1      24.584  -0.338  53.814  1.00  0.00     0.012 A 
HETATM    4  C5  UNL     1      23.689   0.456  53.157  1.00  0.00    -0.021 A 
HETATM    5  C6  UNL     1      24.475   1.596  53.122  1.00  0.00    -0.014 A 
HETATM    6  C7  UNL     1      25.654   2.143  53.454  1.00  0.00     0.049 A 
HETATM    7  C8  UNL     1      24.122   2.189  52.018  1.00  0.00     0.033 A 
HETATM    8  P1  UNL     1      23.812   2.710  51.001  1.00  0.00     0.172 P 
HETATM    9  N1  UNL     1      23.230   3.816  48.910  1.00  0.00     0.000 N 
HETATM   10  C9  UNL     1      23.587   4.893  48.651  1.00  0.00     0.082 A 
HETATM   11  N2  UNL     1      22.889   3.707  48.322  1.00  0.00    -0.206 NA
HETATM   12  C10 UNL     1      22.884   2.583  49.270  1.00  0.00     0.195 A 
HETATM   13  C17 UNL     1      23.734   2.838  50.739  1.00  0.00     0.256 A 
HETATM   14  N4  UNL     1      22.645   1.208  51.010  1.00  0.00    -0.023 N 
HETATM   15  C18 UNL     1      22.424   0.518  52.443  1.00  0.00     0.280 C 
HETATM   16  H7  UNL     1      24.012   4.848  49.450  1.00  0.00     0.043 HD
HETATM   17  H14 UNL     1      21.891   0.384  50.428  1.00  0.00     0.287 HD
ENDROOT
BRANCH  12  18
HETATM   18  N3  UNL     1      21.906   1.386  48.481  1.00  0.00    -0.359 N 
HETATM   19  H9  UNL     1      22.203   0.581  47.952  1.00  0.00     0.162 HD
BRANCH  18  20
HETATM   20  C11 UNL     1      20.582   1.858  48.748  1.00  0.00     0.031 A 
HETATM   21  C12 UNL     1      19.979   1.107  49.700  1.00  0.00     0.029 A 
HETATM   22  C13 UNL     1      18.638   1.355  49.978  1.00  0.00     0.004 A 
HETATM   23  C14 UNL     1      17.840   2.324  49.356  1.00  0.00     0.019 A 
HETATM   24  C15 UNL     1      18.566   3.042  48.404  1.00  0.00     0.013 A 
HETATM   25 BR1  UNL     1      17.622   4.404  47.472  1.00  0.00    -0.051 Br
HETATM   26  C16 UNL     1      19.892   2.847  48.076  1.00  0.00     0.048 A 
ENDBRANCH  18  20
ENDBRANCH  12  18
BRANCH   1  27
HETATM   27  O1  UNL     1      27.634   1.264  54.545  1.00  0.00    -0.356 OA
HETATM   28  C1  UNL     1      28.429   0.159  54.705  1.00  0.00     0.210 C 
ENDBRANCH   1  27
TORSDOF 4
ENDMDL
MODEL 8
REMARK VINA RESULT:      -7.3      8.706     11.045
REMARK  4 active torsions:
REMARK  status: ('A' for Active; 'I' for Inactive)
REMARK    1  A    between atoms: O1_2  and  C2_3 
REMARK    2  A    between atoms: C10_14  and  N3_15 
REMARK    3  A    between atoms: C10_14  and  C17_23 
REMARK    4  A    between atoms: N3_15  and  C11_16 
ROOT
HETATM    1  C2  UNL     1      28.835  11.088  48.745  1.00  0.00     0.069 A 
HETATM    2  C3  UNL     1      27.624  10.235  48.920  1.00  0.00     0.037 A 
HETATM    3  C4  UNL     1      27.942   8.936  48.371  1.00  0.00     0.012 A 
HETATM    4  C5  UNL     1      29.037   8.383  47.774  1.00  0.00    -0.021 A 
HETATM    5  C6  UNL     1      29.841   9.509  47.831  1.00  0.00    -0.014 A 
HETATM    6  C7  UNL     1      29.931  10.791  48.215  1.00  0.00     0.049 A 
HETATM    7  C8  UNL     1      31.046   9.030  47.954  1.00  0.00     0.033 A 
HETATM    8  P1  UNL     1      32.136   8.588  48.088  1.00  0.00     0.172 P 
HETATM    9  N1  UNL     1      34.398   7.736  48.387  1.00  0.00     0.000 N 
HETATM   10  C9  UNL     1      35.340   8.416  48.303  1.00  0.00     0.082 A 
HETATM   11  N2  UNL     1      34.739   7.156  48.535  1.00  0.00    -0.206 NA
HETATM   12  C10 UNL     1      33.274   7.034  48.491  1.00  0.00     0.195 A 
HETATM   13  C17 UNL     1      32.412   8.473  48.127  1.00  0.00     0.256 A 
HETATM   14  N4  UNL     1      31.112   6.993  47.944  1.00  0.00    -0.023 N 
HETATM   15  C18 UNL     1      29.660   7.165  47.280  1.00  0.00     0.280 C 
HETATM   16  H7  UNL     1      34.738   9.078  48.161  1.00  0.00     0.043 HD
HETATM   17  H14 UNL     1      30.952   5.756  48.121  1.00  0.00     0.287 HD
ENDROOT
BRANCH  12  18
HETATM   18  N3  UNL     1      32.994   5.348  48.796  1.00  0.00    -0.359 N 
HETATM   19  H9  UNL     1      32.600   4.916  49.616  1.00  0.00     0.162 HD
BRANCH  18  20
HETATM   20  C11 UNL     1      33.498   4.740  47.604  1.00  0.00     0.031 A 
HETATM   21  C12 UNL     1      34.505   3.879  47.882  1.00  0.00     0.029 A 
HETATM   22  C13 UNL     1      35.192   3.306  46.816  1.00  0.00     0.004 A 
HETATM   23  C14 UNL     1      34.934   3.539  45.459  1.00  0.00     0.019 A 
HETATM   24  C15 UNL     1      33.873   4.430  45.291  1.00  0.00     0.013 A 
HETATM   25 BR1  UNL     1      33.395   4.847  43.499  1.00  0.00    -0.051 Br
HETATM   26  C16 UNL     1      33.154   5.037  46.299  1.00  0.00     0.048 A 
ENDBRANCH  18  20
ENDBRANCH  12  18
BRANCH   1  27
HETATM   27  O1  UNL     1      28.397  12.288  49.350  1.00  0.00    -0.356 OA
HETATM   28  C1  UNL     1      27.907  13.375  48.675  1.00  0.00     0.210 C 
ENDBRANCH   1  27
TORSDOF 4
ENDMDL
MODEL 9
REMARK VINA RESULT:      -7.3      5.830      8.895
REMARK  4 active torsions:
REMARK  status: ('A' for Active; 'I' for Inactive)
REMARK    1  A    between atoms: O1_2  and  C2_3 
REMARK    2  A    between atoms: C10_14  and  N3_15 
REMARK    3  A    between atoms: C10_14  and  C17_23 
REMARK    4  A    between atoms: N3_15  and  C11_16 
ROOT
HETATM    1  C2  UNL     1      25.226   5.792  48.972  1.00  0.00     0.069 A 
HETATM    2  C3  UNL     1      25.704   4.425  49.330  1.00  0.00     0.037 A 
HETATM    3  C4  UNL     1      27.112   4.372  49.003  1.00  0.00     0.012 A 
HETATM    4  C5  UNL     1      28.012   5.251  48.475  1.00  0.00    -0.021 A 
HETATM    5  C6  UNL     1      27.133   6.309  48.312  1.00  0.00    -0.014 A 
HETATM    6  C7  UNL     1      25.872   6.739  48.466  1.00  0.00     0.049 A 
HETATM    7  C8  UNL     1      27.877   7.365  48.476  1.00  0.00     0.033 A 
HETATM    8  P1  UNL     1      28.555   8.320  48.649  1.00  0.00     0.172 P 
HETATM    9  N1  UNL     1      29.896  10.320  49.017  1.00  0.00     0.000 N 
HETATM   10  C9  UNL     1      29.500  11.391  48.788  1.00  0.00     0.082 A 
HETATM   11  N2  UNL     1      30.513  10.517  49.252  1.00  0.00    -0.206 NA
HETATM   12  C10 UNL     1      30.264   9.068  49.276  1.00  0.00     0.195 A 
HETATM   13  C17 UNL     1      28.729   8.561  48.698  1.00  0.00     0.256 A 
HETATM   14  N4  UNL     1      29.840   6.928  48.814  1.00  0.00    -0.023 N 
HETATM   15  C18 UNL     1      29.411   5.517  48.178  1.00  0.00     0.280 C 
HETATM   16  H7  UNL     1      28.738  10.961  48.554  1.00  0.00     0.043 HD
HETATM   17  H14 UNL     1      30.951   6.483  49.206  1.00  0.00     0.287 HD
ENDROOT
BRANCH  12  18
HETATM   18  N3  UNL     1      31.752   8.407  49.876  1.00  0.00    -0.359 N 
HETATM   19  H9  UNL     1      32.066   8.330  50.830  1.00  0.00     0.162 HD
BRANCH  18  20
HETATM   20  C11 UNL     1      32.423   8.036  48.668  1.00  0.00     0.031 A 
HETATM   21  C12 UNL     1      32.905   6.773  48.745  1.00  0.00     0.029 A 
HETATM   22  C13 UNL     1      33.700   6.310  47.700  1.00  0.00     0.004 A 
HETATM   23  C14 UNL     1      34.054   7.039  46.558  1.00  0.00     0.019 A 
HETATM   24  C15 UNL     1      33.494   8.317  46.580  1.00  0.00     0.013 A 
HETATM   25 BR1  UNL     1      33.877   9.433  45.089  1.00  0.00    -0.051 Br
HETATM   26  C16 UNL     1      32.703   8.841  47.581  1.00  0.00     0.048 A 
ENDBRANCH  18  20
ENDBRANCH  12  18
BRANCH   1  27
HETATM   27  O1  UNL     1      23.874   5.708  49.376  1.00  0.00    -0.356 OA
HETATM   28  C1  UNL     1      23.450   5.372  50.635  1.00  0.00     0.210 C 
ENDBRANCH   1  27
TORSDOF 4
ENDMDL
