MODEL 1
REMARK VINA RESULT:      -9.7      0.000      0.000
REMARK  3 active torsions:
REMARK  status: ('A' for Active; 'I' for Inactive)
REMARK    1  A    between atoms: C1_2  and  C2_3 
REMARK    2  A    between atoms: C1_2  and  C7_9 
REMARK    3  A    between atoms: C11_13  and  N2_14 
ROOT
HETATM    1  C7  UNL     1      21.180  -0.547  53.718  1.00  0.00     0.017 A 
HETATM    2  C8  UNL     1      21.532  -1.312  54.783  1.00  0.00     0.015 A 
HETATM    3  C9  UNL     1      22.795  -1.520  55.290  1.00  0.00     0.003 A 
HETATM    4  C10 UNL     1      23.808  -0.849  54.604  1.00  0.00     0.030 A 
HETATM    5  C11 UNL     1      23.630  -0.036  53.508  1.00  0.00     0.042 A 
HETATM    6  C21 UNL     1      22.288   0.062  53.129  1.00  0.00     0.045 A 
ENDROOT
BRANCH   5   7
HETATM    7  N2  UNL     1      24.568   0.689  52.753  1.00  0.00    -0.300 N 
HETATM    8  C12 UNL     1      23.935   1.881  52.992  1.00  0.00     0.215 C 
HETATM    9  N3  UNL     1      24.666   2.837  53.418  1.00  0.00    -0.256 NA
HETATM   10  C13 UNL     1      26.033   2.491  53.566  1.00  0.00     0.118 C 
HETATM   11  C14 UNL     1      27.334   2.513  53.522  1.00  0.00     0.019 C 
HETATM   12  C15 UNL     1      28.768   2.359  53.569  1.00  0.00    -0.003 C 
HETATM   13  C16 UNL     1      29.215   1.247  54.116  1.00  0.00    -0.025 C 
HETATM   14  C17 UNL     1      28.796  -0.003  54.745  1.00  0.00     0.044 C 
HETATM   15  C18 UNL     1      29.386  -1.147  53.973  1.00  0.00     0.071 C 
HETATM   16  S1  UNL     1      28.702  -2.201  52.903  1.00  0.00    -0.116 SA
HETATM   17  C19 UNL     1      27.099  -1.952  52.691  1.00  0.00     0.163 C 
HETATM   18  N4  UNL     1      26.291  -0.915  53.158  1.00  0.00    -0.249 NA
HETATM   19  C20 UNL     1      25.401  -0.342  52.361  1.00  0.00     0.215 C 
ENDBRANCH   5   7
BRANCH   1  20
HETATM   20  C1  UNL     1      19.884  -0.269  53.168  1.00  0.00     0.192 C 
HETATM   21  O1  UNL     1      19.778   0.908  52.686  1.00  0.00    -0.287 OA
BRANCH  20  22
HETATM   22  C2  UNL     1      18.625  -0.954  53.005  1.00  0.00     0.018 A 
HETATM   23  C3  UNL     1      17.570  -0.497  52.251  1.00  0.00     0.034 A 
HETATM   24  C4  UNL     1      16.395  -1.252  52.125  1.00  0.00     0.117 A 
HETATM   25  N1  UNL     1      16.287  -2.440  52.744  1.00  0.00    -0.273 NA
HETATM   26  C5  UNL     1      17.264  -2.952  53.493  1.00  0.00     0.117 A 
HETATM   27  C6  UNL     1      18.378  -2.179  53.580  1.00  0.00     0.034 A 
ENDBRANCH  20  22
ENDBRANCH   1  20
TORSDOF 3
ENDMDL
MODEL 2
REMARK VINA RESULT:      -9.3      1.585      2.054
REMARK  3 active torsions:
REMARK  status: ('A' for Active; 'I' for Inactive)
REMARK    1  A    between atoms: C1_2  and  C2_3 
REMARK    2  A    between atoms: C1_2  and  C7_9 
REMARK    3  A    between atoms: C11_13  and  N2_14 
ROOT
HETATM    1  C7  UNL     1      21.183  -0.651  53.665  1.00  0.00     0.017 A 
HETATM    2  C8  UNL     1      21.532  -1.360  54.768  1.00  0.00     0.015 A 
HETATM    3  C9  UNL     1      22.787  -1.503  55.316  1.00  0.00     0.003 A 
HETATM    4  C10 UNL     1      23.794  -0.823  54.631  1.00  0.00     0.030 A 
HETATM    5  C11 UNL     1      23.619  -0.062  53.499  1.00  0.00     0.042 A 
HETATM    6  C21 UNL     1      22.285  -0.027  53.081  1.00  0.00     0.045 A 
ENDROOT
BRANCH   5   7
HETATM    7  N2  UNL     1      24.551   0.666  52.740  1.00  0.00    -0.300 N 
HETATM    8  C12 UNL     1      23.915   1.856  52.979  1.00  0.00     0.215 C 
HETATM    9  N3  UNL     1      24.643   2.815  53.401  1.00  0.00    -0.256 NA
HETATM   10  C13 UNL     1      26.012   2.475  53.546  1.00  0.00     0.118 C 
HETATM   11  C14 UNL     1      27.313   2.502  53.498  1.00  0.00     0.019 C 
HETATM   12  C15 UNL     1      28.748   2.354  53.540  1.00  0.00    -0.003 C 
HETATM   13  C16 UNL     1      29.201   1.244  54.088  1.00  0.00    -0.025 C 
HETATM   14  C17 UNL     1      28.788  -0.007  54.720  1.00  0.00     0.044 C 
HETATM   15  C18 UNL     1      29.380  -1.149  53.948  1.00  0.00     0.071 C 
HETATM   16  S1  UNL     1      28.697  -2.208  52.880  1.00  0.00    -0.116 SA
HETATM   17  C19 UNL     1      27.093  -1.965  52.673  1.00  0.00     0.163 C 
HETATM   18  N4  UNL     1      26.282  -0.930  53.141  1.00  0.00    -0.249 NA
HETATM   19  C20 UNL     1      25.388  -0.362  52.346  1.00  0.00     0.215 C 
ENDBRANCH   5   7
BRANCH   1  20
HETATM   20  C1  UNL     1      19.894  -0.442  53.070  1.00  0.00     0.192 C 
HETATM   21  O1  UNL     1      19.002  -1.252  53.493  1.00  0.00    -0.287 OA
BRANCH  20  22
HETATM   22  C2  UNL     1      19.298   0.440  52.097  1.00  0.00     0.018 A 
HETATM   23  C3  UNL     1      18.436   0.048  51.100  1.00  0.00     0.034 A 
HETATM   24  C4  UNL     1      17.880   0.987  50.219  1.00  0.00     0.117 A 
HETATM   25  N1  UNL     1      18.185   2.290  50.341  1.00  0.00    -0.273 NA
HETATM   26  C5  UNL     1      19.012   2.750  51.280  1.00  0.00     0.117 A 
HETATM   27  C6  UNL     1      19.521   1.797  52.105  1.00  0.00     0.034 A 
ENDBRANCH  20  22
ENDBRANCH   1  20
TORSDOF 3
ENDMDL
MODEL 3
REMARK VINA RESULT:      -9.3      4.919      7.141
REMARK  3 active torsions:
REMARK  status: ('A' for Active; 'I' for Inactive)
REMARK    1  A    between atoms: C1_2  and  C2_3 
REMARK    2  A    between atoms: C1_2  and  C7_9 
REMARK    3  A    between atoms: C11_13  and  N2_14 
ROOT
HETATM    1  C7  UNL     1      22.563   1.276  51.294  1.00  0.00     0.017 A 
HETATM    2  C8  UNL     1      21.970   1.192  50.076  1.00  0.00     0.015 A 
HETATM    3  C9  UNL     1      22.264   1.918  48.944  1.00  0.00     0.003 A 
HETATM    4  C10 UNL     1      23.299   2.840  49.105  1.00  0.00     0.030 A 
HETATM    5  C11 UNL     1      24.005   3.057  50.266  1.00  0.00     0.042 A 
HETATM    6  C21 UNL     1      23.575   2.235  51.312  1.00  0.00     0.045 A 
ENDROOT
BRANCH   5   7
HETATM    7  N2  UNL     1      25.062   3.943  50.535  1.00  0.00    -0.300 N 
HETATM    8  C12 UNL     1      26.011   2.975  50.333  1.00  0.00     0.215 C 
HETATM    9  N3  UNL     1      26.964   3.272  49.538  1.00  0.00    -0.256 NA
HETATM   10  C13 UNL     1      26.875   4.580  48.998  1.00  0.00     0.118 C 
HETATM   11  C14 UNL     1      27.167   5.785  48.599  1.00  0.00     0.019 C 
HETATM   12  C15 UNL     1      27.297   7.133  48.100  1.00  0.00    -0.003 C 
HETATM   13  C16 UNL     1      26.200   7.683  47.622  1.00  0.00    -0.025 C 
HETATM   14  C17 UNL     1      24.778   7.449  47.381  1.00  0.00     0.044 C 
HETATM   15  C18 UNL     1      23.993   8.517  48.084  1.00  0.00     0.071 C 
HETATM   16  S1  UNL     1      23.108   8.474  49.478  1.00  0.00    -0.116 SA
HETATM   17  C19 UNL     1      23.075   6.993  50.172  1.00  0.00     0.163 C 
HETATM   18  N4  UNL     1      23.787   5.840  49.842  1.00  0.00    -0.249 NA
HETATM   19  C20 UNL     1      24.342   5.097  50.787  1.00  0.00     0.215 C 
ENDBRANCH   5   7
BRANCH   1  20
HETATM   20  C1  UNL     1      22.320   0.525  52.493  1.00  0.00     0.192 C 
HETATM   21  O1  UNL     1      21.081   0.347  52.739  1.00  0.00    -0.287 OA
BRANCH  20  22
HETATM   22  C2  UNL     1      23.097  -0.099  53.537  1.00  0.00     0.018 A 
HETATM   23  C3  UNL     1      22.574  -0.813  54.589  1.00  0.00     0.034 A 
HETATM   24  C4  UNL     1      23.413  -1.413  55.538  1.00  0.00     0.117 A 
HETATM   25  N1  UNL     1      24.747  -1.296  55.430  1.00  0.00    -0.273 NA
HETATM   26  C5  UNL     1      25.331  -0.620  54.440  1.00  0.00     0.117 A 
HETATM   27  C6  UNL     1      24.471  -0.060  53.549  1.00  0.00     0.034 A 
ENDBRANCH  20  22
ENDBRANCH   1  20
TORSDOF 3
ENDMDL
MODEL 4
REMARK VINA RESULT:      -9.2      5.328      8.340
REMARK  3 active torsions:
REMARK  status: ('A' for Active; 'I' for Inactive)
REMARK    1  A    between atoms: C1_2  and  C2_3 
REMARK    2  A    between atoms: C1_2  and  C7_9 
REMARK    3  A    between atoms: C11_13  and  N2_14 
ROOT
HETATM    1  C7  UNL     1      26.245   2.097  52.645  1.00  0.00     0.017 A 
HETATM    2  C8  UNL     1      25.407   2.607  53.583  1.00  0.00     0.015 A 
HETATM    3  C9  UNL     1      24.231   3.294  53.378  1.00  0.00     0.003 A 
HETATM    4  C10 UNL     1      23.892   3.466  52.035  1.00  0.00     0.030 A 
HETATM    5  C11 UNL     1      24.625   3.016  50.961  1.00  0.00     0.042 A 
HETATM    6  C21 UNL     1      25.786   2.342  51.352  1.00  0.00     0.045 A 
ENDROOT
BRANCH   5   7
HETATM    7  N2  UNL     1      24.375   3.124  49.582  1.00  0.00    -0.300 N 
HETATM    8  C12 UNL     1      23.136   2.551  49.696  1.00  0.00     0.215 C 
HETATM    9  N3  UNL     1      22.167   3.181  49.154  1.00  0.00    -0.256 NA
HETATM   10  C13 UNL     1      22.553   4.384  48.511  1.00  0.00     0.118 C 
HETATM   11  C14 UNL     1      22.680   5.347  47.643  1.00  0.00     0.019 C 
HETATM   12  C15 UNL     1      22.942   6.500  46.816  1.00  0.00    -0.003 C 
HETATM   13  C16 UNL     1      23.765   7.399  47.318  1.00  0.00    -0.025 C 
HETATM   14  C17 UNL     1      24.593   7.714  48.480  1.00  0.00     0.044 C 
HETATM   15  C18 UNL     1      26.006   7.917  48.018  1.00  0.00     0.071 C 
HETATM   16  S1  UNL     1      27.337   6.946  48.135  1.00  0.00    -0.116 SA
HETATM   17  C19 UNL     1      27.040   5.542  48.922  1.00  0.00     0.163 C 
HETATM   18  N4  UNL     1      25.828   5.006  49.359  1.00  0.00    -0.249 NA
HETATM   19  C20 UNL     1      25.553   3.724  49.176  1.00  0.00     0.215 C 
ENDBRANCH   5   7
BRANCH   1  20
HETATM   20  C1  UNL     1      27.460   1.348  52.801  1.00  0.00     0.192 C 
HETATM   21  O1  UNL     1      28.503   2.081  52.865  1.00  0.00    -0.287 OA
BRANCH  20  22
HETATM   22  C2  UNL     1      27.855  -0.036  52.901  1.00  0.00     0.018 A 
HETATM   23  C3  UNL     1      29.074  -0.477  53.360  1.00  0.00     0.034 A 
HETATM   24  C4  UNL     1      29.354  -1.847  53.453  1.00  0.00     0.117 A 
HETATM   25  N1  UNL     1      28.429  -2.752  53.093  1.00  0.00    -0.273 NA
HETATM   26  C5  UNL     1      27.224  -2.405  52.638  1.00  0.00     0.117 A 
HETATM   27  C6  UNL     1      27.006  -1.065  52.568  1.00  0.00     0.034 A 
ENDBRANCH  20  22
ENDBRANCH   1  20
TORSDOF 3
ENDMDL
MODEL 5
REMARK VINA RESULT:      -9.1      3.396      8.116
REMARK  3 active torsions:
REMARK  status: ('A' for Active; 'I' for Inactive)
REMARK    1  A    between atoms: C1_2  and  C2_3 
REMARK    2  A    between atoms: C1_2  and  C7_9 
REMARK    3  A    between atoms: C11_13  and  N2_14 
ROOT
HETATM    1  C7  UNL     1      26.236   2.118  52.006  1.00  0.00     0.017 A 
HETATM    2  C8  UNL     1      26.561   2.457  50.732  1.00  0.00     0.015 A 
HETATM    3  C9  UNL     1      25.839   3.239  49.859  1.00  0.00     0.003 A 
HETATM    4  C10 UNL     1      24.638   3.723  50.378  1.00  0.00     0.030 A 
HETATM    5  C11 UNL     1      24.156   3.477  51.643  1.00  0.00     0.042 A 
HETATM    6  C21 UNL     1      25.014   2.667  52.392  1.00  0.00     0.045 A 
ENDROOT
BRANCH   5   7
HETATM    7  N2  UNL     1      22.976   3.917  52.267  1.00  0.00    -0.300 N 
HETATM    8  C12 UNL     1      23.037   5.145  51.662  1.00  0.00     0.215 C 
HETATM    9  N3  UNL     1      21.977   5.541  51.072  1.00  0.00    -0.256 NA
HETATM   10  C13 UNL     1      20.899   4.624  51.154  1.00  0.00     0.118 C 
HETATM   11  C14 UNL     1      19.715   4.105  51.315  1.00  0.00     0.019 C 
HETATM   12  C15 UNL     1      18.491   3.353  51.451  1.00  0.00    -0.003 C 
HETATM   13  C16 UNL     1      18.585   2.053  51.262  1.00  0.00    -0.025 C 
HETATM   14  C17 UNL     1      19.521   0.977  50.947  1.00  0.00     0.044 C 
HETATM   15  C18 UNL     1      19.463  -0.043  52.046  1.00  0.00     0.071 C 
HETATM   16  S1  UNL     1      20.506  -0.364  53.286  1.00  0.00    -0.116 SA
HETATM   17  C19 UNL     1      21.836   0.588  53.268  1.00  0.00     0.163 C 
HETATM   18  N4  UNL     1      22.129   1.693  52.468  1.00  0.00    -0.249 NA
HETATM   19  C20 UNL     1      22.660   2.785  52.996  1.00  0.00     0.215 C 
ENDBRANCH   5   7
BRANCH   1  20
HETATM   20  C1  UNL     1      26.962   1.337  52.968  1.00  0.00     0.192 C 
HETATM   21  O1  UNL     1      27.122   1.931  54.086  1.00  0.00    -0.287 OA
BRANCH  20  22
HETATM   22  C2  UNL     1      27.588   0.040  53.035  1.00  0.00     0.018 A 
HETATM   23  C3  UNL     1      28.863  -0.198  53.491  1.00  0.00     0.034 A 
HETATM   24  C4  UNL     1      29.374  -1.502  53.550  1.00  0.00     0.117 A 
HETATM   25  N1  UNL     1      28.619  -2.542  53.159  1.00  0.00    -0.273 NA
HETATM   26  C5  UNL     1      27.374  -2.395  52.704  1.00  0.00     0.117 A 
HETATM   27  C6  UNL     1      26.930  -1.111  52.668  1.00  0.00     0.034 A 
ENDBRANCH  20  22
ENDBRANCH   1  20
TORSDOF 3
ENDMDL
MODEL 6
REMARK VINA RESULT:      -8.9      4.065      7.539
REMARK  3 active torsions:
REMARK  status: ('A' for Active; 'I' for Inactive)
REMARK    1  A    between atoms: C1_2  and  C2_3 
REMARK    2  A    between atoms: C1_2  and  C7_9 
REMARK    3  A    between atoms: C11_13  and  N2_14 
ROOT
HETATM    1  C7  UNL     1      22.948  -0.006  53.760  1.00  0.00     0.017 A 
HETATM    2  C8  UNL     1      21.684   0.052  54.253  1.00  0.00     0.015 A 
HETATM    3  C9  UNL     1      20.565   0.570  53.641  1.00  0.00     0.003 A 
HETATM    4  C10 UNL     1      20.794   1.088  52.366  1.00  0.00     0.030 A 
HETATM    5  C11 UNL     1      22.008   1.112  51.718  1.00  0.00     0.042 A 
HETATM    6  C21 UNL     1      23.032   0.546  52.483  1.00  0.00     0.045 A 
ENDROOT
BRANCH   5   7
HETATM    7  N2  UNL     1      22.347   1.594  50.442  1.00  0.00    -0.300 N 
HETATM    8  C12 UNL     1      21.506   0.714  49.814  1.00  0.00     0.215 C 
HETATM    9  N3  UNL     1      20.699   1.211  48.959  1.00  0.00    -0.256 NA
HETATM   10  C13 UNL     1      20.824   2.615  48.802  1.00  0.00     0.118 C 
HETATM   11  C14 UNL     1      20.924   3.806  48.285  1.00  0.00     0.019 C 
HETATM   12  C15 UNL     1      21.044   5.192  47.902  1.00  0.00    -0.003 C 
HETATM   13  C16 UNL     1      21.157   6.059  48.887  1.00  0.00    -0.025 C 
HETATM   14  C17 UNL     1      21.220   6.181  50.342  1.00  0.00     0.044 C 
HETATM   15  C18 UNL     1      22.494   6.884  50.707  1.00  0.00     0.071 C 
HETATM   16  S1  UNL     1      23.909   6.309  51.335  1.00  0.00    -0.116 SA
HETATM   17  C19 UNL     1      23.875   4.700  51.628  1.00  0.00     0.163 C 
HETATM   18  N4  UNL     1      22.904   3.755  51.293  1.00  0.00    -0.249 NA
HETATM   19  C20 UNL     1      23.252   2.578  50.797  1.00  0.00     0.215 C 
ENDBRANCH   5   7
BRANCH   1  20
HETATM   20  C1  UNL     1      24.139  -0.562  54.337  1.00  0.00     0.192 C 
HETATM   21  O1  UNL     1      23.909  -1.363  55.304  1.00  0.00    -0.287 OA
BRANCH  20  22
HETATM   22  C2  UNL     1      25.565  -0.467  54.139  1.00  0.00     0.018 A 
HETATM   23  C3  UNL     1      26.438   0.177  54.985  1.00  0.00     0.034 A 
HETATM   24  C4  UNL     1      27.815   0.186  54.725  1.00  0.00     0.117 A 
HETATM   25  N1  UNL     1      28.302  -0.438  53.639  1.00  0.00    -0.273 NA
HETATM   26  C5  UNL     1      27.522  -1.083  52.772  1.00  0.00     0.117 A 
HETATM   27  C6  UNL     1      26.197  -1.061  53.072  1.00  0.00     0.034 A 
ENDBRANCH  20  22
ENDBRANCH   1  20
TORSDOF 3
ENDMDL
MODEL 7
REMARK VINA RESULT:      -8.8      4.701      9.018
REMARK  3 active torsions:
REMARK  status: ('A' for Active; 'I' for Inactive)
REMARK    1  A    between atoms: C1_2  and  C2_3 
REMARK    2  A    between atoms: C1_2  and  C7_9 
REMARK    3  A    between atoms: C11_13  and  N2_14 
ROOT
HETATM    1  C7  UNL     1      24.686   5.331  50.171  1.00  0.00     0.017 A 
HETATM    2  C8  UNL     1      24.041   6.020  51.146  1.00  0.00     0.015 A 
HETATM    3  C9  UNL     1      23.383   5.509  52.243  1.00  0.00     0.003 A 
HETATM    4  C10 UNL     1      23.404   4.117  52.330  1.00  0.00     0.030 A 
HETATM    5  C11 UNL     1      24.008   3.268  51.431  1.00  0.00     0.042 A 
HETATM    6  C21 UNL     1      24.626   3.955  50.382  1.00  0.00     0.045 A 
ENDROOT
BRANCH   5   7
HETATM    7  N2  UNL     1      24.098   1.866  51.425  1.00  0.00    -0.300 N 
HETATM    8  C12 UNL     1      25.339   1.878  52.006  1.00  0.00     0.215 C 
HETATM    9  N3  UNL     1      25.496   1.130  53.028  1.00  0.00    -0.256 NA
HETATM   10  C13 UNL     1      24.335   0.398  53.386  1.00  0.00     0.118 C 
HETATM   11  C14 UNL     1      23.528  -0.559  53.742  1.00  0.00     0.019 C 
HETATM   12  C15 UNL     1      22.487  -1.482  54.126  1.00  0.00    -0.003 C 
HETATM   13  C16 UNL     1      21.266  -0.990  54.181  1.00  0.00    -0.025 C 
HETATM   14  C17 UNL     1      20.481   0.226  53.984  1.00  0.00     0.044 C 
HETATM   15  C18 UNL     1      19.410  -0.057  52.972  1.00  0.00     0.071 C 
HETATM   16  S1  UNL     1      19.279   0.367  51.381  1.00  0.00    -0.116 SA
HETATM   17  C19 UNL     1      20.532   1.278  50.856  1.00  0.00     0.163 C 
HETATM   18  N4  UNL     1      21.725   1.608  51.501  1.00  0.00    -0.249 NA
HETATM   19  C20 UNL     1      22.878   1.554  50.852  1.00  0.00     0.215 C 
ENDBRANCH   5   7
BRANCH   1  20
HETATM   20  C1  UNL     1      25.412   5.810  49.028  1.00  0.00     0.192 C 
HETATM   21  O1  UNL     1      24.659   6.178  48.066  1.00  0.00    -0.287 OA
BRANCH  20  22
HETATM   22  C2  UNL     1      26.789   5.993  48.639  1.00  0.00     0.018 A 
HETATM   23  C3  UNL     1      27.737   4.997  48.601  1.00  0.00     0.034 A 
HETATM   24  C4  UNL     1      29.045   5.266  48.175  1.00  0.00     0.117 A 
HETATM   25  N1  UNL     1      29.391   6.508  47.798  1.00  0.00    -0.273 NA
HETATM   26  C5  UNL     1      28.531   7.527  47.807  1.00  0.00     0.117 A 
HETATM   27  C6  UNL     1      27.278   7.211  48.228  1.00  0.00     0.034 A 
ENDBRANCH  20  22
ENDBRANCH   1  20
TORSDOF 3
ENDMDL
MODEL 8
REMARK VINA RESULT:      -8.8      3.434      7.509
REMARK  3 active torsions:
REMARK  status: ('A' for Active; 'I' for Inactive)
REMARK    1  A    between atoms: C1_2  and  C2_3 
REMARK    2  A    between atoms: C1_2  and  C7_9 
REMARK    3  A    between atoms: C11_13  and  N2_14 
ROOT
HETATM    1  C7  UNL     1      24.287  -0.489  53.849  1.00  0.00     0.017 A 
HETATM    2  C8  UNL     1      23.504  -0.911  54.874  1.00  0.00     0.015 A 
HETATM    3  C9  UNL     1      22.130  -0.871  54.955  1.00  0.00     0.003 A 
HETATM    4  C10 UNL     1      21.503  -0.326  53.834  1.00  0.00     0.030 A 
HETATM    5  C11 UNL     1      22.142   0.150  52.712  1.00  0.00     0.042 A 
HETATM    6  C21 UNL     1      23.532   0.032  52.800  1.00  0.00     0.045 A 
ENDROOT
BRANCH   5   7
HETATM    7  N2  UNL     1      21.615   0.705  51.533  1.00  0.00    -0.300 N 
HETATM    8  C12 UNL     1      20.365   0.200  51.777  1.00  0.00     0.215 C 
HETATM    9  N3  UNL     1      19.394   1.025  51.702  1.00  0.00    -0.256 NA
HETATM   10  C13 UNL     1      19.789   2.346  51.367  1.00  0.00     0.118 C 
HETATM   11  C14 UNL     1      19.851   3.525  50.818  1.00  0.00     0.019 C 
HETATM   12  C15 UNL     1      20.079   4.864  50.330  1.00  0.00    -0.003 C 
HETATM   13  C16 UNL     1      21.103   5.506  50.853  1.00  0.00    -0.025 C 
HETATM   14  C17 UNL     1      22.198   5.385  51.813  1.00  0.00     0.044 C 
HETATM   15  C18 UNL     1      23.491   5.641  51.096  1.00  0.00     0.071 C 
HETATM   16  S1  UNL     1      24.674   4.606  50.587  1.00  0.00    -0.116 SA
HETATM   17  C19 UNL     1      24.371   3.046  50.974  1.00  0.00     0.163 C 
HETATM   18  N4  UNL     1      23.222   2.471  51.521  1.00  0.00    -0.249 NA
HETATM   19  C20 UNL     1      22.746   1.332  51.043  1.00  0.00     0.215 C 
ENDBRANCH   5   7
BRANCH   1  20
HETATM   20  C1  UNL     1      25.714  -0.536  53.698  1.00  0.00     0.192 C 
HETATM   21  O1  UNL     1      26.152  -1.690  53.373  1.00  0.00    -0.287 OA
BRANCH  20  22
HETATM   22  C2  UNL     1      26.831   0.370  53.819  1.00  0.00     0.018 A 
HETATM   23  C3  UNL     1      26.893   1.624  53.258  1.00  0.00     0.034 A 
HETATM   24  C4  UNL     1      28.010   2.447  53.460  1.00  0.00     0.117 A 
HETATM   25  N1  UNL     1      29.039   2.017  54.208  1.00  0.00    -0.273 NA
HETATM   26  C5  UNL     1      29.055   0.815  54.785  1.00  0.00     0.117 A 
HETATM   27  C6  UNL     1      27.948   0.060  54.557  1.00  0.00     0.034 A 
ENDBRANCH  20  22
ENDBRANCH   1  20
TORSDOF 3
ENDMDL
MODEL 9
REMARK VINA RESULT:      -8.8      4.701      8.571
REMARK  3 active torsions:
REMARK  status: ('A' for Active; 'I' for Inactive)
REMARK    1  A    between atoms: C1_2  and  C2_3 
REMARK    2  A    between atoms: C1_2  and  C7_9 
REMARK    3  A    between atoms: C11_13  and  N2_14 
ROOT
HETATM    1  C7  UNL     1      23.581   4.919  48.954  1.00  0.00     0.017 A 
HETATM    2  C8  UNL     1      22.953   4.211  47.981  1.00  0.00     0.015 A 
HETATM    3  C9  UNL     1      21.965   3.264  48.133  1.00  0.00     0.003 A 
HETATM    4  C10 UNL     1      21.591   3.030  49.457  1.00  0.00     0.030 A 
HETATM    5  C11 UNL     1      22.123   3.656  50.561  1.00  0.00     0.042 A 
HETATM    6  C21 UNL     1      23.111   4.585  50.223  1.00  0.00     0.045 A 
ENDROOT
BRANCH   5   7
HETATM    7  N2  UNL     1      21.817   3.506  51.925  1.00  0.00    -0.300 N 
HETATM    8  C12 UNL     1      20.475   3.683  51.710  1.00  0.00     0.215 C 
HETATM    9  N3  UNL     1      19.699   2.805  52.215  1.00  0.00    -0.256 NA
HETATM   10  C13 UNL     1      20.376   1.784  52.929  1.00  0.00     0.118 C 
HETATM   11  C14 UNL     1      20.718   0.920  53.842  1.00  0.00     0.019 C 
HETATM   12  C15 UNL     1      21.248  -0.086  54.730  1.00  0.00    -0.003 C 
HETATM   13  C16 UNL     1      22.333  -0.710  54.318  1.00  0.00    -0.025 C 
HETATM   14  C17 UNL     1      23.299  -0.787  53.224  1.00  0.00     0.044 C 
HETATM   15  C18 UNL     1      24.672  -0.552  53.782  1.00  0.00     0.071 C 
HETATM   16  S1  UNL     1      25.661   0.768  53.710  1.00  0.00    -0.116 SA
HETATM   17  C19 UNL     1      25.022   2.004  52.850  1.00  0.00     0.163 C 
HETATM   18  N4  UNL     1      23.740   2.146  52.315  1.00  0.00    -0.249 NA
HETATM   19  C20 UNL     1      23.087   3.292  52.428  1.00  0.00     0.215 C 
ENDBRANCH   5   7
BRANCH   1  20
HETATM   20  C1  UNL     1      24.588   5.937  48.852  1.00  0.00     0.192 C 
HETATM   21  O1  UNL     1      24.139   7.117  49.040  1.00  0.00    -0.287 OA
BRANCH  20  22
HETATM   22  C2  UNL     1      26.003   6.014  48.582  1.00  0.00     0.018 A 
HETATM   23  C3  UNL     1      26.904   5.000  48.801  1.00  0.00     0.034 A 
HETATM   24  C4  UNL     1      28.259   5.158  48.475  1.00  0.00     0.117 A 
HETATM   25  N1  UNL     1      28.694   6.310  47.940  1.00  0.00    -0.273 NA
HETATM   26  C5  UNL     1      27.884   7.341  47.697  1.00  0.00     0.117 A 
HETATM   27  C6  UNL     1      26.583   7.133  48.032  1.00  0.00     0.034 A 
ENDBRANCH  20  22
ENDBRANCH   1  20
TORSDOF 3
ENDMDL
