MODEL 1
REMARK VINA RESULT:      -7.2      0.000      0.000
REMARK  9 active torsions:
REMARK  status: ('A' for Active; 'I' for Inactive)
REMARK    1  A    between atoms: C2_2  and  O1_3 
REMARK    2  A    between atoms: O1_3  and  C3_4 
REMARK       I    between atoms: C3_4  and  N1_6 
REMARK    3  A    between atoms: N1_6  and  C4_7 
REMARK    4  A    between atoms: C11_16  and  N4_17 
REMARK    5  A    between atoms: N4_17  and  C12_18 
REMARK    6  A    between atoms: C12_18  and  C13_19 
REMARK    7  A    between atoms: C13_19  and  C14_20 
REMARK    8  A    between atoms: C14_20  and  C15_21 
REMARK    9  A    between atoms: C15_21  and  C16_22 
ROOT
HETATM    1  C4  UNL     1      24.521   0.356  53.230  1.00  0.00     0.037 A 
HETATM    2  C5  UNL     1      23.539  -0.633  53.292  1.00  0.00     0.030 A 
HETATM    3  C6  UNL     1      22.216  -0.325  53.076  1.00  0.00     0.016 A 
HETATM    4  C7  UNL     1      21.835   0.969  52.793  1.00  0.00     0.000 A 
HETATM    5  C8  UNL     1      20.529   1.321  52.563  1.00  0.00     0.073 A 
HETATM    6  C9  UNL     1      19.481   0.324  52.622  1.00  0.00     0.102 C 
HETATM    7  N2  UNL     1      18.655  -0.470  52.651  1.00  0.00    -0.191 NA
HETATM    8  C10 UNL     1      20.260   2.657  52.280  1.00  0.00     0.142 A 
HETATM    9  N3  UNL     1      21.252   3.592  52.230  1.00  0.00    -0.241 NA
HETATM   10  C11 UNL     1      22.540   3.236  52.458  1.00  0.00     0.138 A 
HETATM   11  C17 UNL     1      22.844   1.930  52.741  1.00  0.00     0.024 A 
HETATM   12  C18 UNL     1      24.159   1.644  52.952  1.00  0.00     0.045 A 
ENDROOT
BRANCH  10  13
HETATM   13  N4  UNL     1      23.451   4.311  52.356  1.00  0.00    -0.350 N 
HETATM   14  H10 UNL     1      24.089   4.606  53.127  1.00  0.00     0.166 HD
BRANCH  13  15
HETATM   15  C12 UNL     1      23.476   5.035  51.110  1.00  0.00     0.090 C 
BRANCH  15  16
HETATM   16  C13 UNL     1      24.501   4.455  50.455  1.00  0.00     0.025 C 
BRANCH  16  17
HETATM   17  C14 UNL     1      24.561   3.474  49.397  1.00  0.00     0.057 C 
BRANCH  17  18
HETATM   18  C15 UNL     1      23.459   2.924  48.895  1.00  0.00    -0.121 C 
BRANCH  18  19
HETATM   19  C16 UNL     1      22.398   2.606  48.161  1.00  0.00     0.111 C 
HETATM   20 BR1  UNL     1      21.451   1.163  48.932  1.00  0.00    -0.055 Br
ENDBRANCH  18  19
ENDBRANCH  17  18
ENDBRANCH  16  17
ENDBRANCH  15  16
ENDBRANCH  13  15
ENDBRANCH  10  13
BRANCH   1  21
HETATM   21  N1  UNL     1      25.811  -0.176  53.473  1.00  0.00    -0.303 N 
HETATM   22  C3  UNL     1      26.720   0.091  54.515  1.00  0.00     0.365 C 
HETATM   23  O2  UNL     1      26.389   0.910  55.384  1.00  0.00    -0.238 OA
HETATM   24  H6  UNL     1      25.944  -0.846  52.664  1.00  0.00     0.171 HD
BRANCH  22  25
HETATM   25  O1  UNL     1      27.913  -0.578  54.492  1.00  0.00    -0.304 OA
BRANCH  25  26
HETATM   26  C2  UNL     1      29.155   0.055  54.249  1.00  0.00     0.176 C 
HETATM   27  C1  UNL     1      30.058  -0.918  53.534  1.00  0.00     0.034 C 
ENDBRANCH  25  26
ENDBRANCH  22  25
ENDBRANCH   1  21
TORSDOF 9
ENDMDL
MODEL 2
REMARK VINA RESULT:      -7.2      2.114      2.457
REMARK  9 active torsions:
REMARK  status: ('A' for Active; 'I' for Inactive)
REMARK    1  A    between atoms: C2_2  and  O1_3 
REMARK    2  A    between atoms: O1_3  and  C3_4 
REMARK       I    between atoms: C3_4  and  N1_6 
REMARK    3  A    between atoms: N1_6  and  C4_7 
REMARK    4  A    between atoms: C11_16  and  N4_17 
REMARK    5  A    between atoms: N4_17  and  C12_18 
REMARK    6  A    between atoms: C12_18  and  C13_19 
REMARK    7  A    between atoms: C13_19  and  C14_20 
REMARK    8  A    between atoms: C14_20  and  C15_21 
REMARK    9  A    between atoms: C15_21  and  C16_22 
ROOT
HETATM    1  C4  UNL     1      24.279  -0.077  53.592  1.00  0.00     0.037 A 
HETATM    2  C5  UNL     1      23.281  -0.916  54.090  1.00  0.00     0.030 A 
HETATM    3  C6  UNL     1      21.968  -0.742  53.723  1.00  0.00     0.016 A 
HETATM    4  C7  UNL     1      21.612   0.267  52.853  1.00  0.00     0.000 A 
HETATM    5  C8  UNL     1      20.315   0.473  52.452  1.00  0.00     0.073 A 
HETATM    6  C9  UNL     1      19.252  -0.373  52.950  1.00  0.00     0.102 C 
HETATM    7  N2  UNL     1      18.414  -1.056  53.330  1.00  0.00    -0.191 NA
HETATM    8  C10 UNL     1      20.072   1.518  51.566  1.00  0.00     0.142 A 
HETATM    9  N3  UNL     1      21.079   2.315  51.104  1.00  0.00    -0.241 NA
HETATM   10  C11 UNL     1      22.356   2.103  51.504  1.00  0.00     0.138 A 
HETATM   11  C17 UNL     1      22.635   1.085  52.377  1.00  0.00     0.024 A 
HETATM   12  C18 UNL     1      23.942   0.927  52.731  1.00  0.00     0.045 A 
ENDROOT
BRANCH  10  13
HETATM   13  N4  UNL     1      23.285   3.000  50.929  1.00  0.00    -0.350 N 
HETATM   14  H10 UNL     1      23.815   3.715  51.473  1.00  0.00     0.166 HD
BRANCH  13  15
HETATM   15  C12 UNL     1      23.490   2.909  49.505  1.00  0.00     0.090 C 
BRANCH  15  16
HETATM   16  C13 UNL     1      24.564   3.699  49.312  1.00  0.00     0.025 C 
BRANCH  16  17
HETATM   17  C14 UNL     1      25.964   3.552  49.638  1.00  0.00     0.057 C 
BRANCH  17  18
HETATM   18  C15 UNL     1      26.881   4.385  49.154  1.00  0.00    -0.121 C 
BRANCH  18  19
HETATM   19  C16 UNL     1      27.916   4.941  48.536  1.00  0.00     0.111 C 
HETATM   20 BR1  UNL     1      27.651   6.799  48.312  1.00  0.00    -0.055 Br
ENDBRANCH  18  19
ENDBRANCH  17  18
ENDBRANCH  16  17
ENDBRANCH  15  16
ENDBRANCH  13  15
ENDBRANCH  10  13
BRANCH   1  21
HETATM   21  N1  UNL     1      25.556  -0.436  54.089  1.00  0.00    -0.303 N 
HETATM   22  C3  UNL     1      26.594   0.372  54.590  1.00  0.00     0.365 C 
HETATM   23  O2  UNL     1      26.414   1.597  54.628  1.00  0.00    -0.238 OA
HETATM   24  H6  UNL     1      25.555  -1.491  53.995  1.00  0.00     0.171 HD
BRANCH  22  25
HETATM   25  O1  UNL     1      27.736  -0.258  55.003  1.00  0.00    -0.304 OA
BRANCH  25  26
HETATM   26  C2  UNL     1      29.028   0.100  54.550  1.00  0.00     0.176 C 
HETATM   27  C1  UNL     1      29.541  -0.994  53.648  1.00  0.00     0.034 C 
ENDBRANCH  25  26
ENDBRANCH  22  25
ENDBRANCH   1  21
TORSDOF 9
ENDMDL
MODEL 3
REMARK VINA RESULT:      -6.8      3.134      3.808
REMARK  9 active torsions:
REMARK  status: ('A' for Active; 'I' for Inactive)
REMARK    1  A    between atoms: C2_2  and  O1_3 
REMARK    2  A    between atoms: O1_3  and  C3_4 
REMARK       I    between atoms: C3_4  and  N1_6 
REMARK    3  A    between atoms: N1_6  and  C4_7 
REMARK    4  A    between atoms: C11_16  and  N4_17 
REMARK    5  A    between atoms: N4_17  and  C12_18 
REMARK    6  A    between atoms: C12_18  and  C13_19 
REMARK    7  A    between atoms: C13_19  and  C14_20 
REMARK    8  A    between atoms: C14_20  and  C15_21 
REMARK    9  A    between atoms: C15_21  and  C16_22 
ROOT
HETATM    1  C4  UNL     1      25.197   1.414  52.436  1.00  0.00     0.037 A 
HETATM    2  C5  UNL     1      23.925   1.020  52.852  1.00  0.00     0.030 A 
HETATM    3  C6  UNL     1      22.830   1.818  52.618  1.00  0.00     0.016 A 
HETATM    4  C7  UNL     1      22.970   3.024  51.965  1.00  0.00     0.000 A 
HETATM    5  C8  UNL     1      21.905   3.850  51.703  1.00  0.00     0.073 A 
HETATM    6  C9  UNL     1      20.571   3.478  52.123  1.00  0.00     0.102 C 
HETATM    7  N2  UNL     1      19.512   3.174  52.440  1.00  0.00    -0.191 NA
HETATM    8  C10 UNL     1      22.161   5.041  51.031  1.00  0.00     0.142 A 
HETATM    9  N3  UNL     1      23.422   5.387  50.642  1.00  0.00    -0.241 NA
HETATM   10  C11 UNL     1      24.468   4.565  50.904  1.00  0.00     0.138 A 
HETATM   11  C17 UNL     1      24.255   3.384  51.565  1.00  0.00     0.024 A 
HETATM   12  C18 UNL     1      25.352   2.606  51.789  1.00  0.00     0.045 A 
ENDROOT
BRANCH  10  13
HETATM   13  N4  UNL     1      25.705   5.054  50.426  1.00  0.00    -0.350 N 
HETATM   14  H10 UNL     1      26.614   4.560  50.559  1.00  0.00     0.166 HD
BRANCH  13  15
HETATM   15  C12 UNL     1      25.687   6.314  49.727  1.00  0.00     0.090 C 
BRANCH  15  16
HETATM   16  C13 UNL     1      26.688   6.170  48.837  1.00  0.00     0.025 C 
BRANCH  16  17
HETATM   17  C14 UNL     1      27.654   5.121  48.606  1.00  0.00     0.057 C 
BRANCH  17  18
HETATM   18  C15 UNL     1      28.881   5.390  48.169  1.00  0.00    -0.121 C 
BRANCH  18  19
HETATM   19  C16 UNL     1      30.173   5.679  48.054  1.00  0.00     0.111 C 
HETATM   20 BR1  UNL     1      30.513   7.467  48.563  1.00  0.00    -0.055 Br
ENDBRANCH  18  19
ENDBRANCH  17  18
ENDBRANCH  16  17
ENDBRANCH  15  16
ENDBRANCH  13  15
ENDBRANCH  10  13
BRANCH   1  21
HETATM   21  N1  UNL     1      26.177   0.444  52.767  1.00  0.00    -0.303 N 
HETATM   22  C3  UNL     1      26.876   0.238  53.971  1.00  0.00     0.365 C 
HETATM   23  O2  UNL     1      26.634   0.992  54.924  1.00  0.00    -0.238 OA
HETATM   24  H6  UNL     1      26.267  -0.112  51.870  1.00  0.00     0.171 HD
BRANCH  22  25
HETATM   25  O1  UNL     1      27.780  -0.789  54.002  1.00  0.00    -0.304 OA
BRANCH  25  26
HETATM   26  C2  UNL     1      29.132  -0.622  54.383  1.00  0.00     0.176 C 
HETATM   27  C1  UNL     1      29.791   0.325  53.412  1.00  0.00     0.034 C 
ENDBRANCH  25  26
ENDBRANCH  22  25
ENDBRANCH   1  21
TORSDOF 9
ENDMDL
MODEL 4
REMARK VINA RESULT:      -6.6      3.890      6.465
REMARK  9 active torsions:
REMARK  status: ('A' for Active; 'I' for Inactive)
REMARK    1  A    between atoms: C2_2  and  O1_3 
REMARK    2  A    between atoms: O1_3  and  C3_4 
REMARK       I    between atoms: C3_4  and  N1_6 
REMARK    3  A    between atoms: N1_6  and  C4_7 
REMARK    4  A    between atoms: C11_16  and  N4_17 
REMARK    5  A    between atoms: N4_17  and  C12_18 
REMARK    6  A    between atoms: C12_18  and  C13_19 
REMARK    7  A    between atoms: C13_19  and  C14_20 
REMARK    8  A    between atoms: C14_20  and  C15_21 
REMARK    9  A    between atoms: C15_21  and  C16_22 
ROOT
HETATM    1  C4  UNL     1      22.380   1.163  51.768  1.00  0.00     0.037 A 
HETATM    2  C5  UNL     1      22.723   0.369  52.863  1.00  0.00     0.030 A 
HETATM    3  C6  UNL     1      24.023   0.308  53.307  1.00  0.00     0.016 A 
HETATM    4  C7  UNL     1      25.013   1.032  52.677  1.00  0.00     0.000 A 
HETATM    5  C8  UNL     1      26.322   1.007  53.090  1.00  0.00     0.073 A 
HETATM    6  C9  UNL     1      26.717   0.194  54.219  1.00  0.00     0.102 C 
HETATM    7  N2  UNL     1      27.026  -0.436  55.125  1.00  0.00    -0.191 NA
HETATM    8  C10 UNL     1      27.236   1.783  52.383  1.00  0.00     0.142 A 
HETATM    9  N3  UNL     1      26.856   2.544  51.317  1.00  0.00    -0.241 NA
HETATM   10  C11 UNL     1      25.562   2.563  50.917  1.00  0.00     0.138 A 
HETATM   11  C17 UNL     1      24.632   1.812  51.586  1.00  0.00     0.024 A 
HETATM   12  C18 UNL     1      23.350   1.885  51.132  1.00  0.00     0.045 A 
ENDROOT
BRANCH  10  13
HETATM   13  N4  UNL     1      25.324   3.409  49.809  1.00  0.00    -0.350 N 
HETATM   14  H10 UNL     1      25.170   3.063  48.837  1.00  0.00     0.166 HD
BRANCH  13  15
HETATM   15  C12 UNL     1      25.308   4.828  50.060  1.00  0.00     0.090 C 
BRANCH  15  16
HETATM   16  C13 UNL     1      26.189   5.296  49.153  1.00  0.00     0.025 C 
BRANCH  16  17
HETATM   17  C14 UNL     1      27.493   4.844  48.726  1.00  0.00     0.057 C 
BRANCH  17  18
HETATM   18  C15 UNL     1      28.398   5.691  48.243  1.00  0.00    -0.121 C 
BRANCH  18  19
HETATM   19  C16 UNL     1      29.115   6.759  47.915  1.00  0.00     0.111 C 
HETATM   20 BR1  UNL     1      30.889   6.275  47.476  1.00  0.00    -0.055 Br
ENDBRANCH  18  19
ENDBRANCH  17  18
ENDBRANCH  16  17
ENDBRANCH  15  16
ENDBRANCH  13  15
ENDBRANCH  10  13
BRANCH   1  21
HETATM   21  N1  UNL     1      20.993   1.089  51.486  1.00  0.00    -0.303 N 
HETATM   22  C3  UNL     1      19.920   1.832  52.012  1.00  0.00     0.365 C 
HETATM   23  O2  UNL     1      20.172   2.703  52.857  1.00  0.00    -0.238 OA
HETATM   24  H6  UNL     1      20.943   0.319  50.761  1.00  0.00     0.171 HD
BRANCH  22  25
HETATM   25  O1  UNL     1      18.667   1.538  51.550  1.00  0.00    -0.304 OA
BRANCH  25  26
HETATM   26  C2  UNL     1      18.311   0.275  51.020  1.00  0.00     0.176 C 
HETATM   27  C1  UNL     1      17.868  -0.614  52.155  1.00  0.00     0.034 C 
ENDBRANCH  25  26
ENDBRANCH  22  25
ENDBRANCH   1  21
TORSDOF 9
ENDMDL
MODEL 5
REMARK VINA RESULT:      -6.5      2.192      4.843
REMARK  9 active torsions:
REMARK  status: ('A' for Active; 'I' for Inactive)
REMARK    1  A    between atoms: C2_2  and  O1_3 
REMARK    2  A    between atoms: O1_3  and  C3_4 
REMARK       I    between atoms: C3_4  and  N1_6 
REMARK    3  A    between atoms: N1_6  and  C4_7 
REMARK    4  A    between atoms: C11_16  and  N4_17 
REMARK    5  A    between atoms: N4_17  and  C12_18 
REMARK    6  A    between atoms: C12_18  and  C13_19 
REMARK    7  A    between atoms: C13_19  and  C14_20 
REMARK    8  A    between atoms: C14_20  and  C15_21 
REMARK    9  A    between atoms: C15_21  and  C16_22 
ROOT
HETATM    1  C4  UNL     1      25.976   1.409  51.945  1.00  0.00     0.037 A 
HETATM    2  C5  UNL     1      26.734   2.370  51.274  1.00  0.00     0.030 A 
HETATM    3  C6  UNL     1      26.124   3.353  50.531  1.00  0.00     0.016 A 
HETATM    4  C7  UNL     1      24.750   3.409  50.437  1.00  0.00     0.000 A 
HETATM    5  C8  UNL     1      24.098   4.376  49.714  1.00  0.00     0.073 A 
HETATM    6  C9  UNL     1      24.849   5.387  49.001  1.00  0.00     0.102 C 
HETATM    7  N2  UNL     1      25.444   6.198  48.452  1.00  0.00    -0.191 NA
HETATM    8  C10 UNL     1      22.707   4.340  49.694  1.00  0.00     0.142 A 
HETATM    9  N3  UNL     1      22.005   3.381  50.365  1.00  0.00    -0.241 NA
HETATM   10  C11 UNL     1      22.657   2.430  51.077  1.00  0.00     0.138 A 
HETATM   11  C17 UNL     1      24.026   2.432  51.120  1.00  0.00     0.024 A 
HETATM   12  C18 UNL     1      24.614   1.450  51.860  1.00  0.00     0.045 A 
ENDROOT
BRANCH  10  13
HETATM   13  N4  UNL     1      21.794   1.518  51.726  1.00  0.00    -0.350 N 
HETATM   14  H10 UNL     1      21.505   1.604  52.725  1.00  0.00     0.166 HD
BRANCH  13  15
HETATM   15  C12 UNL     1      21.305   0.409  50.948  1.00  0.00     0.090 C 
BRANCH  15  16
HETATM   16  C13 UNL     1      20.046   0.262  51.406  1.00  0.00     0.025 C 
BRANCH  16  17
HETATM   17  C14 UNL     1      19.501   0.030  52.723  1.00  0.00     0.057 C 
BRANCH  17  18
HETATM   18  C15 UNL     1      20.143  -0.713  53.621  1.00  0.00    -0.121 C 
BRANCH  18  19
HETATM   19  C16 UNL     1      20.932  -1.576  54.250  1.00  0.00     0.111 C 
HETATM   20 BR1  UNL     1      22.695  -0.908  54.383  1.00  0.00    -0.055 Br
ENDBRANCH  18  19
ENDBRANCH  17  18
ENDBRANCH  16  17
ENDBRANCH  15  16
ENDBRANCH  13  15
ENDBRANCH  10  13
BRANCH   1  21
HETATM   21  N1  UNL     1      26.799   0.499  52.654  1.00  0.00    -0.303 N 
HETATM   22  C3  UNL     1      27.110   0.438  54.025  1.00  0.00     0.365 C 
HETATM   23  O2  UNL     1      26.610   1.288  54.776  1.00  0.00    -0.238 OA
HETATM   24  H6  UNL     1      27.141  -0.150  51.891  1.00  0.00     0.171 HD
BRANCH  22  25
HETATM   25  O1  UNL     1      27.948  -0.563  54.434  1.00  0.00    -0.304 OA
BRANCH  25  26
HETATM   26  C2  UNL     1      29.227  -0.783  53.871  1.00  0.00     0.176 C 
HETATM   27  C1  UNL     1      29.255  -2.165  53.268  1.00  0.00     0.034 C 
ENDBRANCH  25  26
ENDBRANCH  22  25
ENDBRANCH   1  21
TORSDOF 9
ENDMDL
MODEL 6
REMARK VINA RESULT:      -6.4      3.133      5.774
REMARK  9 active torsions:
REMARK  status: ('A' for Active; 'I' for Inactive)
REMARK    1  A    between atoms: C2_2  and  O1_3 
REMARK    2  A    between atoms: O1_3  and  C3_4 
REMARK       I    between atoms: C3_4  and  N1_6 
REMARK    3  A    between atoms: N1_6  and  C4_7 
REMARK    4  A    between atoms: C11_16  and  N4_17 
REMARK    5  A    between atoms: N4_17  and  C12_18 
REMARK    6  A    between atoms: C12_18  and  C13_19 
REMARK    7  A    between atoms: C13_19  and  C14_20 
REMARK    8  A    between atoms: C14_20  and  C15_21 
REMARK    9  A    between atoms: C15_21  and  C16_22 
ROOT
HETATM    1  C4  UNL     1      25.244   3.047  50.389  1.00  0.00     0.037 A 
HETATM    2  C5  UNL     1      26.523   2.571  50.680  1.00  0.00     0.030 A 
HETATM    3  C6  UNL     1      26.706   1.556  51.589  1.00  0.00     0.016 A 
HETATM    4  C7  UNL     1      25.626   0.988  52.231  1.00  0.00     0.000 A 
HETATM    5  C8  UNL     1      25.760  -0.032  53.140  1.00  0.00     0.073 A 
HETATM    6  C9  UNL     1      27.071  -0.549  53.471  1.00  0.00     0.102 C 
HETATM    7  N2  UNL     1      28.107  -0.970  53.718  1.00  0.00    -0.191 NA
HETATM    8  C10 UNL     1      24.600  -0.535  53.721  1.00  0.00     0.142 A 
HETATM    9  N3  UNL     1      23.369  -0.040  53.407  1.00  0.00    -0.241 NA
HETATM   10  C11 UNL     1      23.245   0.967  52.508  1.00  0.00     0.138 A 
HETATM   11  C17 UNL     1      24.364   1.489  51.915  1.00  0.00     0.024 A 
HETATM   12  C18 UNL     1      24.164   2.494  51.017  1.00  0.00     0.045 A 
ENDROOT
BRANCH  10  13
HETATM   13  N4  UNL     1      21.907   1.360  52.279  1.00  0.00    -0.350 N 
HETATM   14  H10 UNL     1      21.516   2.283  52.568  1.00  0.00     0.166 HD
BRANCH  13  15
HETATM   15  C12 UNL     1      21.050   0.412  51.614  1.00  0.00     0.090 C 
BRANCH  15  16
HETATM   16  C13 UNL     1      20.809   1.013  50.432  1.00  0.00     0.025 C 
BRANCH  16  17
HETATM   17  C14 UNL     1      21.267   0.755  49.087  1.00  0.00     0.057 C 
BRANCH  17  18
HETATM   18  C15 UNL     1      21.975   1.654  48.409  1.00  0.00    -0.121 C 
BRANCH  18  19
HETATM   19  C16 UNL     1      22.486   2.459  47.484  1.00  0.00     0.111 C 
HETATM   20 BR1  UNL     1      21.174   3.649  46.824  1.00  0.00    -0.055 Br
ENDBRANCH  18  19
ENDBRANCH  17  18
ENDBRANCH  16  17
ENDBRANCH  15  16
ENDBRANCH  13  15
ENDBRANCH  10  13
BRANCH   1  21
HETATM   21  N1  UNL     1      25.281   4.082  49.422  1.00  0.00    -0.303 N 
HETATM   22  C3  UNL     1      25.161   5.476  49.582  1.00  0.00     0.365 C 
HETATM   23  O2  UNL     1      24.997   5.920  50.727  1.00  0.00    -0.238 OA
HETATM   24  H6  UNL     1      25.426   3.552  48.517  1.00  0.00     0.171 HD
BRANCH  22  25
HETATM   25  O1  UNL     1      25.232   6.245  48.453  1.00  0.00    -0.304 OA
BRANCH  25  26
HETATM   26  C2  UNL     1      26.309   7.120  48.176  1.00  0.00     0.176 C 
HETATM   27  C1  UNL     1      27.600   6.354  48.318  1.00  0.00     0.034 C 
ENDBRANCH  25  26
ENDBRANCH  22  25
ENDBRANCH   1  21
TORSDOF 9
ENDMDL
MODEL 7
REMARK VINA RESULT:      -6.3      2.976      6.758
REMARK  9 active torsions:
REMARK  status: ('A' for Active; 'I' for Inactive)
REMARK    1  A    between atoms: C2_2  and  O1_3 
REMARK    2  A    between atoms: O1_3  and  C3_4 
REMARK       I    between atoms: C3_4  and  N1_6 
REMARK    3  A    between atoms: N1_6  and  C4_7 
REMARK    4  A    between atoms: C11_16  and  N4_17 
REMARK    5  A    between atoms: N4_17  and  C12_18 
REMARK    6  A    between atoms: C12_18  and  C13_19 
REMARK    7  A    between atoms: C13_19  and  C14_20 
REMARK    8  A    between atoms: C14_20  and  C15_21 
REMARK    9  A    between atoms: C15_21  and  C16_22 
ROOT
HETATM    1  C4  UNL     1      23.912   2.089  51.099  1.00  0.00     0.037 A 
HETATM    2  C5  UNL     1      25.095   2.826  51.166  1.00  0.00     0.030 A 
HETATM    3  C6  UNL     1      26.059   2.524  52.099  1.00  0.00     0.016 A 
HETATM    4  C7  UNL     1      25.875   1.484  52.984  1.00  0.00     0.000 A 
HETATM    5  C8  UNL     1      26.813   1.142  53.926  1.00  0.00     0.073 A 
HETATM    6  C9  UNL     1      28.051   1.885  54.030  1.00  0.00     0.102 C 
HETATM    7  N2  UNL     1      29.038   2.462  54.099  1.00  0.00    -0.191 NA
HETATM    8  C10 UNL     1      26.524   0.069  54.764  1.00  0.00     0.142 A 
HETATM    9  N3  UNL     1      25.354  -0.624  54.664  1.00  0.00    -0.241 NA
HETATM   10  C11 UNL     1      24.434  -0.280  53.730  1.00  0.00     0.138 A 
HETATM   11  C17 UNL     1      24.681   0.771  52.887  1.00  0.00     0.024 A 
HETATM   12  C18 UNL     1      23.714   1.057  51.971  1.00  0.00     0.045 A 
ENDROOT
BRANCH  10  13
HETATM   13  N4  UNL     1      23.282  -1.100  53.741  1.00  0.00    -0.350 N 
HETATM   14  H10 UNL     1      22.943  -1.634  52.912  1.00  0.00     0.166 HD
BRANCH  13  15
HETATM   15  C12 UNL     1      22.545  -1.180  54.976  1.00  0.00     0.090 C 
BRANCH  15  16
HETATM   16  C13 UNL     1      21.460  -0.422  54.720  1.00  0.00     0.025 C 
BRANCH  16  17
HETATM   17  C14 UNL     1      20.354  -0.569  53.802  1.00  0.00     0.057 C 
BRANCH  17  18
HETATM   18  C15 UNL     1      20.020   0.401  52.956  1.00  0.00    -0.121 C 
BRANCH  18  19
HETATM   19  C16 UNL     1      20.000   1.459  52.153  1.00  0.00     0.111 C 
HETATM   20 BR1  UNL     1      19.603   0.951  50.376  1.00  0.00    -0.055 Br
ENDBRANCH  18  19
ENDBRANCH  17  18
ENDBRANCH  16  17
ENDBRANCH  15  16
ENDBRANCH  13  15
ENDBRANCH  10  13
BRANCH   1  21
HETATM   21  N1  UNL     1      23.064   2.560  50.065  1.00  0.00    -0.303 N 
HETATM   22  C3  UNL     1      22.173   3.649  50.050  1.00  0.00     0.365 C 
HETATM   23  O2  UNL     1      22.078   4.341  51.073  1.00  0.00    -0.238 OA
HETATM   24  H6  UNL     1      23.259   1.881  49.276  1.00  0.00     0.171 HD
BRANCH  22  25
HETATM   25  O1  UNL     1      21.470   3.868  48.896  1.00  0.00    -0.304 OA
BRANCH  25  26
HETATM   26  C2  UNL     1      22.051   4.397  47.721  1.00  0.00     0.176 C 
HETATM   27  C1  UNL     1      21.891   3.390  46.610  1.00  0.00     0.034 C 
ENDBRANCH  25  26
ENDBRANCH  22  25
ENDBRANCH   1  21
TORSDOF 9
ENDMDL
MODEL 8
REMARK VINA RESULT:      -6.3      5.654      8.158
REMARK  9 active torsions:
REMARK  status: ('A' for Active; 'I' for Inactive)
REMARK    1  A    between atoms: C2_2  and  O1_3 
REMARK    2  A    between atoms: O1_3  and  C3_4 
REMARK       I    between atoms: C3_4  and  N1_6 
REMARK    3  A    between atoms: N1_6  and  C4_7 
REMARK    4  A    between atoms: C11_16  and  N4_17 
REMARK    5  A    between atoms: N4_17  and  C12_18 
REMARK    6  A    between atoms: C12_18  and  C13_19 
REMARK    7  A    between atoms: C13_19  and  C14_20 
REMARK    8  A    between atoms: C14_20  and  C15_21 
REMARK    9  A    between atoms: C15_21  and  C16_22 
ROOT
HETATM    1  C4  UNL     1      29.201   5.618  48.035  1.00  0.00     0.037 A 
HETATM    2  C5  UNL     1      28.930   6.923  47.621  1.00  0.00     0.030 A 
HETATM    3  C6  UNL     1      27.670   7.456  47.757  1.00  0.00     0.016 A 
HETATM    4  C7  UNL     1      26.649   6.710  48.306  1.00  0.00     0.000 A 
HETATM    5  C8  UNL     1      25.379   7.204  48.469  1.00  0.00     0.073 A 
HETATM    6  C9  UNL     1      25.058   8.551  48.049  1.00  0.00     0.102 C 
HETATM    7  N2  UNL     1      24.810   9.624  47.733  1.00  0.00    -0.191 NA
HETATM    8  C10 UNL     1      24.428   6.364  49.041  1.00  0.00     0.142 A 
HETATM    9  N3  UNL     1      24.737   5.093  49.431  1.00  0.00    -0.241 NA
HETATM   10  C11 UNL     1      25.994   4.615  49.268  1.00  0.00     0.138 A 
HETATM   11  C17 UNL     1      26.957   5.411  48.707  1.00  0.00     0.024 A 
HETATM   12  C18 UNL     1      28.200   4.866  48.579  1.00  0.00     0.045 A 
ENDROOT
BRANCH  10  13
HETATM   13  N4  UNL     1      26.160   3.290  49.733  1.00  0.00    -0.350 N 
HETATM   14  H10 UNL     1      26.575   2.522  49.162  1.00  0.00     0.166 HD
BRANCH  13  15
HETATM   15  C12 UNL     1      25.714   3.004  51.073  1.00  0.00     0.090 C 
BRANCH  15  16
HETATM   16  C13 UNL     1      26.449   1.924  51.403  1.00  0.00     0.025 C 
BRANCH  16  17
HETATM   17  C14 UNL     1      26.119   0.667  52.033  1.00  0.00     0.057 C 
BRANCH  17  18
HETATM   18  C15 UNL     1      27.064  -0.181  52.430  1.00  0.00    -0.121 C 
BRANCH  18  19
HETATM   19  C16 UNL     1      27.865  -0.986  53.119  1.00  0.00     0.111 C 
HETATM   20 BR1  UNL     1      29.436  -0.081  53.654  1.00  0.00    -0.055 Br
ENDBRANCH  18  19
ENDBRANCH  17  18
ENDBRANCH  16  17
ENDBRANCH  15  16
ENDBRANCH  13  15
ENDBRANCH  10  13
BRANCH   1  21
HETATM   21  N1  UNL     1      30.557   5.273  47.814  1.00  0.00    -0.303 N 
HETATM   22  C3  UNL     1      31.662   5.339  48.683  1.00  0.00     0.365 C 
HETATM   23  O2  UNL     1      31.476   5.756  49.835  1.00  0.00    -0.238 OA
HETATM   24  H6  UNL     1      30.553   4.940  46.808  1.00  0.00     0.171 HD
BRANCH  22  25
HETATM   25  O1  UNL     1      32.873   4.937  48.189  1.00  0.00    -0.304 OA
BRANCH  25  26
HETATM   26  C2  UNL     1      33.012   4.097  47.059  1.00  0.00     0.176 C 
HETATM   27  C1  UNL     1      33.836   2.897  47.451  1.00  0.00     0.034 C 
ENDBRANCH  25  26
ENDBRANCH  22  25
ENDBRANCH   1  21
TORSDOF 9
ENDMDL
MODEL 9
REMARK VINA RESULT:      -6.2      2.734      5.820
REMARK  9 active torsions:
REMARK  status: ('A' for Active; 'I' for Inactive)
REMARK    1  A    between atoms: C2_2  and  O1_3 
REMARK    2  A    between atoms: O1_3  and  C3_4 
REMARK       I    between atoms: C3_4  and  N1_6 
REMARK    3  A    between atoms: N1_6  and  C4_7 
REMARK    4  A    between atoms: C11_16  and  N4_17 
REMARK    5  A    between atoms: N4_17  and  C12_18 
REMARK    6  A    between atoms: C12_18  and  C13_19 
REMARK    7  A    between atoms: C13_19  and  C14_20 
REMARK    8  A    between atoms: C14_20  and  C15_21 
REMARK    9  A    between atoms: C15_21  and  C16_22 
ROOT
HETATM    1  C4  UNL     1      22.618   0.075  52.675  1.00  0.00     0.037 A 
HETATM    2  C5  UNL     1      23.431  -0.702  53.500  1.00  0.00     0.030 A 
HETATM    3  C6  UNL     1      24.780  -0.453  53.594  1.00  0.00     0.016 A 
HETATM    4  C7  UNL     1      25.355   0.571  52.873  1.00  0.00     0.000 A 
HETATM    5  C8  UNL     1      26.695   0.861  52.941  1.00  0.00     0.073 A 
HETATM    6  C9  UNL     1      27.571   0.076  53.783  1.00  0.00     0.102 C 
HETATM    7  N2  UNL     1      28.261  -0.535  54.464  1.00  0.00    -0.191 NA
HETATM    8  C10 UNL     1      27.165   1.923  52.174  1.00  0.00     0.142 A 
HETATM    9  N3  UNL     1      26.334   2.657  51.379  1.00  0.00    -0.241 NA
HETATM   10  C11 UNL     1      25.012   2.364  51.319  1.00  0.00     0.138 A 
HETATM   11  C17 UNL     1      24.511   1.325  52.059  1.00  0.00     0.024 A 
HETATM   12  C18 UNL     1      23.173   1.093  51.953  1.00  0.00     0.045 A 
ENDROOT
BRANCH  10  13
HETATM   13  N4  UNL     1      24.281   3.221  50.465  1.00  0.00    -0.350 N 
HETATM   14  H10 UNL     1      23.686   2.885  49.677  1.00  0.00     0.166 HD
BRANCH  13  15
HETATM   15  C12 UNL     1      24.387   4.637  50.710  1.00  0.00     0.090 C 
BRANCH  15  16
HETATM   16  C13 UNL     1      23.586   4.811  51.779  1.00  0.00     0.025 C 
BRANCH  16  17
HETATM   17  C14 UNL     1      22.246   5.330  51.928  1.00  0.00     0.057 C 
BRANCH  17  18
HETATM   18  C15 UNL     1      21.234   4.863  51.202  1.00  0.00    -0.121 C 
BRANCH  18  19
HETATM   19  C16 UNL     1      20.046   4.502  50.732  1.00  0.00     0.111 C 
HETATM   20 BR1  UNL     1      19.743   2.656  51.002  1.00  0.00    -0.055 Br
ENDBRANCH  18  19
ENDBRANCH  17  18
ENDBRANCH  16  17
ENDBRANCH  15  16
ENDBRANCH  13  15
ENDBRANCH  10  13
BRANCH   1  21
HETATM   21  N1  UNL     1      21.265  -0.344  52.734  1.00  0.00    -0.303 N 
HETATM   22  C3  UNL     1      20.296  -0.138  53.733  1.00  0.00     0.365 C 
HETATM   23  O2  UNL     1      20.623   0.505  54.741  1.00  0.00    -0.238 OA
HETATM   24  H6  UNL     1      21.142  -0.866  51.821  1.00  0.00     0.171 HD
BRANCH  22  25
HETATM   25  O1  UNL     1      19.053  -0.668  53.520  1.00  0.00    -0.304 OA
BRANCH  25  26
HETATM   26  C2  UNL     1      18.368  -0.570  52.286  1.00  0.00     0.176 C 
HETATM   27  C1  UNL     1      16.986  -1.150  52.456  1.00  0.00     0.034 C 
ENDBRANCH  25  26
ENDBRANCH  22  25
ENDBRANCH   1  21
TORSDOF 9
ENDMDL
