MODEL 1
REMARK VINA RESULT:      -7.3      0.000      0.000
REMARK  4 active torsions:
REMARK  status: ('A' for Active; 'I' for Inactive)
REMARK    1  A    between atoms: C2_2  and  C3_3 
REMARK    2  A    between atoms: C5_9  and  O2_10 
REMARK    3  A    between atoms: C7_12  and  N3_13 
REMARK    4  A    between atoms: N3_13  and  C8_14 
ROOT
HETATM    1  C3  UNL     1      22.484   2.071  49.425  1.00  0.00     0.054 C 
HETATM    2  N1  UNL     1      23.062   1.732  50.611  1.00  0.00    -0.174 NA
HETATM    3  N2  UNL     1      24.041   2.642  51.204  1.00  0.00    -0.226 N 
HETATM    4  P1  UNL     1      23.837   4.040  52.430  1.00  0.00     0.144 P 
HETATM    5  O1  UNL     1      24.190   5.361  51.186  1.00  0.00    -0.301 OA
HETATM    6  C4  UNL     1      24.394   4.598  49.928  1.00  0.00     0.108 C 
HETATM    7  C5  UNL     1      25.647   4.020  50.007  1.00  0.00     0.123 C 
HETATM    8  C7  UNL     1      25.469   2.715  50.798  1.00  0.00     0.269 C 
HETATM    9  C14 UNL     1      23.480   4.403  48.727  1.00  0.00     0.042 C 
HETATM   10  C15 UNL     1      22.669   3.297  48.542  1.00  0.00     0.032 C 
HETATM   11  H6  UNL     1      24.883   4.007  53.395  1.00  0.00     0.113 HD
ENDROOT
BRANCH   8  12
HETATM   12  N3  UNL     1      26.270   2.848  51.983  1.00  0.00    -0.362 N 
HETATM   13  H11 UNL     1      26.302   3.761  52.531  1.00  0.00     0.162 HD
BRANCH  12  14
HETATM   14  C8  UNL     1      27.064   1.816  52.515  1.00  0.00     0.029 A 
HETATM   15  C9  UNL     1      26.823   0.472  52.336  1.00  0.00     0.029 A 
HETATM   16  C10 UNL     1      27.587  -0.555  52.850  1.00  0.00     0.002 A 
HETATM   17  C11 UNL     1      28.693  -0.228  53.615  1.00  0.00     0.000 A 
HETATM   18  C12 UNL     1      28.992   1.091  53.836  1.00  0.00     0.002 A 
HETATM   19  C13 UNL     1      28.187   2.039  53.292  1.00  0.00     0.029 A 
ENDBRANCH  12  14
ENDBRANCH   8  12
BRANCH   7  20
HETATM   20  O2  UNL     1      27.045   4.005  49.730  1.00  0.00    -0.353 OA
HETATM   21  C6  UNL     1      27.595   4.760  48.677  1.00  0.00     0.209 C 
ENDBRANCH   7  20
BRANCH   1  22
HETATM   22  C2  UNL     1      21.495   1.120  48.844  1.00  0.00     0.056 C 
HETATM   23  C1  UNL     1      20.352   1.002  49.821  1.00  0.00     0.011 C 
ENDBRANCH   1  22
TORSDOF 4
ENDMDL
MODEL 2
REMARK VINA RESULT:      -7.0      2.145      5.156
REMARK  4 active torsions:
REMARK  status: ('A' for Active; 'I' for Inactive)
REMARK    1  A    between atoms: C2_2  and  C3_3 
REMARK    2  A    between atoms: C5_9  and  O2_10 
REMARK    3  A    between atoms: C7_12  and  N3_13 
REMARK    4  A    between atoms: N3_13  and  C8_14 
ROOT
HETATM    1  C3  UNL     1      24.870   0.962  53.087  1.00  0.00     0.054 C 
HETATM    2  N1  UNL     1      25.365   2.189  52.764  1.00  0.00    -0.174 NA
HETATM    3  N2  UNL     1      24.547   3.089  51.952  1.00  0.00    -0.226 N 
HETATM    4  P1  UNL     1      23.322   4.415  52.441  1.00  0.00     0.144 P 
HETATM    5  O1  UNL     1      21.850   3.456  51.863  1.00  0.00    -0.301 OA
HETATM    6  C4  UNL     1      22.443   2.181  51.382  1.00  0.00     0.108 C 
HETATM    7  C5  UNL     1      23.033   2.448  50.162  1.00  0.00     0.123 C 
HETATM    8  C7  UNL     1      24.430   3.007  50.473  1.00  0.00     0.269 C 
HETATM    9  C14 UNL     1      22.472   0.799  52.018  1.00  0.00     0.042 C 
HETATM   10  C15 UNL     1      23.539   0.305  52.747  1.00  0.00     0.032 C 
HETATM   11  H6  UNL     1      23.487   5.567  51.621  1.00  0.00     0.113 HD
ENDROOT
BRANCH   8  12
HETATM   12  N3  UNL     1      24.459   4.342  49.943  1.00  0.00    -0.362 N 
HETATM   13  H11 UNL     1      23.597   4.967  49.968  1.00  0.00     0.162 HD
BRANCH  12  14
HETATM   14  C8  UNL     1      25.595   4.931  49.358  1.00  0.00     0.029 A 
HETATM   15  C9  UNL     1      26.807   4.300  49.195  1.00  0.00     0.029 A 
HETATM   16  C10 UNL     1      27.933   4.859  48.627  1.00  0.00     0.002 A 
HETATM   17  C11 UNL     1      27.858   6.166  48.176  1.00  0.00     0.000 A 
HETATM   18  C12 UNL     1      26.680   6.856  48.307  1.00  0.00     0.002 A 
HETATM   19  C13 UNL     1      25.621   6.228  48.878  1.00  0.00     0.029 A 
ENDBRANCH  12  14
ENDBRANCH   8  12
BRANCH   7  20
HETATM   20  O2  UNL     1      23.020   2.474  48.736  1.00  0.00    -0.353 OA
HETATM   21  C6  UNL     1      22.051   1.770  47.997  1.00  0.00     0.209 C 
ENDBRANCH   7  20
BRANCH   1  22
HETATM   22  C2  UNL     1      25.730   0.066  53.910  1.00  0.00     0.056 C 
HETATM   23  C1  UNL     1      26.467  -0.849  52.963  1.00  0.00     0.011 C 
ENDBRANCH   1  22
TORSDOF 4
ENDMDL
MODEL 3
REMARK VINA RESULT:      -6.4      1.573      1.980
REMARK  4 active torsions:
REMARK  status: ('A' for Active; 'I' for Inactive)
REMARK    1  A    between atoms: C2_2  and  C3_3 
REMARK    2  A    between atoms: C5_9  and  O2_10 
REMARK    3  A    between atoms: C7_12  and  N3_13 
REMARK    4  A    between atoms: N3_13  and  C8_14 
ROOT
HETATM    1  C3  UNL     1      22.085   3.624  48.427  1.00  0.00     0.054 C 
HETATM    2  N1  UNL     1      22.368   2.963  49.583  1.00  0.00    -0.174 NA
HETATM    3  N2  UNL     1      23.415   3.489  50.458  1.00  0.00    -0.226 N 
HETATM    4  P1  UNL     1      23.331   4.674  51.903  1.00  0.00     0.144 P 
HETATM    5  O1  UNL     1      24.173   6.048  50.996  1.00  0.00    -0.301 OA
HETATM    6  C4  UNL     1      24.404   5.473  49.646  1.00  0.00     0.108 C 
HETATM    7  C5  UNL     1      25.464   4.594  49.760  1.00  0.00     0.123 C 
HETATM    8  C7  UNL     1      24.869   3.264  50.251  1.00  0.00     0.269 C 
HETATM    9  C14 UNL     1      23.682   5.712  48.329  1.00  0.00     0.042 C 
HETATM   10  C15 UNL     1      22.684   4.891  47.832  1.00  0.00     0.032 C 
HETATM   11  H6  UNL     1      24.169   4.223  52.961  1.00  0.00     0.113 HD
ENDROOT
BRANCH   8  12
HETATM   12  N3  UNL     1      25.472   2.997  51.526  1.00  0.00    -0.362 N 
HETATM   13  H11 UNL     1      25.853   3.784  52.136  1.00  0.00     0.162 HD
BRANCH  12  14
HETATM   14  C8  UNL     1      25.614   1.709  52.075  1.00  0.00     0.029 A 
HETATM   15  C9  UNL     1      24.686   1.101  52.891  1.00  0.00     0.029 A 
HETATM   16  C10 UNL     1      24.806  -0.158  53.441  1.00  0.00     0.002 A 
HETATM   17  C11 UNL     1      25.948  -0.888  53.163  1.00  0.00     0.000 A 
HETATM   18  C12 UNL     1      26.915  -0.343  52.358  1.00  0.00     0.002 A 
HETATM   19  C13 UNL     1      26.716   0.902  51.858  1.00  0.00     0.029 A 
ENDBRANCH  12  14
ENDBRANCH   8  12
BRANCH   7  20
HETATM   20  O2  UNL     1      26.850   4.272  49.657  1.00  0.00    -0.353 OA
HETATM   21  C6  UNL     1      27.660   4.825  48.648  1.00  0.00     0.209 C 
ENDBRANCH   7  20
BRANCH   1  22
HETATM   22  C2  UNL     1      21.017   3.060  47.554  1.00  0.00     0.056 C 
HETATM   23  C1  UNL     1      20.710   4.088  46.494  1.00  0.00     0.011 C 
ENDBRANCH   1  22
TORSDOF 4
ENDMDL
MODEL 4
REMARK VINA RESULT:      -6.1      2.780      4.172
REMARK  4 active torsions:
REMARK  status: ('A' for Active; 'I' for Inactive)
REMARK    1  A    between atoms: C2_2  and  C3_3 
REMARK    2  A    between atoms: C5_9  and  O2_10 
REMARK    3  A    between atoms: C7_12  and  N3_13 
REMARK    4  A    between atoms: N3_13  and  C8_14 
ROOT
HETATM    1  C3  UNL     1      21.742   3.743  48.492  1.00  0.00     0.054 C 
HETATM    2  N1  UNL     1      21.194   3.286  49.652  1.00  0.00    -0.174 NA
HETATM    3  N2  UNL     1      21.997   3.318  50.873  1.00  0.00    -0.226 N 
HETATM    4  P1  UNL     1      22.158   4.620  52.206  1.00  0.00     0.144 P 
HETATM    5  O1  UNL     1      23.879   5.093  51.725  1.00  0.00    -0.301 OA
HETATM    6  C4  UNL     1      24.154   4.225  50.550  1.00  0.00     0.108 C 
HETATM    7  C5  UNL     1      24.395   2.955  51.037  1.00  0.00     0.123 C 
HETATM    8  C7  UNL     1      23.019   2.299  51.229  1.00  0.00     0.269 C 
HETATM    9  C14 UNL     1      24.180   4.548  49.063  1.00  0.00     0.042 C 
HETATM   10  C15 UNL     1      23.119   4.325  48.204  1.00  0.00     0.032 C 
HETATM   11  H6  UNL     1      22.178   4.010  53.493  1.00  0.00     0.113 HD
ENDROOT
BRANCH   8  12
HETATM   12  N3  UNL     1      22.901   2.011  52.631  1.00  0.00    -0.362 N 
HETATM   13  H11 UNL     1      23.327   2.652  53.368  1.00  0.00     0.162 HD
BRANCH  12  14
HETATM   14  C8  UNL     1      22.231   0.887  53.150  1.00  0.00     0.029 A 
HETATM   15  C9  UNL     1      20.865   0.716  53.132  1.00  0.00     0.029 A 
HETATM   16  C10 UNL     1      20.188  -0.375  53.637  1.00  0.00     0.002 A 
HETATM   17  C11 UNL     1      20.926  -1.394  54.213  1.00  0.00     0.000 A 
HETATM   18  C12 UNL     1      22.292  -1.289  54.265  1.00  0.00     0.002 A 
HETATM   19  C13 UNL     1      22.877  -0.181  53.745  1.00  0.00     0.029 A 
ENDBRANCH  12  14
ENDBRANCH   8  12
BRANCH   7  20
HETATM   20  O2  UNL     1      25.275   1.916  51.461  1.00  0.00    -0.353 OA
HETATM   21  C6  UNL     1      26.672   2.081  51.439  1.00  0.00     0.209 C 
ENDBRANCH   7  20
BRANCH   1  22
HETATM   22  C2  UNL     1      20.899   3.691  47.264  1.00  0.00     0.056 C 
HETATM   23  C1  UNL     1      21.831   3.614  46.080  1.00  0.00     0.011 C 
ENDBRANCH   1  22
TORSDOF 4
ENDMDL
MODEL 5
REMARK VINA RESULT:      -6.1      3.582      5.478
REMARK  4 active torsions:
REMARK  status: ('A' for Active; 'I' for Inactive)
REMARK    1  A    between atoms: C2_2  and  C3_3 
REMARK    2  A    between atoms: C5_9  and  O2_10 
REMARK    3  A    between atoms: C7_12  and  N3_13 
REMARK    4  A    between atoms: N3_13  and  C8_14 
ROOT
HETATM    1  C3  UNL     1      24.090   4.113  49.696  1.00  0.00     0.054 C 
HETATM    2  N1  UNL     1      23.920   2.826  50.109  1.00  0.00    -0.174 NA
HETATM    3  N2  UNL     1      22.566   2.276  50.166  1.00  0.00    -0.226 N 
HETATM    4  P1  UNL     1      21.568   1.331  48.898  1.00  0.00     0.144 P 
HETATM    5  O1  UNL     1      20.390   2.723  48.591  1.00  0.00    -0.301 OA
HETATM    6  C4  UNL     1      20.906   3.804  49.471  1.00  0.00     0.108 C 
HETATM    7  C5  UNL     1      20.540   3.479  50.763  1.00  0.00     0.123 C 
HETATM    8  C7  UNL     1      21.614   2.511  51.283  1.00  0.00     0.269 C 
HETATM    9  C14 UNL     1      21.700   5.059  49.139  1.00  0.00     0.042 C 
HETATM   10  C15 UNL     1      23.076   5.157  49.249  1.00  0.00     0.032 C 
HETATM   11  H6  UNL     1      20.874   0.254  49.519  1.00  0.00     0.113 HD
ENDROOT
BRANCH   8  12
HETATM   12  N3  UNL     1      20.941   1.276  51.571  1.00  0.00    -0.362 N 
HETATM   13  H11 UNL     1      20.087   0.967  51.014  1.00  0.00     0.162 HD
BRANCH  12  14
HETATM   14  C8  UNL     1      21.334   0.384  52.586  1.00  0.00     0.029 A 
HETATM   15  C9  UNL     1      20.477  -0.452  53.266  1.00  0.00     0.029 A 
HETATM   16  C10 UNL     1      20.839  -1.332  54.264  1.00  0.00     0.002 A 
HETATM   17  C11 UNL     1      22.173  -1.395  54.629  1.00  0.00     0.000 A 
HETATM   18  C12 UNL     1      23.082  -0.589  53.993  1.00  0.00     0.002 A 
HETATM   19  C13 UNL     1      22.640   0.248  53.021  1.00  0.00     0.029 A 
ENDBRANCH  12  14
ENDBRANCH   8  12
BRANCH   7  20
HETATM   20  O2  UNL     1      19.667   3.577  51.887  1.00  0.00    -0.353 OA
HETATM   21  C6  UNL     1      18.269   3.559  51.736  1.00  0.00     0.209 C 
ENDBRANCH   7  20
BRANCH   1  22
HETATM   22  C2  UNL     1      25.481   4.646  49.655  1.00  0.00     0.056 C 
HETATM   23  C1  UNL     1      26.416   3.464  49.586  1.00  0.00     0.011 C 
ENDBRANCH   1  22
TORSDOF 4
ENDMDL
MODEL 6
REMARK VINA RESULT:      -6.1      3.218      4.904
REMARK  4 active torsions:
REMARK  status: ('A' for Active; 'I' for Inactive)
REMARK    1  A    between atoms: C2_2  and  C3_3 
REMARK    2  A    between atoms: C5_9  and  O2_10 
REMARK    3  A    between atoms: C7_12  and  N3_13 
REMARK    4  A    between atoms: N3_13  and  C8_14 
ROOT
HETATM    1  C3  UNL     1      22.239   5.998  50.541  1.00  0.00     0.054 C 
HETATM    2  N1  UNL     1      22.692   5.221  51.564  1.00  0.00    -0.174 NA
HETATM    3  N2  UNL     1      23.310   3.933  51.252  1.00  0.00    -0.226 N 
HETATM    4  P1  UNL     1      25.095   3.466  50.950  1.00  0.00     0.144 P 
HETATM    5  O1  UNL     1      24.849   3.156  49.144  1.00  0.00    -0.301 OA
HETATM    6  C4  UNL     1      23.414   3.482  48.937  1.00  0.00     0.108 C 
HETATM    7  C5  UNL     1      22.684   2.427  49.450  1.00  0.00     0.123 C 
HETATM    8  C7  UNL     1      22.549   2.690  50.958  1.00  0.00     0.269 C 
HETATM    9  C14 UNL     1      22.755   4.702  48.311  1.00  0.00     0.042 C 
HETATM   10  C15 UNL     1      22.257   5.771  49.036  1.00  0.00     0.032 C 
HETATM   11  H6  UNL     1      25.402   2.238  51.603  1.00  0.00     0.113 HD
ENDROOT
BRANCH   8  12
HETATM   12  N3  UNL     1      23.200   1.595  51.619  1.00  0.00    -0.362 N 
HETATM   13  H11 UNL     1      24.179   1.278  51.338  1.00  0.00     0.162 HD
BRANCH  12  14
HETATM   14  C8  UNL     1      22.626   0.856  52.670  1.00  0.00     0.029 A 
HETATM   15  C9  UNL     1      21.354   1.053  53.158  1.00  0.00     0.029 A 
HETATM   16  C10 UNL     1      20.772   0.343  54.188  1.00  0.00     0.002 A 
HETATM   17  C11 UNL     1      21.513  -0.656  54.795  1.00  0.00     0.000 A 
HETATM   18  C12 UNL     1      22.789  -0.906  54.359  1.00  0.00     0.002 A 
HETATM   19  C13 UNL     1      23.284  -0.160  53.339  1.00  0.00     0.029 A 
ENDBRANCH  12  14
ENDBRANCH   8  12
BRANCH   7  20
HETATM   20  O2  UNL     1      21.976   1.198  49.304  1.00  0.00    -0.353 OA
HETATM   21  C6  UNL     1      20.570   1.156  49.290  1.00  0.00     0.209 C 
ENDBRANCH   7  20
BRANCH   1  22
HETATM   22  C2  UNL     1      21.609   7.302  50.892  1.00  0.00     0.056 C 
HETATM   23  C1  UNL     1      21.663   8.175  49.663  1.00  0.00     0.011 C 
ENDBRANCH   1  22
TORSDOF 4
ENDMDL
MODEL 7
REMARK VINA RESULT:      -5.9      3.441      7.248
REMARK  4 active torsions:
REMARK  status: ('A' for Active; 'I' for Inactive)
REMARK    1  A    between atoms: C2_2  and  C3_3 
REMARK    2  A    between atoms: C5_9  and  O2_10 
REMARK    3  A    between atoms: C7_12  and  N3_13 
REMARK    4  A    between atoms: N3_13  and  C8_14 
ROOT
HETATM    1  C3  UNL     1      23.895   1.917  52.517  1.00  0.00     0.054 C 
HETATM    2  N1  UNL     1      23.160   0.904  51.981  1.00  0.00    -0.174 NA
HETATM    3  N2  UNL     1      21.961   1.233  51.210  1.00  0.00    -0.226 N 
HETATM    4  P1  UNL     1      21.718   1.528  49.380  1.00  0.00     0.144 P 
HETATM    5  O1  UNL     1      21.413   3.341  49.576  1.00  0.00    -0.301 OA
HETATM    6  C4  UNL     1      21.568   3.555  51.038  1.00  0.00     0.108 C 
HETATM    7  C5  UNL     1      20.424   3.066  51.639  1.00  0.00     0.123 C 
HETATM    8  C7  UNL     1      20.642   1.554  51.814  1.00  0.00     0.269 C 
HETATM    9  C14 UNL     1      22.711   4.165  51.836  1.00  0.00     0.042 C 
HETATM   10  C15 UNL     1      23.699   3.426  52.463  1.00  0.00     0.032 C 
HETATM   11  H6  UNL     1      20.525   0.893  48.931  1.00  0.00     0.113 HD
ENDROOT
BRANCH   8  12
HETATM   12  N3  UNL     1      19.621   0.906  51.039  1.00  0.00    -0.362 N 
HETATM   13  H11 UNL     1      19.555   1.040  49.984  1.00  0.00     0.162 HD
BRANCH  12  14
HETATM   14  C8  UNL     1      18.638   0.059  51.584  1.00  0.00     0.029 A 
HETATM   15  C9  UNL     1      17.392  -0.146  51.036  1.00  0.00     0.029 A 
HETATM   16  C10 UNL     1      16.414  -0.969  51.555  1.00  0.00     0.002 A 
HETATM   17  C11 UNL     1      16.689  -1.656  52.725  1.00  0.00     0.000 A 
HETATM   18  C12 UNL     1      17.911  -1.498  53.326  1.00  0.00     0.002 A 
HETATM   19  C13 UNL     1      18.816  -0.668  52.747  1.00  0.00     0.029 A 
ENDBRANCH  12  14
ENDBRANCH   8  12
BRANCH   7  20
HETATM   20  O2  UNL     1      19.121   3.238  52.193  1.00  0.00    -0.353 OA
HETATM   21  C6  UNL     1      18.078   3.822  51.451  1.00  0.00     0.209 C 
ENDBRANCH   7  20
BRANCH   1  22
HETATM   22  C2  UNL     1      25.107   1.549  53.302  1.00  0.00     0.056 C 
HETATM   23  C1  UNL     1      26.099   0.940  52.343  1.00  0.00     0.011 C 
ENDBRANCH   1  22
TORSDOF 4
ENDMDL
MODEL 8
REMARK VINA RESULT:      -5.9      9.557     11.070
REMARK  4 active torsions:
REMARK  status: ('A' for Active; 'I' for Inactive)
REMARK    1  A    between atoms: C2_2  and  C3_3 
REMARK    2  A    between atoms: C5_9  and  O2_10 
REMARK    3  A    between atoms: C7_12  and  N3_13 
REMARK    4  A    between atoms: N3_13  and  C8_14 
ROOT
HETATM    1  C3  UNL     1      31.773   9.799  47.665  1.00  0.00     0.054 C 
HETATM    2  N1  UNL     1      32.206   8.584  48.101  1.00  0.00    -0.174 NA
HETATM    3  N2  UNL     1      33.416   8.013  47.512  1.00  0.00    -0.226 N 
HETATM    4  P1  UNL     1      35.209   8.127  48.031  1.00  0.00     0.144 P 
HETATM    5  O1  UNL     1      35.692   9.202  46.606  1.00  0.00    -0.301 OA
HETATM    6  C4  UNL     1      34.409   9.404  45.883  1.00  0.00     0.108 C 
HETATM    7  C5  UNL     1      34.143   8.231  45.203  1.00  0.00     0.123 C 
HETATM    8  C7  UNL     1      33.455   7.296  46.210  1.00  0.00     0.269 C 
HETATM    9  C14 UNL     1      33.479  10.606  45.833  1.00  0.00     0.042 C 
HETATM   10  C15 UNL     1      32.347  10.743  46.617  1.00  0.00     0.032 C 
HETATM   11  H6  UNL     1      35.843   6.859  47.902  1.00  0.00     0.113 HD
ENDROOT
BRANCH   8  12
HETATM   12  N3  UNL     1      34.310   6.151  46.349  1.00  0.00    -0.362 N 
HETATM   13  H11 UNL     1      35.365   6.228  46.219  1.00  0.00     0.162 HD
BRANCH  12  14
HETATM   14  C8  UNL     1      33.850   4.859  46.662  1.00  0.00     0.029 A 
HETATM   15  C9  UNL     1      34.465   4.004  47.548  1.00  0.00     0.029 A 
HETATM   16  C10 UNL     1      34.034   2.733  47.867  1.00  0.00     0.002 A 
HETATM   17  C11 UNL     1      32.887   2.259  47.254  1.00  0.00     0.000 A 
HETATM   18  C12 UNL     1      32.223   3.057  46.359  1.00  0.00     0.002 A 
HETATM   19  C13 UNL     1      32.717   4.295  46.103  1.00  0.00     0.029 A 
ENDBRANCH  12  14
ENDBRANCH   8  12
BRANCH   7  20
HETATM   20  O2  UNL     1      34.174   7.422  44.029  1.00  0.00    -0.353 OA
HETATM   21  C6  UNL     1      34.943   7.783  42.907  1.00  0.00     0.209 C 
ENDBRANCH   7  20
BRANCH   1  22
HETATM   22  C2  UNL     1      30.533  10.351  48.281  1.00  0.00     0.056 C 
HETATM   23  C1  UNL     1      30.789  11.806  48.586  1.00  0.00     0.011 C 
ENDBRANCH   1  22
TORSDOF 4
ENDMDL
MODEL 9
REMARK VINA RESULT:      -5.9      2.730      3.626
REMARK  4 active torsions:
REMARK  status: ('A' for Active; 'I' for Inactive)
REMARK    1  A    between atoms: C2_2  and  C3_3 
REMARK    2  A    between atoms: C5_9  and  O2_10 
REMARK    3  A    between atoms: C7_12  and  N3_13 
REMARK    4  A    between atoms: N3_13  and  C8_14 
ROOT
HETATM    1  C3  UNL     1      20.593   2.944  48.711  1.00  0.00     0.054 C 
HETATM    2  N1  UNL     1      21.248   1.935  49.351  1.00  0.00    -0.174 NA
HETATM    3  N2  UNL     1      21.456   2.034  50.795  1.00  0.00    -0.226 N 
HETATM    4  P1  UNL     1      20.427   1.420  52.231  1.00  0.00     0.144 P 
HETATM    5  O1  UNL     1      19.903   3.115  52.753  1.00  0.00    -0.301 OA
HETATM    6  C4  UNL     1      20.543   3.995  51.741  1.00  0.00     0.108 C 
HETATM    7  C5  UNL     1      21.886   4.064  52.060  1.00  0.00     0.123 C 
HETATM    8  C7  UNL     1      22.542   2.825  51.431  1.00  0.00     0.269 C 
HETATM    9  C14 UNL     1      19.951   4.721  50.542  1.00  0.00     0.042 C 
HETATM   10  C15 UNL     1      19.992   4.237  49.246  1.00  0.00     0.032 C 
HETATM   11  H6  UNL     1      21.265   0.855  53.233  1.00  0.00     0.113 HD
ENDROOT
BRANCH   8  12
HETATM   12  N3  UNL     1      23.082   2.058  52.518  1.00  0.00    -0.362 N 
HETATM   13  H11 UNL     1      22.579   1.992  53.456  1.00  0.00     0.162 HD
BRANCH  12  14
HETATM   14  C8  UNL     1      24.292   1.342  52.451  1.00  0.00     0.029 A 
HETATM   15  C9  UNL     1      25.407   1.756  51.760  1.00  0.00     0.029 A 
HETATM   16  C10 UNL     1      26.601   1.069  51.678  1.00  0.00     0.002 A 
HETATM   17  C11 UNL     1      26.706  -0.141  52.342  1.00  0.00     0.000 A 
HETATM   18  C12 UNL     1      25.632  -0.615  53.050  1.00  0.00     0.002 A 
HETATM   19  C13 UNL     1      24.495   0.125  53.077  1.00  0.00     0.029 A 
ENDBRANCH  12  14
ENDBRANCH   8  12
BRANCH   7  20
HETATM   20  O2  UNL     1      23.001   4.701  52.681  1.00  0.00    -0.353 OA
HETATM   21  C6  UNL     1      23.792   5.636  51.990  1.00  0.00     0.209 C 
ENDBRANCH   7  20
BRANCH   1  22
HETATM   22  C2  UNL     1      20.402   2.818  47.239  1.00  0.00     0.056 C 
HETATM   23  C1  UNL     1      20.672   4.171  46.630  1.00  0.00     0.011 C 
ENDBRANCH   1  22
TORSDOF 4
ENDMDL
