MODEL 1
REMARK VINA RESULT:      -7.5      0.000      0.000
REMARK  7 active torsions:
REMARK  status: ('A' for Active; 'I' for Inactive)
REMARK    1  A    between atoms: N1_1  and  C1_2 
REMARK    2  A    between atoms: C1_2  and  C2_3 
REMARK    3  A    between atoms: C2_3  and  C3_4 
REMARK    4  A    between atoms: C8_10  and  O1_11 
REMARK    5  A    between atoms: O1_11  and  C9_12 
REMARK    6  A    between atoms: C9_12  and  C10_13 
REMARK    7  A    between atoms: C13_16  and  O2_17 
ROOT
HETATM    1  C3  UNL     1      20.186   0.222  52.544  1.00  0.00    -0.053 C 
HETATM    2  C4  UNL     1      19.406  -0.614  53.206  1.00  0.00     0.091 C 
HETATM    3  N2  UNL     1      20.055  -1.365  54.215  1.00  0.00    -0.368 N 
HETATM    4  C5  UNL     1      21.423  -0.991  54.197  1.00  0.00     0.017 C 
HETATM    5  C6  UNL     1      22.581  -1.260  54.772  1.00  0.00     0.028 C 
HETATM    6  C7  UNL     1      23.879  -0.671  54.480  1.00  0.00     0.034 C 
HETATM    7  C8  UNL     1      23.866   0.211  53.507  1.00  0.00     0.048 C 
HETATM    8  C15 UNL     1      22.664   0.590  52.716  1.00  0.00     0.080 C 
HETATM    9  C16 UNL     1      21.405   0.231  53.377  1.00  0.00     0.072 C 
HETATM   10  H8  UNL     1      19.674  -2.061  54.866  1.00  0.00     0.165 HD
ENDROOT
BRANCH   7  11
HETATM   11  O1  UNL     1      25.037   0.846  53.152  1.00  0.00    -0.351 OA
BRANCH  11  12
HETATM   12  C9  UNL     1      25.895   0.331  52.156  1.00  0.00     0.214 C 
BRANCH  12  13
HETATM   13  C10 UNL     1      27.044  -0.433  52.712  1.00  0.00    -0.020 C 
HETATM   14  C11 UNL     1      28.181  -0.105  53.301  1.00  0.00    -0.014 C 
HETATM   15  C12 UNL     1      29.049  -1.102  53.339  1.00  0.00     0.049 C 
HETATM   16  C13 UNL     1      28.248  -2.298  53.033  1.00  0.00     0.067 C 
HETATM   17  C14 UNL     1      27.024  -1.911  52.650  1.00  0.00     0.046 C 
BRANCH  16  18
HETATM   18  O2  UNL     1      28.585  -3.663  53.091  1.00  0.00    -0.361 OA
HETATM   19  H14 UNL     1      27.936  -4.373  52.771  1.00  0.00     0.217 HD
ENDBRANCH  16  18
ENDBRANCH  12  13
ENDBRANCH  11  12
ENDBRANCH   7  11
BRANCH   1  20
HETATM   20  C2  UNL     1      20.146   1.197  51.456  1.00  0.00     0.066 C 
BRANCH  20  21
HETATM   21  C1  UNL     1      18.752   1.476  50.950  1.00  0.00     0.271 C 
BRANCH  21  22
HETATM   22  N1  UNL     1      18.582   0.922  49.619  1.00  0.00     0.078 N 
HETATM   23  H1  UNL     1      18.638  -0.113  49.611  1.00  0.00     0.312 HD
HETATM   24  H2  UNL     1      17.744   1.299  49.128  1.00  0.00     0.312 HD
ENDBRANCH  21  22
ENDBRANCH  20  21
ENDBRANCH   1  20
TORSDOF 7
ENDMDL
MODEL 2
REMARK VINA RESULT:      -7.5      2.745      3.476
REMARK  7 active torsions:
REMARK  status: ('A' for Active; 'I' for Inactive)
REMARK    1  A    between atoms: N1_1  and  C1_2 
REMARK    2  A    between atoms: C1_2  and  C2_3 
REMARK    3  A    between atoms: C2_3  and  C3_4 
REMARK    4  A    between atoms: C8_10  and  O1_11 
REMARK    5  A    between atoms: O1_11  and  C9_12 
REMARK    6  A    between atoms: C9_12  and  C10_13 
REMARK    7  A    between atoms: C13_16  and  O2_17 
ROOT
HETATM    1  C3  UNL     1      22.622   2.697  51.971  1.00  0.00    -0.053 C 
HETATM    2  C4  UNL     1      21.302   2.735  51.936  1.00  0.00     0.091 C 
HETATM    3  N2  UNL     1      20.655   1.670  52.607  1.00  0.00    -0.368 N 
HETATM    4  C5  UNL     1      21.670   0.826  53.123  1.00  0.00     0.017 C 
HETATM    5  C6  UNL     1      21.845  -0.302  53.786  1.00  0.00     0.028 C 
HETATM    6  C7  UNL     1      23.103  -0.935  54.154  1.00  0.00     0.034 C 
HETATM    7  C8  UNL     1      24.172  -0.293  53.741  1.00  0.00     0.048 C 
HETATM    8  C15 UNL     1      24.156   0.959  52.936  1.00  0.00     0.080 C 
HETATM    9  C16 UNL     1      22.873   1.666  52.998  1.00  0.00     0.072 C 
HETATM   10  H8  UNL     1      19.654   1.483  52.732  1.00  0.00     0.165 HD
ENDROOT
BRANCH   7  11
HETATM   11  O1  UNL     1      25.421  -0.791  54.043  1.00  0.00    -0.351 OA
BRANCH  11  12
HETATM   12  C9  UNL     1      26.370  -1.089  53.041  1.00  0.00     0.214 C 
BRANCH  12  13
HETATM   13  C10 UNL     1      27.710  -0.504  53.312  1.00  0.00    -0.020 C 
HETATM   14  C11 UNL     1      28.951  -0.957  53.257  1.00  0.00    -0.014 C 
HETATM   15  C12 UNL     1      29.812  -0.183  53.897  1.00  0.00     0.049 C 
HETATM   16  C13 UNL     1      29.087   1.081  54.102  1.00  0.00     0.067 C 
HETATM   17  C14 UNL     1      27.807   0.906  53.751  1.00  0.00     0.046 C 
BRANCH  16  18
HETATM   18  O2  UNL     1      29.538   2.326  54.576  1.00  0.00    -0.361 OA
HETATM   19  H14 UNL     1      29.079   3.186  54.297  1.00  0.00     0.217 HD
ENDBRANCH  16  18
ENDBRANCH  12  13
ENDBRANCH  11  12
ENDBRANCH   7  11
BRANCH   1  20
HETATM   20  C2  UNL     1      23.796   3.428  51.498  1.00  0.00     0.066 C 
BRANCH  20  21
HETATM   21  C1  UNL     1      23.701   4.919  51.710  1.00  0.00     0.271 C 
BRANCH  21  22
HETATM   22  N1  UNL     1      23.788   5.232  53.124  1.00  0.00     0.078 N 
HETATM   23  H1  UNL     1      23.320   6.128  53.361  1.00  0.00     0.312 HD
HETATM   24  H2  UNL     1      23.503   4.438  53.733  1.00  0.00     0.312 HD
ENDBRANCH  21  22
ENDBRANCH  20  21
ENDBRANCH   1  20
TORSDOF 7
ENDMDL
MODEL 3
REMARK VINA RESULT:      -7.5      1.795      3.500
REMARK  7 active torsions:
REMARK  status: ('A' for Active; 'I' for Inactive)
REMARK    1  A    between atoms: N1_1  and  C1_2 
REMARK    2  A    between atoms: C1_2  and  C2_3 
REMARK    3  A    between atoms: C2_3  and  C3_4 
REMARK    4  A    between atoms: C8_10  and  O1_11 
REMARK    5  A    between atoms: O1_11  and  C9_12 
REMARK    6  A    between atoms: C9_12  and  C10_13 
REMARK    7  A    between atoms: C13_16  and  O2_17 
ROOT
HETATM    1  C3  UNL     1      22.331   0.653  52.564  1.00  0.00    -0.053 C 
HETATM    2  C4  UNL     1      21.322   1.167  51.883  1.00  0.00     0.091 C 
HETATM    3  N2  UNL     1      21.688   2.095  50.879  1.00  0.00    -0.368 N 
HETATM    4  C5  UNL     1      23.099   2.218  50.922  1.00  0.00     0.017 C 
HETATM    5  C6  UNL     1      24.102   2.870  50.362  1.00  0.00     0.028 C 
HETATM    6  C7  UNL     1      25.519   2.768  50.679  1.00  0.00     0.034 C 
HETATM    7  C8  UNL     1      25.796   1.937  51.658  1.00  0.00     0.048 C 
HETATM    8  C15 UNL     1      24.786   1.166  52.433  1.00  0.00     0.080 C 
HETATM    9  C16 UNL     1      23.492   1.066  51.750  1.00  0.00     0.072 C 
HETATM   10  H8  UNL     1      21.100   2.614  50.218  1.00  0.00     0.165 HD
ENDROOT
BRANCH   7  11
HETATM   11  O1  UNL     1      27.108   1.748  52.037  1.00  0.00    -0.351 OA
BRANCH  11  12
HETATM   12  C9  UNL     1      27.468   1.462  53.371  1.00  0.00     0.214 C 
BRANCH  12  13
HETATM   13  C10 UNL     1      28.274   0.220  53.507  1.00  0.00    -0.020 C 
HETATM   14  C11 UNL     1      29.506  -0.050  53.903  1.00  0.00    -0.014 C 
HETATM   15  C12 UNL     1      29.907  -1.261  53.553  1.00  0.00     0.049 C 
HETATM   16  C13 UNL     1      28.670  -1.963  53.177  1.00  0.00     0.067 C 
HETATM   17  C14 UNL     1      27.665  -1.079  53.145  1.00  0.00     0.046 C 
BRANCH  16  18
HETATM   18  O2  UNL     1      28.443  -3.319  52.879  1.00  0.00    -0.361 OA
HETATM   19  H14 UNL     1      27.730  -3.594  52.213  1.00  0.00     0.217 HD
ENDBRANCH  16  18
ENDBRANCH  12  13
ENDBRANCH  11  12
ENDBRANCH   7  11
BRANCH   1  20
HETATM   20  C2  UNL     1      22.613  -0.274  53.657  1.00  0.00     0.066 C 
BRANCH  20  21
HETATM   21  C1  UNL     1      21.518  -0.331  54.694  1.00  0.00     0.271 C 
BRANCH  21  22
HETATM   22  N1  UNL     1      20.723  -1.533  54.519  1.00  0.00     0.078 N 
HETATM   23  H1  UNL     1      19.797  -1.466  54.981  1.00  0.00     0.312 HD
HETATM   24  H2  UNL     1      20.675  -1.846  53.528  1.00  0.00     0.312 HD
ENDBRANCH  21  22
ENDBRANCH  20  21
ENDBRANCH   1  20
TORSDOF 7
ENDMDL
MODEL 4
REMARK VINA RESULT:      -7.4      1.683      2.258
REMARK  7 active torsions:
REMARK  status: ('A' for Active; 'I' for Inactive)
REMARK    1  A    between atoms: N1_1  and  C1_2 
REMARK    2  A    between atoms: C1_2  and  C2_3 
REMARK    3  A    between atoms: C2_3  and  C3_4 
REMARK    4  A    between atoms: C8_10  and  O1_11 
REMARK    5  A    between atoms: O1_11  and  C9_12 
REMARK    6  A    between atoms: C9_12  and  C10_13 
REMARK    7  A    between atoms: C13_16  and  O2_17 
ROOT
HETATM    1  C3  UNL     1      21.036   0.636  51.567  1.00  0.00    -0.053 C 
HETATM    2  C4  UNL     1      19.796   0.277  51.850  1.00  0.00     0.091 C 
HETATM    3  N2  UNL     1      19.643  -0.445  53.059  1.00  0.00    -0.368 N 
HETATM    4  C5  UNL     1      20.937  -0.592  53.621  1.00  0.00     0.017 C 
HETATM    5  C6  UNL     1      21.568  -1.137  54.645  1.00  0.00     0.028 C 
HETATM    6  C7  UNL     1      22.995  -1.117  54.925  1.00  0.00     0.034 C 
HETATM    7  C8  UNL     1      23.716  -0.495  54.020  1.00  0.00     0.048 C 
HETATM    8  C15 UNL     1      23.175   0.125  52.779  1.00  0.00     0.080 C 
HETATM    9  C16 UNL     1      21.731   0.372  52.844  1.00  0.00     0.072 C 
HETATM   10  H8  UNL     1      18.795  -0.819  53.499  1.00  0.00     0.165 HD
ENDROOT
BRANCH   7  11
HETATM   11  O1  UNL     1      25.080  -0.400  54.186  1.00  0.00    -0.351 OA
BRANCH  11  12
HETATM   12  C9  UNL     1      25.988  -0.899  53.228  1.00  0.00     0.214 C 
BRANCH  12  13
HETATM   13  C10 UNL     1      27.371  -0.383  53.406  1.00  0.00    -0.020 C 
HETATM   14  C11 UNL     1      28.581  -0.902  53.286  1.00  0.00    -0.014 C 
HETATM   15  C12 UNL     1      29.518  -0.165  53.858  1.00  0.00     0.049 C 
HETATM   16  C13 UNL     1      28.875   1.139  54.081  1.00  0.00     0.067 C 
HETATM   17  C14 UNL     1      27.568   1.027  53.811  1.00  0.00     0.046 C 
BRANCH  16  18
HETATM   18  O2  UNL     1      29.418   2.366  54.503  1.00  0.00    -0.361 OA
HETATM   19  H14 UNL     1      29.548   3.130  53.849  1.00  0.00     0.217 HD
ENDBRANCH  16  18
ENDBRANCH  12  13
ENDBRANCH  11  12
ENDBRANCH   7  11
BRANCH   1  20
HETATM   20  C2  UNL     1      21.815   1.330  50.545  1.00  0.00     0.066 C 
BRANCH  20  21
HETATM   21  C1  UNL     1      21.474   0.905  49.138  1.00  0.00     0.271 C 
BRANCH  21  22
HETATM   22  N1  UNL     1      20.408   1.734  48.607  1.00  0.00     0.078 N 
HETATM   23  H1  UNL     1      20.408   1.763  47.570  1.00  0.00     0.312 HD
HETATM   24  H2  UNL     1      19.478   1.511  49.019  1.00  0.00     0.312 HD
ENDBRANCH  21  22
ENDBRANCH  20  21
ENDBRANCH   1  20
TORSDOF 7
ENDMDL
MODEL 5
REMARK VINA RESULT:      -7.4      4.871      6.449
REMARK  7 active torsions:
REMARK  status: ('A' for Active; 'I' for Inactive)
REMARK    1  A    between atoms: N1_1  and  C1_2 
REMARK    2  A    between atoms: C1_2  and  C2_3 
REMARK    3  A    between atoms: C2_3  and  C3_4 
REMARK    4  A    between atoms: C8_10  and  O1_11 
REMARK    5  A    between atoms: O1_11  and  C9_12 
REMARK    6  A    between atoms: C9_12  and  C10_13 
REMARK    7  A    between atoms: C13_16  and  O2_17 
ROOT
HETATM    1  C3  UNL     1      26.232   5.273  48.916  1.00  0.00    -0.053 C 
HETATM    2  C4  UNL     1      25.123   5.949  48.672  1.00  0.00     0.091 C 
HETATM    3  N2  UNL     1      23.968   5.461  49.330  1.00  0.00    -0.368 N 
HETATM    4  C5  UNL     1      24.365   4.322  50.075  1.00  0.00     0.017 C 
HETATM    5  C6  UNL     1      23.883   3.375  50.860  1.00  0.00     0.028 C 
HETATM    6  C7  UNL     1      24.607   2.274  51.476  1.00  0.00     0.034 C 
HETATM    7  C8  UNL     1      25.885   2.233  51.177  1.00  0.00     0.048 C 
HETATM    8  C15 UNL     1      26.578   3.184  50.266  1.00  0.00     0.080 C 
HETATM    9  C16 UNL     1      25.832   4.430  50.061  1.00  0.00     0.072 C 
HETATM   10  H8  UNL     1      23.004   5.812  49.315  1.00  0.00     0.165 HD
ENDROOT
BRANCH   7  11
HETATM   11  O1  UNL     1      26.677   1.241  51.715  1.00  0.00    -0.351 OA
BRANCH  11  12
HETATM   12  C9  UNL     1      27.445   1.446  52.881  1.00  0.00     0.214 C 
BRANCH  12  13
HETATM   13  C10 UNL     1      28.286   0.274  53.242  1.00  0.00    -0.020 C 
HETATM   14  C11 UNL     1      29.504   0.119  53.732  1.00  0.00    -0.014 C 
HETATM   15  C12 UNL     1      29.964  -1.113  53.590  1.00  0.00     0.049 C 
HETATM   16  C13 UNL     1      28.773  -1.915  53.270  1.00  0.00     0.067 C 
HETATM   17  C14 UNL     1      27.741  -1.089  53.056  1.00  0.00     0.046 C 
BRANCH  16  18
HETATM   18  O2  UNL     1      28.609  -3.309  53.173  1.00  0.00    -0.361 OA
HETATM   19  H14 UNL     1      29.363  -3.900  52.843  1.00  0.00     0.217 HD
ENDBRANCH  16  18
ENDBRANCH  12  13
ENDBRANCH  11  12
ENDBRANCH   7  11
BRANCH   1  20
HETATM   20  C2  UNL     1      27.650   5.247  48.565  1.00  0.00     0.066 C 
BRANCH  20  21
HETATM   21  C1  UNL     1      28.205   6.604  48.208  1.00  0.00     0.271 C 
BRANCH  21  22
HETATM   22  N1  UNL     1      29.436   6.851  48.937  1.00  0.00     0.078 N 
HETATM   23  H1  UNL     1      29.589   6.164  49.699  1.00  0.00     0.312 HD
HETATM   24  H2  UNL     1      30.259   6.971  48.312  1.00  0.00     0.312 HD
ENDBRANCH  21  22
ENDBRANCH  20  21
ENDBRANCH   1  20
TORSDOF 7
ENDMDL
MODEL 6
REMARK VINA RESULT:      -7.3      3.724      5.101
REMARK  7 active torsions:
REMARK  status: ('A' for Active; 'I' for Inactive)
REMARK    1  A    between atoms: N1_1  and  C1_2 
REMARK    2  A    between atoms: C1_2  and  C2_3 
REMARK    3  A    between atoms: C2_3  and  C3_4 
REMARK    4  A    between atoms: C8_10  and  O1_11 
REMARK    5  A    between atoms: O1_11  and  C9_12 
REMARK    6  A    between atoms: C9_12  and  C10_13 
REMARK    7  A    between atoms: C13_16  and  O2_17 
ROOT
HETATM    1  C3  UNL     1      24.758   3.381  49.682  1.00  0.00    -0.053 C 
HETATM    2  C4  UNL     1      23.678   3.587  48.950  1.00  0.00     0.091 C 
HETATM    3  N2  UNL     1      22.528   2.876  49.367  1.00  0.00    -0.368 N 
HETATM    4  C5  UNL     1      22.905   2.098  50.490  1.00  0.00     0.017 C 
HETATM    5  C6  UNL     1      22.430   1.211  51.346  1.00  0.00     0.028 C 
HETATM    6  C7  UNL     1      23.138   0.555  52.434  1.00  0.00     0.034 C 
HETATM    7  C8  UNL     1      24.405   0.888  52.534  1.00  0.00     0.048 C 
HETATM    8  C15 UNL     1      25.114   1.825  51.621  1.00  0.00     0.080 C 
HETATM    9  C16 UNL     1      24.202   2.686  50.860  1.00  0.00     0.072 C 
HETATM   10  H8  UNL     1      21.578   2.874  48.978  1.00  0.00     0.165 HD
ENDROOT
BRANCH   7  11
HETATM   11  O1  UNL     1      25.174   0.339  53.538  1.00  0.00    -0.351 OA
BRANCH  11  12
HETATM   12  C9  UNL     1      26.113  -0.685  53.286  1.00  0.00     0.214 C 
BRANCH  12  13
HETATM   13  C10 UNL     1      27.522  -0.246  53.472  1.00  0.00    -0.020 C 
HETATM   14  C11 UNL     1      28.704  -0.809  53.290  1.00  0.00    -0.014 C 
HETATM   15  C12 UNL     1      29.685  -0.158  53.893  1.00  0.00     0.049 C 
HETATM   16  C13 UNL     1      29.106   1.155  54.222  1.00  0.00     0.067 C 
HETATM   17  C14 UNL     1      27.791   1.121  53.972  1.00  0.00     0.046 C 
BRANCH  16  18
HETATM   18  O2  UNL     1      29.713   2.322  54.719  1.00  0.00    -0.361 OA
HETATM   19  H14 UNL     1      29.520   2.650  55.658  1.00  0.00     0.217 HD
ENDBRANCH  16  18
ENDBRANCH  12  13
ENDBRANCH  11  12
ENDBRANCH   7  11
BRANCH   1  20
HETATM   20  C2  UNL     1      26.165   3.765  49.770  1.00  0.00     0.066 C 
BRANCH  20  21
HETATM   21  C1  UNL     1      26.483   5.053  49.050  1.00  0.00     0.271 C 
BRANCH  21  22
HETATM   22  N1  UNL     1      27.916   5.275  49.027  1.00  0.00     0.078 N 
HETATM   23  H1  UNL     1      28.249   5.620  48.106  1.00  0.00     0.312 HD
HETATM   24  H2  UNL     1      28.251   5.844  49.832  1.00  0.00     0.312 HD
ENDBRANCH  21  22
ENDBRANCH  20  21
ENDBRANCH   1  20
TORSDOF 7
ENDMDL
MODEL 7
REMARK VINA RESULT:      -7.3      3.546      6.411
REMARK  7 active torsions:
REMARK  status: ('A' for Active; 'I' for Inactive)
REMARK    1  A    between atoms: N1_1  and  C1_2 
REMARK    2  A    between atoms: C1_2  and  C2_3 
REMARK    3  A    between atoms: C2_3  and  C3_4 
REMARK    4  A    between atoms: C8_10  and  O1_11 
REMARK    5  A    between atoms: O1_11  and  C9_12 
REMARK    6  A    between atoms: C9_12  and  C10_13 
REMARK    7  A    between atoms: C13_16  and  O2_17 
ROOT
HETATM    1  C3  UNL     1      26.854   0.547  52.755  1.00  0.00    -0.053 C 
HETATM    2  C4  UNL     1      27.575   1.317  53.551  1.00  0.00     0.091 C 
HETATM    3  N2  UNL     1      26.919   2.483  54.011  1.00  0.00    -0.368 N 
HETATM    4  C5  UNL     1      25.625   2.488  53.431  1.00  0.00     0.017 C 
HETATM    5  C6  UNL     1      24.521   3.210  53.360  1.00  0.00     0.028 C 
HETATM    6  C7  UNL     1      23.310   2.916  52.609  1.00  0.00     0.034 C 
HETATM    7  C8  UNL     1      23.363   1.804  51.911  1.00  0.00     0.048 C 
HETATM    8  C15 UNL     1      24.545   0.903  51.833  1.00  0.00     0.080 C 
HETATM    9  C16 UNL     1      25.500   1.111  52.927  1.00  0.00     0.072 C 
HETATM   10  H8  UNL     1      27.254   3.223  54.638  1.00  0.00     0.165 HD
ENDROOT
BRANCH   7  11
HETATM   11  O1  UNL     1      22.268   1.415  51.171  1.00  0.00    -0.351 OA
BRANCH  11  12
HETATM   12  C9  UNL     1      21.609   0.187  51.397  1.00  0.00     0.214 C 
BRANCH  12  13
HETATM   13  C10 UNL     1      21.428  -0.123  52.840  1.00  0.00    -0.020 C 
HETATM   14  C11 UNL     1      20.658   0.352  53.804  1.00  0.00    -0.014 C 
HETATM   15  C12 UNL     1      21.063  -0.004  55.012  1.00  0.00     0.049 C 
HETATM   16  C13 UNL     1      22.010  -1.104  54.772  1.00  0.00     0.067 C 
HETATM   17  C14 UNL     1      22.244  -1.193  53.456  1.00  0.00     0.046 C 
BRANCH  16  18
HETATM   18  O2  UNL     1      22.634  -1.985  55.674  1.00  0.00    -0.361 OA
HETATM   19  H14 UNL     1      23.003  -2.876  55.360  1.00  0.00     0.217 HD
ENDBRANCH  16  18
ENDBRANCH  12  13
ENDBRANCH  11  12
ENDBRANCH   7  11
BRANCH   1  20
HETATM   20  C2  UNL     1      26.939  -0.692  51.986  1.00  0.00     0.066 C 
BRANCH  20  21
HETATM   21  C1  UNL     1      26.810  -1.935  52.832  1.00  0.00     0.271 C 
BRANCH  21  22
HETATM   22  N1  UNL     1      28.120  -2.498  53.100  1.00  0.00     0.078 N 
HETATM   23  H1  UNL     1      28.849  -2.125  52.463  1.00  0.00     0.312 HD
HETATM   24  H2  UNL     1      28.382  -2.454  54.106  1.00  0.00     0.312 HD
ENDBRANCH  21  22
ENDBRANCH  20  21
ENDBRANCH   1  20
TORSDOF 7
ENDMDL
MODEL 8
REMARK VINA RESULT:      -7.1      4.526      6.872
REMARK  7 active torsions:
REMARK  status: ('A' for Active; 'I' for Inactive)
REMARK    1  A    between atoms: N1_1  and  C1_2 
REMARK    2  A    between atoms: C1_2  and  C2_3 
REMARK    3  A    between atoms: C2_3  and  C3_4 
REMARK    4  A    between atoms: C8_10  and  O1_11 
REMARK    5  A    between atoms: O1_11  and  C9_12 
REMARK    6  A    between atoms: C9_12  and  C10_13 
REMARK    7  A    between atoms: C13_16  and  O2_17 
ROOT
HETATM    1  C3  UNL     1      26.761   0.992  53.875  1.00  0.00    -0.053 C 
HETATM    2  C4  UNL     1      26.481  -0.068  54.612  1.00  0.00     0.091 C 
HETATM    3  N2  UNL     1      25.189  -0.610  54.415  1.00  0.00    -0.368 N 
HETATM    4  C5  UNL     1      24.540   0.203  53.451  1.00  0.00     0.017 C 
HETATM    5  C6  UNL     1      23.389   0.348  52.821  1.00  0.00     0.028 C 
HETATM    6  C7  UNL     1      23.027   1.369  51.849  1.00  0.00     0.034 C 
HETATM    7  C8  UNL     1      23.974   2.249  51.611  1.00  0.00     0.048 C 
HETATM    8  C15 UNL     1      25.306   2.267  52.274  1.00  0.00     0.080 C 
HETATM    9  C16 UNL     1      25.656   0.985  52.896  1.00  0.00     0.072 C 
HETATM   10  H8  UNL     1      24.744  -1.426  54.850  1.00  0.00     0.165 HD
ENDROOT
BRANCH   7  11
HETATM   11  O1  UNL     1      23.750   3.255  50.696  1.00  0.00    -0.351 OA
BRANCH  11  12
HETATM   12  C9  UNL     1      24.344   3.248  49.416  1.00  0.00     0.214 C 
BRANCH  12  13
HETATM   13  C10 UNL     1      25.338   4.338  49.227  1.00  0.00    -0.020 C 
HETATM   14  C11 UNL     1      25.263   5.628  48.951  1.00  0.00    -0.014 C 
HETATM   15  C12 UNL     1      26.416   6.141  48.556  1.00  0.00     0.049 C 
HETATM   16  C13 UNL     1      27.417   5.133  48.941  1.00  0.00     0.067 C 
HETATM   17  C14 UNL     1      26.780   4.029  49.353  1.00  0.00     0.046 C 
BRANCH  16  18
HETATM   18  O2  UNL     1      28.822   5.189  48.928  1.00  0.00    -0.361 OA
HETATM   19  H14 UNL     1      29.312   5.821  48.305  1.00  0.00     0.217 HD
ENDBRANCH  16  18
ENDBRANCH  12  13
ENDBRANCH  11  12
ENDBRANCH   7  11
BRANCH   1  20
HETATM   20  C2  UNL     1      27.828   1.960  53.631  1.00  0.00     0.066 C 
BRANCH  20  21
HETATM   21  C1  UNL     1      29.133   1.597  54.296  1.00  0.00     0.271 C 
BRANCH  21  22
HETATM   22  N1  UNL     1      29.867   0.649  53.479  1.00  0.00     0.078 N 
HETATM   23  H1  UNL     1      29.310   0.305  52.674  1.00  0.00     0.312 HD
HETATM   24  H2  UNL     1      30.815   0.990  53.216  1.00  0.00     0.312 HD
ENDBRANCH  21  22
ENDBRANCH  20  21
ENDBRANCH   1  20
TORSDOF 7
ENDMDL
MODEL 9
REMARK VINA RESULT:      -7.0      4.037      6.054
REMARK  7 active torsions:
REMARK  status: ('A' for Active; 'I' for Inactive)
REMARK    1  A    between atoms: N1_1  and  C1_2 
REMARK    2  A    between atoms: C1_2  and  C2_3 
REMARK    3  A    between atoms: C2_3  and  C3_4 
REMARK    4  A    between atoms: C8_10  and  O1_11 
REMARK    5  A    between atoms: O1_11  and  C9_12 
REMARK    6  A    between atoms: C9_12  and  C10_13 
REMARK    7  A    between atoms: C13_16  and  O2_17 
ROOT
HETATM    1  C3  UNL     1      24.024  -0.099  53.587  1.00  0.00    -0.053 C 
HETATM    2  C4  UNL     1      24.278  -0.891  54.613  1.00  0.00     0.091 C 
HETATM    3  N2  UNL     1      25.604  -0.826  55.105  1.00  0.00    -0.368 N 
HETATM    4  C5  UNL     1      26.304   0.101  54.292  1.00  0.00     0.017 C 
HETATM    5  C6  UNL     1      27.500   0.631  54.116  1.00  0.00     0.028 C 
HETATM    6  C7  UNL     1      27.907   1.600  53.109  1.00  0.00     0.034 C 
HETATM    7  C8  UNL     1      26.952   1.948  52.277  1.00  0.00     0.048 C 
HETATM    8  C15 UNL     1      25.565   1.407  52.297  1.00  0.00     0.080 C 
HETATM    9  C16 UNL     1      25.212   0.778  53.574  1.00  0.00     0.072 C 
HETATM   10  H8  UNL     1      26.041  -1.325  55.888  1.00  0.00     0.165 HD
ENDROOT
BRANCH   7  11
HETATM   11  O1  UNL     1      27.216   2.871  51.289  1.00  0.00    -0.351 OA
BRANCH  11  12
HETATM   12  C9  UNL     1      26.471   2.919  50.090  1.00  0.00     0.214 C 
BRANCH  12  13
HETATM   13  C10 UNL     1      26.651   4.190  49.340  1.00  0.00    -0.020 C 
HETATM   14  C11 UNL     1      27.649   4.743  48.672  1.00  0.00    -0.014 C 
HETATM   15  C12 UNL     1      27.463   6.031  48.438  1.00  0.00     0.049 C 
HETATM   16  C13 UNL     1      26.032   6.249  48.699  1.00  0.00     0.067 C 
HETATM   17  C14 UNL     1      25.519   5.139  49.246  1.00  0.00     0.046 C 
BRANCH  16  18
HETATM   18  O2  UNL     1      25.220   7.373  48.462  1.00  0.00    -0.361 OA
HETATM   19  H14 UNL     1      25.304   8.205  49.035  1.00  0.00     0.217 HD
ENDBRANCH  16  18
ENDBRANCH  12  13
ENDBRANCH  11  12
ENDBRANCH   7  11
BRANCH   1  20
HETATM   20  C2  UNL     1      22.946   0.270  52.673  1.00  0.00     0.066 C 
BRANCH  20  21
HETATM   21  C1  UNL     1      21.624  -0.374  53.011  1.00  0.00     0.271 C 
BRANCH  21  22
HETATM   22  N1  UNL     1      20.902   0.437  53.974  1.00  0.00     0.078 N 
HETATM   23  H1  UNL     1      20.729   1.400  53.630  1.00  0.00     0.312 HD
HETATM   24  H2  UNL     1      20.050  -0.035  54.342  1.00  0.00     0.312 HD
ENDBRANCH  21  22
ENDBRANCH  20  21
ENDBRANCH   1  20
TORSDOF 7
ENDMDL
