MODEL 1
REMARK VINA RESULT:      -8.1      0.000      0.000
REMARK  6 active torsions:
REMARK  status: ('A' for Active; 'I' for Inactive)
REMARK    1  A    between atoms: C2_2  and  C4_4 
REMARK    2  A    between atoms: C6_6  and  C7_7 
REMARK    3  A    between atoms: C8_8  and  C9_9 
REMARK    4  A    between atoms: N1_14  and  C14_15 
REMARK    5  A    between atoms: C16_18  and  C17_19 
REMARK    6  A    between atoms: C20_22  and  O2_23 
ROOT
HETATM    1  C4  UNL     1      25.193   4.039  49.607  1.00  0.00    -0.020 A 
HETATM    2  C5  UNL     1      25.682   3.257  50.640  1.00  0.00     0.021 A 
HETATM    3  C6  UNL     1      24.912   2.273  51.228  1.00  0.00    -0.035 A 
HETATM    4  C15 UNL     1      23.620   2.022  50.815  1.00  0.00     0.021 A 
HETATM    5  C16 UNL     1      23.112   2.789  49.788  1.00  0.00    -0.020 A 
HETATM    6  C20 UNL     1      23.881   3.775  49.197  1.00  0.00     0.079 A 
ENDROOT
BRANCH   3   7
HETATM    7  C7  UNL     1      25.479   1.479  52.311  1.00  0.00     0.010 C 
HETATM    8  C8  UNL     1      26.688   0.977  52.295  1.00  0.00     0.003 C 
BRANCH   8   9
HETATM    9  C9  UNL     1      27.289   0.161  53.391  1.00  0.00     0.137 A 
HETATM   10  C10 UNL     1      27.042  -1.262  53.032  1.00  0.00     0.003 A 
HETATM   11  C11 UNL     1      27.986  -2.177  52.920  1.00  0.00    -0.000 A 
HETATM   12  C12 UNL     1      29.376  -1.784  53.160  1.00  0.00     0.017 A 
HETATM   13  C13 UNL     1      29.720  -0.568  53.481  1.00  0.00     0.094 A 
HETATM   14  N1  UNL     1      28.683   0.410  53.597  1.00  0.00    -0.323 N 
BRANCH  14  15
HETATM   15  C14 UNL     1      28.913   1.769  53.938  1.00  0.00     0.356 C 
HETATM   16  O1  UNL     1      29.427   2.300  54.950  1.00  0.00    -0.283 OA
ENDBRANCH  14  15
ENDBRANCH   8   9
ENDBRANCH   3   7
BRANCH   1  17
HETATM   17  C2  UNL     1      26.024   5.091  48.984  1.00  0.00     0.013 C 
HETATM   18  C1  UNL     1      25.923   6.403  49.749  1.00  0.00     0.015 C 
HETATM   19  C3  UNL     1      27.451   4.680  48.794  1.00  0.00     0.015 C 
ENDBRANCH   1  17
BRANCH   5  20
HETATM   20  C17 UNL     1      21.762   2.652  49.232  1.00  0.00     0.013 C 
HETATM   21  C18 UNL     1      20.708   2.903  50.277  1.00  0.00     0.015 C 
HETATM   22  C19 UNL     1      21.552   1.263  48.626  1.00  0.00     0.015 C 
ENDBRANCH   5  20
BRANCH   6  23
HETATM   23  O2  UNL     1      23.416   4.580  48.156  1.00  0.00    -0.360 OA
HETATM   24  H25 UNL     1      22.422   4.754  48.065  1.00  0.00     0.217 HD
ENDBRANCH   6  23
TORSDOF 6
ENDMDL
MODEL 2
REMARK VINA RESULT:      -8.1      0.171      3.406
REMARK  6 active torsions:
REMARK  status: ('A' for Active; 'I' for Inactive)
REMARK    1  A    between atoms: C2_2  and  C4_4 
REMARK    2  A    between atoms: C6_6  and  C7_7 
REMARK    3  A    between atoms: C8_8  and  C9_9 
REMARK    4  A    between atoms: N1_14  and  C14_15 
REMARK    5  A    between atoms: C16_18  and  C17_19 
REMARK    6  A    between atoms: C20_22  and  O2_23 
ROOT
HETATM    1  C4  UNL     1      23.185   2.861  49.805  1.00  0.00    -0.020 A 
HETATM    2  C5  UNL     1      23.751   2.132  50.836  1.00  0.00     0.021 A 
HETATM    3  C6  UNL     1      25.041   2.371  51.267  1.00  0.00    -0.035 A 
HETATM    4  C15 UNL     1      25.827   3.347  50.691  1.00  0.00     0.021 A 
HETATM    5  C16 UNL     1      25.284   4.085  49.661  1.00  0.00    -0.020 A 
HETATM    6  C20 UNL     1      23.992   3.848  49.227  1.00  0.00     0.079 A 
ENDROOT
BRANCH   3   7
HETATM    7  C7  UNL     1      25.587   1.573  52.359  1.00  0.00     0.010 C 
HETATM    8  C8  UNL     1      26.708   0.902  52.284  1.00  0.00     0.003 C 
BRANCH   8   9
HETATM    9  C9  UNL     1      27.286   0.078  53.387  1.00  0.00     0.137 A 
HETATM   10  C10 UNL     1      27.062  -1.343  53.005  1.00  0.00     0.003 A 
HETATM   11  C11 UNL     1      28.018  -2.248  52.909  1.00  0.00    -0.000 A 
HETATM   12  C12 UNL     1      29.397  -1.845  53.193  1.00  0.00     0.017 A 
HETATM   13  C13 UNL     1      29.720  -0.630  53.537  1.00  0.00     0.094 A 
HETATM   14  N1  UNL     1      28.671   0.337  53.636  1.00  0.00    -0.323 N 
BRANCH  14  15
HETATM   15  C14 UNL     1      28.879   1.694  53.999  1.00  0.00     0.356 C 
HETATM   16  O1  UNL     1      29.476   2.216  54.968  1.00  0.00    -0.283 OA
ENDBRANCH  14  15
ENDBRANCH   8   9
ENDBRANCH   3   7
BRANCH   1  17
HETATM   17  C2  UNL     1      21.803   2.597  49.350  1.00  0.00     0.013 C 
HETATM   18  C1  UNL     1      21.562   1.108  49.144  1.00  0.00     0.015 C 
HETATM   19  C3  UNL     1      20.764   3.199  50.244  1.00  0.00     0.015 C 
ENDBRANCH   1  17
BRANCH   5  20
HETATM   20  C17 UNL     1      25.982   5.156  48.942  1.00  0.00     0.013 C 
HETATM   21  C18 UNL     1      27.437   4.827  48.742  1.00  0.00     0.015 C 
HETATM   22  C19 UNL     1      25.862   6.489  49.683  1.00  0.00     0.015 C 
ENDBRANCH   5  20
BRANCH   6  23
HETATM   23  O2  UNL     1      23.394   4.565  48.190  1.00  0.00    -0.360 OA
HETATM   24  H25 UNL     1      22.424   4.392  47.957  1.00  0.00     0.217 HD
ENDBRANCH   6  23
TORSDOF 6
ENDMDL
MODEL 3
REMARK VINA RESULT:      -7.7      3.070      6.666
REMARK  6 active torsions:
REMARK  status: ('A' for Active; 'I' for Inactive)
REMARK    1  A    between atoms: C2_2  and  C4_4 
REMARK    2  A    between atoms: C6_6  and  C7_7 
REMARK    3  A    between atoms: C8_8  and  C9_9 
REMARK    4  A    between atoms: N1_14  and  C14_15 
REMARK    5  A    between atoms: C16_18  and  C17_19 
REMARK    6  A    between atoms: C20_22  and  O2_23 
ROOT
HETATM    1  C4  UNL     1      25.763   0.037  53.538  1.00  0.00    -0.020 A 
HETATM    2  C5  UNL     1      25.530   0.885  52.469  1.00  0.00     0.021 A 
HETATM    3  C6  UNL     1      24.249   1.209  52.069  1.00  0.00    -0.035 A 
HETATM    4  C15 UNL     1      23.140   0.704  52.715  1.00  0.00     0.021 A 
HETATM    5  C16 UNL     1      23.347  -0.143  53.782  1.00  0.00    -0.020 A 
HETATM    6  C20 UNL     1      24.630  -0.470  54.185  1.00  0.00     0.079 A 
ENDROOT
BRANCH   3   7
HETATM    7  C7  UNL     1      24.063   2.109  50.936  1.00  0.00     0.010 C 
HETATM    8  C8  UNL     1      24.973   2.950  50.515  1.00  0.00     0.003 C 
BRANCH   8   9
HETATM    9  C9  UNL     1      24.805   3.881  49.359  1.00  0.00     0.137 A 
HETATM   10  C10 UNL     1      23.451   4.481  49.502  1.00  0.00     0.003 A 
HETATM   11  C11 UNL     1      23.212   5.778  49.550  1.00  0.00    -0.000 A 
HETATM   12  C12 UNL     1      24.344   6.704  49.459  1.00  0.00     0.017 A 
HETATM   13  C13 UNL     1      25.577   6.300  49.331  1.00  0.00     0.094 A 
HETATM   14  N1  UNL     1      25.816   4.891  49.281  1.00  0.00    -0.323 N 
BRANCH  14  15
HETATM   15  C14 UNL     1      27.106   4.313  49.146  1.00  0.00     0.356 C 
HETATM   16  O1  UNL     1      28.113   4.666  48.490  1.00  0.00    -0.283 OA
ENDBRANCH  14  15
ENDBRANCH   8   9
ENDBRANCH   3   7
BRANCH   1  17
HETATM   17  C2  UNL     1      27.138  -0.305  53.959  1.00  0.00     0.013 C 
HETATM   18  C1  UNL     1      27.786  -1.285  52.991  1.00  0.00     0.015 C 
HETATM   19  C3  UNL     1      28.003   0.896  54.178  1.00  0.00     0.015 C 
ENDBRANCH   1  17
BRANCH   5  20
HETATM   20  C17 UNL     1      22.282  -0.766  54.574  1.00  0.00     0.013 C 
HETATM   21  C18 UNL     1      21.791  -2.037  53.935  1.00  0.00     0.015 C 
HETATM   22  C19 UNL     1      21.103   0.191  54.765  1.00  0.00     0.015 C 
ENDBRANCH   5  20
BRANCH   6  23
HETATM   23  O2  UNL     1      24.896  -1.322  55.258  1.00  0.00    -0.360 OA
HETATM   24  H25 UNL     1      24.427  -2.218  55.312  1.00  0.00     0.217 HD
ENDBRANCH   6  23
TORSDOF 6
ENDMDL
MODEL 4
REMARK VINA RESULT:      -7.7      2.890      4.786
REMARK  6 active torsions:
REMARK  status: ('A' for Active; 'I' for Inactive)
REMARK    1  A    between atoms: C2_2  and  C4_4 
REMARK    2  A    between atoms: C6_6  and  C7_7 
REMARK    3  A    between atoms: C8_8  and  C9_9 
REMARK    4  A    between atoms: N1_14  and  C14_15 
REMARK    5  A    between atoms: C16_18  and  C17_19 
REMARK    6  A    between atoms: C20_22  and  O2_23 
ROOT
HETATM    1  C4  UNL     1      21.805   0.185  52.845  1.00  0.00    -0.020 A 
HETATM    2  C5  UNL     1      23.164   0.375  53.026  1.00  0.00     0.021 A 
HETATM    3  C6  UNL     1      23.919   1.101  52.126  1.00  0.00    -0.035 A 
HETATM    4  C15 UNL     1      23.356   1.672  51.004  1.00  0.00     0.021 A 
HETATM    5  C16 UNL     1      22.003   1.495  50.802  1.00  0.00    -0.020 A 
HETATM    6  C20 UNL     1      21.245   0.768  51.702  1.00  0.00     0.079 A 
ENDROOT
BRANCH   3   7
HETATM    7  C7  UNL     1      25.347   1.270  52.368  1.00  0.00     0.010 C 
HETATM    8  C8  UNL     1      26.250   0.368  52.075  1.00  0.00     0.003 C 
BRANCH   8   9
HETATM    9  C9  UNL     1      27.716   0.518  52.314  1.00  0.00     0.137 A 
HETATM   10  C10 UNL     1      27.934   1.944  52.677  1.00  0.00     0.003 A 
HETATM   11  C11 UNL     1      28.525   2.349  53.785  1.00  0.00    -0.000 A 
HETATM   12  C12 UNL     1      29.003   1.341  54.734  1.00  0.00     0.017 A 
HETATM   13  C13 UNL     1      28.871   0.060  54.529  1.00  0.00     0.094 A 
HETATM   14  N1  UNL     1      28.228  -0.359  53.322  1.00  0.00    -0.323 N 
BRANCH  14  15
HETATM   15  C14 UNL     1      28.016  -1.719  52.971  1.00  0.00     0.356 C 
HETATM   16  O1  UNL     1      28.652  -2.761  53.251  1.00  0.00    -0.283 OA
ENDBRANCH  14  15
ENDBRANCH   8   9
ENDBRANCH   3   7
BRANCH   1  17
HETATM   17  C2  UNL     1      21.005  -0.594  53.813  1.00  0.00     0.013 C 
HETATM   18  C1  UNL     1      21.741  -1.851  54.257  1.00  0.00     0.015 C 
HETATM   19  C3  UNL     1      20.552   0.214  54.988  1.00  0.00     0.015 C 
ENDBRANCH   1  17
BRANCH   5  20
HETATM   20  C17 UNL     1      21.251   2.032  49.664  1.00  0.00     0.013 C 
HETATM   21  C18 UNL     1      21.745   1.465  48.360  1.00  0.00     0.015 C 
HETATM   22  C19 UNL     1      21.337   3.559  49.616  1.00  0.00     0.015 C 
ENDBRANCH   5  20
BRANCH   6  23
HETATM   23  O2  UNL     1      19.874   0.559  51.546  1.00  0.00    -0.360 OA
HETATM   24  H25 UNL     1      19.218   1.188  51.994  1.00  0.00     0.217 HD
ENDBRANCH   6  23
TORSDOF 6
ENDMDL
MODEL 5
REMARK VINA RESULT:      -7.6      3.065      7.263
REMARK  6 active torsions:
REMARK  status: ('A' for Active; 'I' for Inactive)
REMARK    1  A    between atoms: C2_2  and  C4_4 
REMARK    2  A    between atoms: C6_6  and  C7_7 
REMARK    3  A    between atoms: C8_8  and  C9_9 
REMARK    4  A    between atoms: N1_14  and  C14_15 
REMARK    5  A    between atoms: C16_18  and  C17_19 
REMARK    6  A    between atoms: C20_22  and  O2_23 
ROOT
HETATM    1  C4  UNL     1      23.379  -0.119  53.859  1.00  0.00    -0.020 A 
HETATM    2  C5  UNL     1      23.223   0.797  52.833  1.00  0.00     0.021 A 
HETATM    3  C6  UNL     1      24.309   1.320  52.160  1.00  0.00    -0.035 A 
HETATM    4  C15 UNL     1      25.601   0.956  52.478  1.00  0.00     0.021 A 
HETATM    5  C16 UNL     1      25.781   0.046  53.498  1.00  0.00    -0.020 A 
HETATM    6  C20 UNL     1      24.693  -0.480  54.173  1.00  0.00     0.079 A 
ENDROOT
BRANCH   3   7
HETATM    7  C7  UNL     1      24.086   2.281  51.086  1.00  0.00     0.010 C 
HETATM    8  C8  UNL     1      25.046   2.832  50.388  1.00  0.00     0.003 C 
BRANCH   8   9
HETATM    9  C9  UNL     1      24.842   3.818  49.285  1.00  0.00     0.137 A 
HETATM   10  C10 UNL     1      23.470   4.365  49.465  1.00  0.00     0.003 A 
HETATM   11  C11 UNL     1      23.189   5.649  49.585  1.00  0.00    -0.000 A 
HETATM   12  C12 UNL     1      24.289   6.615  49.540  1.00  0.00     0.017 A 
HETATM   13  C13 UNL     1      25.534   6.260  49.387  1.00  0.00     0.094 A 
HETATM   14  N1  UNL     1      25.819   4.864  49.260  1.00  0.00    -0.323 N 
BRANCH  14  15
HETATM   15  C14 UNL     1      27.127   4.337  49.089  1.00  0.00     0.356 C 
HETATM   16  O1  UNL     1      28.144   4.798  48.523  1.00  0.00    -0.283 OA
ENDBRANCH  14  15
ENDBRANCH   8   9
ENDBRANCH   3   7
BRANCH   1  17
HETATM   17  C2  UNL     1      22.209  -0.675  54.574  1.00  0.00     0.013 C 
HETATM   18  C1  UNL     1      21.045   0.306  54.577  1.00  0.00     0.015 C 
HETATM   19  C3  UNL     1      21.790  -2.017  54.063  1.00  0.00     0.015 C 
ENDBRANCH   1  17
BRANCH   5  20
HETATM   20  C17 UNL     1      27.082  -0.445  53.960  1.00  0.00     0.013 C 
HETATM   21  C18 UNL     1      28.056   0.685  54.162  1.00  0.00     0.015 C 
HETATM   22  C19 UNL     1      27.675  -1.453  52.974  1.00  0.00     0.015 C 
ENDBRANCH   5  20
BRANCH   6  23
HETATM   23  O2  UNL     1      24.819  -1.404  55.212  1.00  0.00    -0.360 OA
HETATM   24  H25 UNL     1      24.531  -2.364  55.064  1.00  0.00     0.217 HD
ENDBRANCH   6  23
TORSDOF 6
ENDMDL
MODEL 6
REMARK VINA RESULT:      -7.5      3.225      7.513
REMARK  6 active torsions:
REMARK  status: ('A' for Active; 'I' for Inactive)
REMARK    1  A    between atoms: C2_2  and  C4_4 
REMARK    2  A    between atoms: C6_6  and  C7_7 
REMARK    3  A    between atoms: C8_8  and  C9_9 
REMARK    4  A    between atoms: N1_14  and  C14_15 
REMARK    5  A    between atoms: C16_18  and  C17_19 
REMARK    6  A    between atoms: C20_22  and  O2_23 
ROOT
HETATM    1  C4  UNL     1      23.248  -0.215  53.854  1.00  0.00    -0.020 A 
HETATM    2  C5  UNL     1      22.974   0.605  52.772  1.00  0.00     0.021 A 
HETATM    3  C6  UNL     1      23.984   1.138  51.996  1.00  0.00    -0.035 A 
HETATM    4  C15 UNL     1      25.313   0.879  52.261  1.00  0.00     0.021 A 
HETATM    5  C16 UNL     1      25.610   0.067  53.334  1.00  0.00    -0.020 A 
HETATM    6  C20 UNL     1      24.599  -0.469  54.113  1.00  0.00     0.079 A 
ENDROOT
BRANCH   3   7
HETATM    7  C7  UNL     1      23.638   1.994  50.868  1.00  0.00     0.010 C 
HETATM    8  C8  UNL     1      24.417   2.937  50.401  1.00  0.00     0.003 C 
BRANCH   8   9
HETATM    9  C9  UNL     1      24.084   3.826  49.248  1.00  0.00     0.137 A 
HETATM   10  C10 UNL     1      23.048   3.111  48.457  1.00  0.00     0.003 A 
HETATM   11  C11 UNL     1      21.866   3.612  48.150  1.00  0.00    -0.000 A 
HETATM   12  C12 UNL     1      21.535   4.961  48.613  1.00  0.00     0.017 A 
HETATM   13  C13 UNL     1      22.359   5.689  49.314  1.00  0.00     0.094 A 
HETATM   14  N1  UNL     1      23.635   5.128  49.636  1.00  0.00    -0.323 N 
BRANCH  14  15
HETATM   15  C14 UNL     1      24.627   5.807  50.392  1.00  0.00     0.356 C 
HETATM   16  O1  UNL     1      25.731   6.301  50.066  1.00  0.00    -0.283 OA
ENDBRANCH  14  15
ENDBRANCH   8   9
ENDBRANCH   3   7
BRANCH   1  17
HETATM   17  C2  UNL     1      22.160  -0.781  54.680  1.00  0.00     0.013 C 
HETATM   18  C1  UNL     1      21.007   0.203  54.829  1.00  0.00     0.015 C 
HETATM   19  C3  UNL     1      21.680  -2.111  54.190  1.00  0.00     0.015 C 
ENDBRANCH   1  17
BRANCH   5  20
HETATM   20  C17 UNL     1      26.964  -0.306  53.752  1.00  0.00     0.013 C 
HETATM   21  C18 UNL     1      27.894   0.878  53.723  1.00  0.00     0.015 C 
HETATM   22  C19 UNL     1      27.531  -1.415  52.864  1.00  0.00     0.015 C 
ENDBRANCH   5  20
BRANCH   6  23
HETATM   23  O2  UNL     1      24.843  -1.297  55.210  1.00  0.00    -0.360 OA
HETATM   24  H25 UNL     1      24.188  -1.310  55.982  1.00  0.00     0.217 HD
ENDBRANCH   6  23
TORSDOF 6
ENDMDL
MODEL 7
REMARK VINA RESULT:      -7.4      3.522      8.007
REMARK  6 active torsions:
REMARK  status: ('A' for Active; 'I' for Inactive)
REMARK    1  A    between atoms: C2_2  and  C4_4 
REMARK    2  A    between atoms: C6_6  and  C7_7 
REMARK    3  A    between atoms: C8_8  and  C9_9 
REMARK    4  A    between atoms: N1_14  and  C14_15 
REMARK    5  A    between atoms: C16_18  and  C17_19 
REMARK    6  A    between atoms: C20_22  and  O2_23 
ROOT
HETATM    1  C4  UNL     1      23.174  -0.235  53.897  1.00  0.00    -0.020 A 
HETATM    2  C5  UNL     1      22.889   0.561  52.801  1.00  0.00     0.021 A 
HETATM    3  C6  UNL     1      23.890   1.082  52.006  1.00  0.00    -0.035 A 
HETATM    4  C15 UNL     1      25.222   0.834  52.265  1.00  0.00     0.021 A 
HETATM    5  C16 UNL     1      25.531   0.045  53.352  1.00  0.00    -0.020 A 
HETATM    6  C20 UNL     1      24.528  -0.478  54.151  1.00  0.00     0.079 A 
ENDROOT
BRANCH   3   7
HETATM    7  C7  UNL     1      23.532   1.914  50.863  1.00  0.00     0.010 C 
HETATM    8  C8  UNL     1      22.663   2.891  50.914  1.00  0.00     0.003 C 
BRANCH   8   9
HETATM    9  C9  UNL     1      22.279   3.755  49.758  1.00  0.00     0.137 A 
HETATM   10  C10 UNL     1      22.917   3.150  48.558  1.00  0.00     0.003 A 
HETATM   11  C11 UNL     1      22.263   2.785  47.472  1.00  0.00    -0.000 A 
HETATM   12  C12 UNL     1      20.812   2.980  47.427  1.00  0.00     0.017 A 
HETATM   13  C13 UNL     1      20.140   3.500  48.415  1.00  0.00     0.094 A 
HETATM   14  N1  UNL     1      20.865   3.889  49.584  1.00  0.00    -0.323 N 
BRANCH  14  15
HETATM   15  C14 UNL     1      20.262   4.467  50.733  1.00  0.00     0.356 C 
HETATM   16  O1  UNL     1      19.365   4.051  51.501  1.00  0.00    -0.283 OA
ENDBRANCH  14  15
ENDBRANCH   8   9
ENDBRANCH   3   7
BRANCH   1  17
HETATM   17  C2  UNL     1      22.095  -0.788  54.743  1.00  0.00     0.013 C 
HETATM   18  C1  UNL     1      20.931   0.186  54.865  1.00  0.00     0.015 C 
HETATM   19  C3  UNL     1      21.630  -2.139  54.296  1.00  0.00     0.015 C 
ENDBRANCH   1  17
BRANCH   5  20
HETATM   20  C17 UNL     1      26.890  -0.313  53.767  1.00  0.00     0.013 C 
HETATM   21  C18 UNL     1      27.792   0.892  53.795  1.00  0.00     0.015 C 
HETATM   22  C19 UNL     1      27.490  -1.372  52.839  1.00  0.00     0.015 C 
ENDBRANCH   5  20
BRANCH   6  23
HETATM   23  O2  UNL     1      24.785  -1.283  55.262  1.00  0.00    -0.360 OA
HETATM   24  H25 UNL     1      25.394  -0.941  55.996  1.00  0.00     0.217 HD
ENDBRANCH   6  23
TORSDOF 6
ENDMDL
MODEL 8
REMARK VINA RESULT:      -7.2      1.159      1.387
REMARK  6 active torsions:
REMARK  status: ('A' for Active; 'I' for Inactive)
REMARK    1  A    between atoms: C2_2  and  C4_4 
REMARK    2  A    between atoms: C6_6  and  C7_7 
REMARK    3  A    between atoms: C8_8  and  C9_9 
REMARK    4  A    between atoms: N1_14  and  C14_15 
REMARK    5  A    between atoms: C16_18  and  C17_19 
REMARK    6  A    between atoms: C20_22  and  O2_23 
ROOT
HETATM    1  C4  UNL     1      25.565   4.979  49.157  1.00  0.00    -0.020 A 
HETATM    2  C5  UNL     1      25.982   3.982  50.022  1.00  0.00     0.021 A 
HETATM    3  C6  UNL     1      25.117   3.002  50.466  1.00  0.00    -0.035 A 
HETATM    4  C15 UNL     1      23.796   2.968  50.068  1.00  0.00     0.021 A 
HETATM    5  C16 UNL     1      23.358   3.952  49.208  1.00  0.00    -0.020 A 
HETATM    6  C20 UNL     1      24.223   4.936  48.762  1.00  0.00     0.079 A 
ENDROOT
BRANCH   3   7
HETATM    7  C7  UNL     1      25.611   1.975  51.376  1.00  0.00     0.010 C 
HETATM    8  C8  UNL     1      25.862   2.182  52.644  1.00  0.00     0.003 C 
BRANCH   8   9
HETATM    9  C9  UNL     1      26.369   1.147  53.594  1.00  0.00     0.137 A 
HETATM   10  C10 UNL     1      25.636  -0.107  53.272  1.00  0.00     0.003 A 
HETATM   11  C11 UNL     1      26.217  -1.252  52.969  1.00  0.00    -0.000 A 
HETATM   12  C12 UNL     1      27.681  -1.311  52.942  1.00  0.00     0.017 A 
HETATM   13  C13 UNL     1      28.433  -0.280  53.206  1.00  0.00     0.094 A 
HETATM   14  N1  UNL     1      27.785   0.953  53.532  1.00  0.00    -0.323 N 
BRANCH  14  15
HETATM   15  C14 UNL     1      28.479   2.153  53.839  1.00  0.00     0.356 C 
HETATM   16  O1  UNL     1      29.152   2.933  53.126  1.00  0.00    -0.283 OA
ENDBRANCH  14  15
ENDBRANCH   8   9
ENDBRANCH   3   7
BRANCH   1  17
HETATM   17  C2  UNL     1      26.498   6.026  48.688  1.00  0.00     0.013 C 
HETATM   18  C1  UNL     1      26.460   7.249  49.593  1.00  0.00     0.015 C 
HETATM   19  C3  UNL     1      27.897   5.528  48.504  1.00  0.00     0.015 C 
ENDBRANCH   1  17
BRANCH   5  20
HETATM   20  C17 UNL     1      21.990   4.062  48.692  1.00  0.00     0.013 C 
HETATM   21  C18 UNL     1      21.044   4.572  49.745  1.00  0.00     0.015 C 
HETATM   22  C19 UNL     1      21.486   2.716  48.169  1.00  0.00     0.015 C 
ENDBRANCH   5  20
BRANCH   6  23
HETATM   23  O2  UNL     1      23.832   5.954  47.891  1.00  0.00    -0.360 OA
HETATM   24  H25 UNL     1      23.737   6.900  48.239  1.00  0.00     0.217 HD
ENDBRANCH   6  23
TORSDOF 6
ENDMDL
MODEL 9
REMARK VINA RESULT:      -7.1      3.151      6.641
REMARK  6 active torsions:
REMARK  status: ('A' for Active; 'I' for Inactive)
REMARK    1  A    between atoms: C2_2  and  C4_4 
REMARK    2  A    between atoms: C6_6  and  C7_7 
REMARK    3  A    between atoms: C8_8  and  C9_9 
REMARK    4  A    between atoms: N1_14  and  C14_15 
REMARK    5  A    between atoms: C16_18  and  C17_19 
REMARK    6  A    between atoms: C20_22  and  O2_23 
ROOT
HETATM    1  C4  UNL     1      23.904   2.842  49.976  1.00  0.00    -0.020 A 
HETATM    2  C5  UNL     1      24.611   3.837  49.322  1.00  0.00     0.021 A 
HETATM    3  C6  UNL     1      25.927   4.113  49.634  1.00  0.00    -0.035 A 
HETATM    4  C15 UNL     1      26.601   3.411  50.611  1.00  0.00     0.021 A 
HETATM    5  C16 UNL     1      25.918   2.416  51.277  1.00  0.00    -0.020 A 
HETATM    6  C20 UNL     1      24.598   2.138  50.966  1.00  0.00     0.079 A 
ENDROOT
BRANCH   3   7
HETATM    7  C7  UNL     1      26.623   5.171  48.912  1.00  0.00     0.010 C 
HETATM    8  C8  UNL     1      27.892   5.127  48.595  1.00  0.00     0.003 C 
BRANCH   8   9
HETATM    9  C9  UNL     1      28.626   6.198  47.857  1.00  0.00     0.137 A 
HETATM   10  C10 UNL     1      27.894   7.465  48.126  1.00  0.00     0.003 A 
HETATM   11  C11 UNL     1      28.444   8.550  48.635  1.00  0.00    -0.000 A 
HETATM   12  C12 UNL     1      29.871   8.525  48.964  1.00  0.00     0.017 A 
HETATM   13  C13 UNL     1      30.620   7.475  48.775  1.00  0.00     0.094 A 
HETATM   14  N1  UNL     1      30.006   6.308  48.223  1.00  0.00    -0.323 N 
BRANCH  14  15
HETATM   15  C14 UNL     1      30.700   5.096  47.965  1.00  0.00     0.356 C 
HETATM   16  O1  UNL     1      31.738   4.607  48.467  1.00  0.00    -0.283 OA
ENDBRANCH  14  15
ENDBRANCH   8   9
ENDBRANCH   3   7
BRANCH   1  17
HETATM   17  C2  UNL     1      22.494   2.554  49.636  1.00  0.00     0.013 C 
HETATM   18  C1  UNL     1      21.591   3.732  49.975  1.00  0.00     0.015 C 
HETATM   19  C3  UNL     1      22.309   2.115  48.218  1.00  0.00     0.015 C 
ENDBRANCH   1  17
BRANCH   5  20
HETATM   20  C17 UNL     1      26.484   1.579  52.339  1.00  0.00     0.013 C 
HETATM   21  C18 UNL     1      27.720   2.203  52.931  1.00  0.00     0.015 C 
HETATM   22  C19 UNL     1      26.824   0.181  51.820  1.00  0.00     0.015 C 
ENDBRANCH   5  20
BRANCH   6  23
HETATM   23  O2  UNL     1      23.861   1.142  51.609  1.00  0.00    -0.360 OA
HETATM   24  H25 UNL     1      23.893   0.192  51.259  1.00  0.00     0.217 HD
ENDBRANCH   6  23
TORSDOF 6
ENDMDL
