MODEL 1
REMARK VINA RESULT:      -7.0      0.000      0.000
REMARK  13 active torsions:
REMARK  status: ('A' for Active; 'I' for Inactive)
REMARK    1  A    between atoms: C2_2  and  C3_3 
REMARK    2  A    between atoms: C6_7  and  C7_8 
REMARK    3  A    between atoms: C14_16  and  C15_17 
REMARK    4  A    between atoms: C15_17  and  O3_18 
REMARK    5  A    between atoms: O3_18  and  C16_19 
REMARK    6  A    between atoms: C16_19  and  C17_20 
REMARK       I    between atoms: C17_20  and  N1_22 
REMARK    7  A    between atoms: N1_22  and  C18_23 
REMARK    8  A    between atoms: C18_23  and  C19_24 
REMARK    9  A    between atoms: C19_24  and  C20_25 
REMARK   10  A    between atoms: C20_25  and  C21_26 
REMARK   11  A    between atoms: C21_26  and  C22_27 
REMARK   12  A    between atoms: C22_27  and  C23_28 
REMARK   13  A    between atoms: C23_28  and  C24_29 
ROOT
HETATM    1  C3  UNL     1      26.330   0.225  53.020  1.00  0.00     0.043 A 
HETATM    2  C4  UNL     1      25.328  -0.440  53.704  1.00  0.00     0.187 A 
HETATM    3  O1  UNL     1      25.661  -1.301  54.549  1.00  0.00    -0.287 OA
HETATM    4  C5  UNL     1      24.027  -0.126  53.425  1.00  0.00     0.093 A 
HETATM    5  C6  UNL     1      23.758   0.831  52.484  1.00  0.00     0.090 A 
HETATM    6  O2  UNL     1      24.727   1.429  51.866  1.00  0.00    -0.309 OA
HETATM    7  C13 UNL     1      25.997   1.181  52.081  1.00  0.00     0.088 A 
HETATM    8  C14 UNL     1      26.757   1.941  51.304  1.00  0.00     0.037 C 
ENDROOT
BRANCH   8   9
HETATM    9  C15 UNL     1      26.246   2.959  50.309  1.00  0.00     0.198 C 
BRANCH   9  10
HETATM   10  O3  UNL     1      27.171   3.828  49.862  1.00  0.00    -0.378 OA
BRANCH  10  11
HETATM   11  C16 UNL     1      26.903   4.737  48.911  1.00  0.00     0.270 C 
BRANCH  11  12
HETATM   12  C17 UNL     1      26.112   5.891  49.329  1.00  0.00     0.241 C 
HETATM   13  O4  UNL     1      25.596   6.464  48.295  1.00  0.00    -0.271 OA
HETATM   14  N1  UNL     1      25.723   6.595  50.487  1.00  0.00    -0.359 N 
HETATM   15  H16 UNL     1      26.128   6.188  51.339  1.00  0.00     0.162 HD
BRANCH  14  16
HETATM   16  C18 UNL     1      24.839   7.779  50.277  1.00  0.00     0.122 C 
BRANCH  16  17
HETATM   17  C19 UNL     1      23.549   7.379  50.902  1.00  0.00     0.020 C 
BRANCH  17  18
HETATM   18  C20 UNL     1      22.494   6.851  50.050  1.00  0.00     0.002 C 
BRANCH  18  19
HETATM   19  C21 UNL     1      21.834   5.588  50.382  1.00  0.00     0.000 C 
BRANCH  19  20
HETATM   20  C22 UNL     1      21.656   4.520  49.372  1.00  0.00     0.000 C 
BRANCH  20  21
HETATM   21  C23 UNL     1      22.970   3.767  49.132  1.00  0.00    -0.000 C 
BRANCH  21  22
HETATM   22  C24 UNL     1      22.753   2.357  48.692  1.00  0.00    -0.005 C 
HETATM   23  C25 UNL     1      21.322   2.098  48.273  1.00  0.00     0.005 C 
ENDBRANCH  21  22
ENDBRANCH  20  21
ENDBRANCH  19  20
ENDBRANCH  18  19
ENDBRANCH  17  18
ENDBRANCH  16  17
ENDBRANCH  14  16
ENDBRANCH  11  12
ENDBRANCH  10  11
ENDBRANCH   9  10
ENDBRANCH   8   9
BRANCH   1  24
HETATM   24  C2  UNL     1      27.619   0.034  53.171  1.00  0.00    -0.013 C 
HETATM   25  C1  UNL     1      28.959   0.098  53.735  1.00  0.00     0.037 C 
ENDBRANCH   1  24
BRANCH   5  26
HETATM   26  C7  UNL     1      22.364   1.140  52.212  1.00  0.00    -0.002 A 
HETATM   27  C8  UNL     1      21.749   2.341  52.480  1.00  0.00     0.014 A 
HETATM   28  C9  UNL     1      20.438   2.584  52.206  1.00  0.00     0.001 A 
HETATM   29  C10 UNL     1      19.657   1.625  51.640  1.00  0.00     0.000 A 
HETATM   30  C11 UNL     1      20.206   0.406  51.348  1.00  0.00     0.001 A 
HETATM   31  C12 UNL     1      21.539   0.192  51.638  1.00  0.00     0.014 A 
ENDBRANCH   5  26
TORSDOF 13
ENDMDL
MODEL 2
REMARK VINA RESULT:      -6.9      2.087      5.655
REMARK  13 active torsions:
REMARK  status: ('A' for Active; 'I' for Inactive)
REMARK    1  A    between atoms: C2_2  and  C3_3 
REMARK    2  A    between atoms: C6_7  and  C7_8 
REMARK    3  A    between atoms: C14_16  and  C15_17 
REMARK    4  A    between atoms: C15_17  and  O3_18 
REMARK    5  A    between atoms: O3_18  and  C16_19 
REMARK    6  A    between atoms: C16_19  and  C17_20 
REMARK       I    between atoms: C17_20  and  N1_22 
REMARK    7  A    between atoms: N1_22  and  C18_23 
REMARK    8  A    between atoms: C18_23  and  C19_24 
REMARK    9  A    between atoms: C19_24  and  C20_25 
REMARK   10  A    between atoms: C20_25  and  C21_26 
REMARK   11  A    between atoms: C21_26  and  C22_27 
REMARK   12  A    between atoms: C22_27  and  C23_28 
REMARK   13  A    between atoms: C23_28  and  C24_29 
ROOT
HETATM    1  C3  UNL     1      22.355  -0.234  53.767  1.00  0.00     0.043 A 
HETATM    2  C4  UNL     1      22.977  -1.067  54.679  1.00  0.00     0.187 A 
HETATM    3  O1  UNL     1      22.257  -1.744  55.448  1.00  0.00    -0.287 OA
HETATM    4  C5  UNL     1      24.343  -1.113  54.696  1.00  0.00     0.093 A 
HETATM    5  C6  UNL     1      25.048  -0.338  53.816  1.00  0.00     0.090 A 
HETATM    6  O2  UNL     1      24.425   0.430  52.978  1.00  0.00    -0.309 OA
HETATM    7  C13 UNL     1      23.119   0.526  52.904  1.00  0.00     0.088 A 
HETATM    8  C14 UNL     1      22.770   1.388  51.958  1.00  0.00     0.037 C 
ENDROOT
BRANCH   8   9
HETATM    9  C15 UNL     1      23.730   2.156  51.079  1.00  0.00     0.198 C 
BRANCH   9  10
HETATM   10  O3  UNL     1      24.201   3.297  51.616  1.00  0.00    -0.378 OA
BRANCH  10  11
HETATM   11  C16 UNL     1      23.410   4.351  51.873  1.00  0.00     0.270 C 
BRANCH  11  12
HETATM   12  C17 UNL     1      23.829   5.625  51.295  1.00  0.00     0.241 C 
HETATM   13  O4  UNL     1      23.294   5.773  50.131  1.00  0.00    -0.271 OA
HETATM   14  N1  UNL     1      24.628   6.751  51.581  1.00  0.00    -0.359 N 
HETATM   15  H16 UNL     1      25.095   6.670  52.494  1.00  0.00     0.162 HD
BRANCH  14  16
HETATM   16  C18 UNL     1      24.671   7.816  50.537  1.00  0.00     0.122 C 
BRANCH  16  17
HETATM   17  C19 UNL     1      26.075   7.784  50.048  1.00  0.00     0.020 C 
BRANCH  17  18
HETATM   18  C20 UNL     1      26.387   6.984  48.873  1.00  0.00     0.002 C 
BRANCH  18  19
HETATM   19  C21 UNL     1      26.862   5.607  49.017  1.00  0.00     0.000 C 
BRANCH  19  20
HETATM   20  C22 UNL     1      28.117   5.152  48.377  1.00  0.00     0.000 C 
BRANCH  20  21
HETATM   21  C23 UNL     1      28.917   6.341  47.832  1.00  0.00    -0.000 C 
BRANCH  21  22
HETATM   22  C24 UNL     1      30.382   6.061  47.752  1.00  0.00    -0.005 C 
HETATM   23  C25 UNL     1      31.033   6.003  49.118  1.00  0.00     0.005 C 
ENDBRANCH  21  22
ENDBRANCH  20  21
ENDBRANCH  19  20
ENDBRANCH  18  19
ENDBRANCH  17  18
ENDBRANCH  16  17
ENDBRANCH  14  16
ENDBRANCH  11  12
ENDBRANCH  10  11
ENDBRANCH   9  10
ENDBRANCH   8   9
BRANCH   1  24
HETATM   24  C2  UNL     1      21.059  -0.076  53.631  1.00  0.00    -0.013 C 
HETATM   25  C1  UNL     1      19.749   0.039  53.008  1.00  0.00     0.037 C 
ENDBRANCH   1  24
BRANCH   5  26
HETATM   26  C7  UNL     1      26.500  -0.411  53.861  1.00  0.00    -0.002 A 
HETATM   27  C8  UNL     1      27.283  -1.190  53.042  1.00  0.00     0.014 A 
HETATM   28  C9  UNL     1      28.641  -1.223  53.122  1.00  0.00     0.001 A 
HETATM   29  C10 UNL     1      29.302  -0.469  54.040  1.00  0.00     0.000 A 
HETATM   30  C11 UNL     1      28.583   0.329  54.887  1.00  0.00     0.001 A 
HETATM   31  C12 UNL     1      27.206   0.341  54.780  1.00  0.00     0.014 A 
ENDBRANCH   5  26
TORSDOF 13
ENDMDL
MODEL 3
REMARK VINA RESULT:      -6.8      2.725      6.242
REMARK  13 active torsions:
REMARK  status: ('A' for Active; 'I' for Inactive)
REMARK    1  A    between atoms: C2_2  and  C3_3 
REMARK    2  A    between atoms: C6_7  and  C7_8 
REMARK    3  A    between atoms: C14_16  and  C15_17 
REMARK    4  A    between atoms: C15_17  and  O3_18 
REMARK    5  A    between atoms: O3_18  and  C16_19 
REMARK    6  A    between atoms: C16_19  and  C17_20 
REMARK       I    between atoms: C17_20  and  N1_22 
REMARK    7  A    between atoms: N1_22  and  C18_23 
REMARK    8  A    between atoms: C18_23  and  C19_24 
REMARK    9  A    between atoms: C19_24  and  C20_25 
REMARK   10  A    between atoms: C20_25  and  C21_26 
REMARK   11  A    between atoms: C21_26  and  C22_27 
REMARK   12  A    between atoms: C22_27  and  C23_28 
REMARK   13  A    between atoms: C23_28  and  C24_29 
ROOT
HETATM    1  C3  UNL     1      22.325  -0.211  53.735  1.00  0.00     0.043 A 
HETATM    2  C4  UNL     1      22.947  -1.058  54.635  1.00  0.00     0.187 A 
HETATM    3  O1  UNL     1      22.228  -1.768  55.372  1.00  0.00    -0.287 OA
HETATM    4  C5  UNL     1      24.314  -1.078  54.676  1.00  0.00     0.093 A 
HETATM    5  C6  UNL     1      25.018  -0.265  53.830  1.00  0.00     0.090 A 
HETATM    6  O2  UNL     1      24.396   0.513  53.002  1.00  0.00    -0.309 OA
HETATM    7  C13 UNL     1      23.090   0.586  52.907  1.00  0.00     0.088 A 
HETATM    8  C14 UNL     1      22.740   1.467  51.978  1.00  0.00     0.037 C 
ENDROOT
BRANCH   8   9
HETATM    9  C15 UNL     1      23.701   2.278  51.138  1.00  0.00     0.198 C 
BRANCH   9  10
HETATM   10  O3  UNL     1      23.263   3.505  50.801  1.00  0.00    -0.378 OA
BRANCH  10  11
HETATM   11  C16 UNL     1      24.026   4.602  50.929  1.00  0.00     0.270 C 
BRANCH  11  12
HETATM   12  C17 UNL     1      25.186   4.683  50.045  1.00  0.00     0.241 C 
HETATM   13  O4  UNL     1      24.874   4.241  48.874  1.00  0.00    -0.271 OA
HETATM   14  N1  UNL     1      26.538   5.081  50.041  1.00  0.00    -0.359 N 
HETATM   15  H16 UNL     1      26.841   5.424  50.962  1.00  0.00     0.162 HD
BRANCH  14  16
HETATM   16  C18 UNL     1      27.272   4.923  48.752  1.00  0.00     0.122 C 
BRANCH  16  17
HETATM   17  C19 UNL     1      27.576   6.320  48.337  1.00  0.00     0.020 C 
BRANCH  17  18
HETATM   18  C20 UNL     1      28.841   6.590  47.671  1.00  0.00     0.002 C 
BRANCH  18  19
HETATM   19  C21 UNL     1      30.093   6.063  48.214  1.00  0.00     0.000 C 
BRANCH  19  20
HETATM   20  C22 UNL     1      31.247   5.755  47.338  1.00  0.00     0.000 C 
BRANCH  20  21
HETATM   21  C23 UNL     1      31.895   4.422  47.732  1.00  0.00    -0.000 C 
BRANCH  21  22
HETATM   22  C24 UNL     1      32.085   3.508  46.566  1.00  0.00    -0.005 C 
HETATM   23  C25 UNL     1      32.846   2.253  46.937  1.00  0.00     0.005 C 
ENDBRANCH  21  22
ENDBRANCH  20  21
ENDBRANCH  19  20
ENDBRANCH  18  19
ENDBRANCH  17  18
ENDBRANCH  16  17
ENDBRANCH  14  16
ENDBRANCH  11  12
ENDBRANCH  10  11
ENDBRANCH   9  10
ENDBRANCH   8   9
BRANCH   1  24
HETATM   24  C2  UNL     1      21.030  -0.074  53.579  1.00  0.00    -0.013 C 
HETATM   25  C1  UNL     1      19.725  -0.000  52.940  1.00  0.00     0.037 C 
ENDBRANCH   1  24
BRANCH   5  26
HETATM   26  C7  UNL     1      26.470  -0.312  53.899  1.00  0.00    -0.002 A 
HETATM   27  C8  UNL     1      27.255   0.494  54.692  1.00  0.00     0.014 A 
HETATM   28  C9  UNL     1      28.613   0.411  54.723  1.00  0.00     0.001 A 
HETATM   29  C10 UNL     1      29.273  -0.493  53.952  1.00  0.00     0.000 A 
HETATM   30  C11 UNL     1      28.553  -1.326  53.139  1.00  0.00     0.001 A 
HETATM   31  C12 UNL     1      27.176  -1.218  53.131  1.00  0.00     0.014 A 
ENDBRANCH   5  26
TORSDOF 13
ENDMDL
MODEL 4
REMARK VINA RESULT:      -6.5      2.723      6.402
REMARK  13 active torsions:
REMARK  status: ('A' for Active; 'I' for Inactive)
REMARK    1  A    between atoms: C2_2  and  C3_3 
REMARK    2  A    between atoms: C6_7  and  C7_8 
REMARK    3  A    between atoms: C14_16  and  C15_17 
REMARK    4  A    between atoms: C15_17  and  O3_18 
REMARK    5  A    between atoms: O3_18  and  C16_19 
REMARK    6  A    between atoms: C16_19  and  C17_20 
REMARK       I    between atoms: C17_20  and  N1_22 
REMARK    7  A    between atoms: N1_22  and  C18_23 
REMARK    8  A    between atoms: C18_23  and  C19_24 
REMARK    9  A    between atoms: C19_24  and  C20_25 
REMARK   10  A    between atoms: C20_25  and  C21_26 
REMARK   11  A    between atoms: C21_26  and  C22_27 
REMARK   12  A    between atoms: C22_27  and  C23_28 
REMARK   13  A    between atoms: C23_28  and  C24_29 
ROOT
HETATM    1  C3  UNL     1      21.636  -0.313  53.471  1.00  0.00     0.043 A 
HETATM    2  C4  UNL     1      22.254  -1.018  54.488  1.00  0.00     0.187 A 
HETATM    3  O1  UNL     1      21.531  -1.616  55.316  1.00  0.00    -0.287 OA
HETATM    4  C5  UNL     1      23.620  -1.028  54.539  1.00  0.00     0.093 A 
HETATM    5  C6  UNL     1      24.328  -0.345  53.588  1.00  0.00     0.090 A 
HETATM    6  O2  UNL     1      23.709   0.303  52.652  1.00  0.00    -0.309 OA
HETATM    7  C13 UNL     1      22.403   0.357  52.540  1.00  0.00     0.088 A 
HETATM    8  C14 UNL     1      22.057   1.093  51.492  1.00  0.00     0.037 C 
ENDROOT
BRANCH   8   9
HETATM    9  C15 UNL     1      23.021   1.776  50.548  1.00  0.00     0.198 C 
BRANCH   9  10
HETATM   10  O3  UNL     1      23.154   3.102  50.735  1.00  0.00    -0.378 OA
BRANCH  10  11
HETATM   11  C16 UNL     1      24.252   3.645  51.284  1.00  0.00     0.270 C 
BRANCH  11  12
HETATM   12  C17 UNL     1      25.315   4.022  50.356  1.00  0.00     0.241 C 
HETATM   13  O4  UNL     1      25.578   3.033  49.569  1.00  0.00    -0.271 OA
HETATM   14  N1  UNL     1      26.157   5.104  50.031  1.00  0.00    -0.359 N 
HETATM   15  H16 UNL     1      25.999   5.913  50.647  1.00  0.00     0.162 HD
BRANCH  14  16
HETATM   16  C18 UNL     1      27.109   4.889  48.904  1.00  0.00     0.122 C 
BRANCH  16  17
HETATM   17  C19 UNL     1      27.378   6.260  48.393  1.00  0.00     0.020 C 
BRANCH  17  18
HETATM   18  C20 UNL     1      28.676   6.541  47.797  1.00  0.00     0.002 C 
BRANCH  18  19
HETATM   19  C21 UNL     1      29.818   5.664  48.058  1.00  0.00     0.000 C 
BRANCH  19  20
HETATM   20  C22 UNL     1      31.127   6.206  48.488  1.00  0.00     0.000 C 
BRANCH  20  21
HETATM   21  C23 UNL     1      31.682   7.186  47.446  1.00  0.00    -0.000 C 
BRANCH  21  22
HETATM   22  C24 UNL     1      31.961   8.537  48.018  1.00  0.00    -0.005 C 
HETATM   23  C25 UNL     1      31.295   8.742  49.362  1.00  0.00     0.005 C 
ENDBRANCH  21  22
ENDBRANCH  20  21
ENDBRANCH  19  20
ENDBRANCH  18  19
ENDBRANCH  17  18
ENDBRANCH  16  17
ENDBRANCH  14  16
ENDBRANCH  11  12
ENDBRANCH  10  11
ENDBRANCH   9  10
ENDBRANCH   8   9
BRANCH   1  24
HETATM   24  C2  UNL     1      20.341  -0.205  53.290  1.00  0.00    -0.013 C 
HETATM   25  C1  UNL     1      18.957  -0.569  53.022  1.00  0.00     0.037 C 
ENDBRANCH   1  24
BRANCH   5  26
HETATM   26  C7  UNL     1      25.780  -0.377  53.672  1.00  0.00    -0.002 A 
HETATM   27  C8  UNL     1      26.613  -1.045  52.804  1.00  0.00     0.014 A 
HETATM   28  C9  UNL     1      27.968  -1.044  52.924  1.00  0.00     0.001 A 
HETATM   29  C10 UNL     1      28.577  -0.364  53.932  1.00  0.00     0.000 A 
HETATM   30  C11 UNL     1      27.807   0.322  54.831  1.00  0.00     0.001 A 
HETATM   31  C12 UNL     1      26.434   0.302  54.682  1.00  0.00     0.014 A 
ENDBRANCH   5  26
TORSDOF 13
ENDMDL
MODEL 5
REMARK VINA RESULT:      -6.4      2.363      4.891
REMARK  13 active torsions:
REMARK  status: ('A' for Active; 'I' for Inactive)
REMARK    1  A    between atoms: C2_2  and  C3_3 
REMARK    2  A    between atoms: C6_7  and  C7_8 
REMARK    3  A    between atoms: C14_16  and  C15_17 
REMARK    4  A    between atoms: C15_17  and  O3_18 
REMARK    5  A    between atoms: O3_18  and  C16_19 
REMARK    6  A    between atoms: C16_19  and  C17_20 
REMARK       I    between atoms: C17_20  and  N1_22 
REMARK    7  A    between atoms: N1_22  and  C18_23 
REMARK    8  A    between atoms: C18_23  and  C19_24 
REMARK    9  A    between atoms: C19_24  and  C20_25 
REMARK   10  A    between atoms: C20_25  and  C21_26 
REMARK   11  A    between atoms: C21_26  and  C22_27 
REMARK   12  A    between atoms: C22_27  and  C23_28 
REMARK   13  A    between atoms: C23_28  and  C24_29 
ROOT
HETATM    1  C3  UNL     1      25.585   1.199  53.028  1.00  0.00     0.043 A 
HETATM    2  C4  UNL     1      25.991   2.051  52.016  1.00  0.00     0.187 A 
HETATM    3  O1  UNL     1      27.138   2.547  52.087  1.00  0.00    -0.287 OA
HETATM    4  C5  UNL     1      25.124   2.308  50.991  1.00  0.00     0.093 A 
HETATM    5  C6  UNL     1      23.889   1.718  50.998  1.00  0.00     0.090 A 
HETATM    6  O2  UNL     1      23.548   0.926  51.966  1.00  0.00    -0.309 OA
HETATM    7  C13 UNL     1      24.326   0.634  52.981  1.00  0.00     0.088 A 
HETATM    8  C14 UNL     1      23.711  -0.196  53.813  1.00  0.00     0.037 C 
ENDROOT
BRANCH   8   9
HETATM    9  C15 UNL     1      22.312  -0.740  53.630  1.00  0.00     0.198 C 
BRANCH   9  10
HETATM   10  O3  UNL     1      21.334   0.031  54.140  1.00  0.00    -0.378 OA
BRANCH  10  11
HETATM   11  C16 UNL     1      20.192   0.276  53.477  1.00  0.00     0.270 C 
BRANCH  11  12
HETATM   12  C17 UNL     1      20.121   1.551  52.769  1.00  0.00     0.241 C 
HETATM   13  O4  UNL     1      19.109   1.549  51.968  1.00  0.00    -0.271 OA
HETATM   14  N1  UNL     1      20.790   2.787  52.661  1.00  0.00    -0.359 N 
HETATM   15  H16 UNL     1      21.620   2.829  53.267  1.00  0.00     0.162 HD
BRANCH  14  16
HETATM   16  C18 UNL     1      20.209   3.774  51.706  1.00  0.00     0.122 C 
BRANCH  16  17
HETATM   17  C19 UNL     1      21.258   4.823  51.589  1.00  0.00     0.020 C 
BRANCH  17  18
HETATM   18  C20 UNL     1      22.468   4.691  52.387  1.00  0.00     0.002 C 
BRANCH  18  19
HETATM   19  C21 UNL     1      23.622   5.555  52.133  1.00  0.00     0.000 C 
BRANCH  19  20
HETATM   20  C22 UNL     1      23.864   6.147  50.797  1.00  0.00     0.000 C 
BRANCH  20  21
HETATM   21  C23 UNL     1      23.712   7.673  50.839  1.00  0.00    -0.000 C 
BRANCH  21  22
HETATM   22  C24 UNL     1      22.877   8.199  49.718  1.00  0.00    -0.005 C 
HETATM   23  C25 UNL     1      22.361   7.097  48.818  1.00  0.00     0.005 C 
ENDBRANCH  21  22
ENDBRANCH  20  21
ENDBRANCH  19  20
ENDBRANCH  18  19
ENDBRANCH  17  18
ENDBRANCH  16  17
ENDBRANCH  14  16
ENDBRANCH  11  12
ENDBRANCH  10  11
ENDBRANCH   9  10
ENDBRANCH   8   9
BRANCH   1  24
HETATM   24  C2  UNL     1      26.297   0.859  54.077  1.00  0.00    -0.013 C 
HETATM   25  C1  UNL     1      27.216   0.122  54.930  1.00  0.00     0.037 C 
ENDBRANCH   1  24
BRANCH   5  26
HETATM   26  C7  UNL     1      22.991   2.013  49.893  1.00  0.00    -0.002 A 
HETATM   27  C8  UNL     1      21.862   1.295  49.571  1.00  0.00     0.014 A 
HETATM   28  C9  UNL     1      21.052   1.612  48.525  1.00  0.00     0.001 A 
HETATM   29  C10 UNL     1      21.328   2.679  47.729  1.00  0.00     0.000 A 
HETATM   30  C11 UNL     1      22.437   3.436  47.993  1.00  0.00     0.001 A 
HETATM   31  C12 UNL     1      23.239   3.089  49.062  1.00  0.00     0.014 A 
ENDBRANCH   5  26
TORSDOF 13
ENDMDL
MODEL 6
REMARK VINA RESULT:      -6.4      2.319      5.296
REMARK  13 active torsions:
REMARK  status: ('A' for Active; 'I' for Inactive)
REMARK    1  A    between atoms: C2_2  and  C3_3 
REMARK    2  A    between atoms: C6_7  and  C7_8 
REMARK    3  A    between atoms: C14_16  and  C15_17 
REMARK    4  A    between atoms: C15_17  and  O3_18 
REMARK    5  A    between atoms: O3_18  and  C16_19 
REMARK    6  A    between atoms: C16_19  and  C17_20 
REMARK       I    between atoms: C17_20  and  N1_22 
REMARK    7  A    between atoms: N1_22  and  C18_23 
REMARK    8  A    between atoms: C18_23  and  C19_24 
REMARK    9  A    between atoms: C19_24  and  C20_25 
REMARK   10  A    between atoms: C20_25  and  C21_26 
REMARK   11  A    between atoms: C21_26  and  C22_27 
REMARK   12  A    between atoms: C22_27  and  C23_28 
REMARK   13  A    between atoms: C23_28  and  C24_29 
ROOT
HETATM    1  C3  UNL     1      23.737   0.060  53.345  1.00  0.00     0.043 A 
HETATM    2  C4  UNL     1      25.068   0.076  52.967  1.00  0.00     0.187 A 
HETATM    3  O1  UNL     1      25.808  -0.849  53.372  1.00  0.00    -0.287 OA
HETATM    4  C5  UNL     1      25.510   1.097  52.173  1.00  0.00     0.093 A 
HETATM    5  C6  UNL     1      24.627   2.065  51.779  1.00  0.00     0.090 A 
HETATM    6  O2  UNL     1      23.388   2.012  52.156  1.00  0.00    -0.309 OA
HETATM    7  C13 UNL     1      22.894   1.064  52.916  1.00  0.00     0.088 A 
HETATM    8  C14 UNL     1      21.603   1.273  53.138  1.00  0.00     0.037 C 
ENDROOT
BRANCH   8   9
HETATM    9  C15 UNL     1      20.799   2.434  52.595  1.00  0.00     0.198 C 
BRANCH   9  10
HETATM   10  O3  UNL     1      19.673   2.088  51.945  1.00  0.00    -0.378 OA
BRANCH  10  11
HETATM   11  C16 UNL     1      19.653   1.139  50.996  1.00  0.00     0.270 C 
BRANCH  11  12
HETATM   12  C17 UNL     1      20.470   1.395  49.814  1.00  0.00     0.241 C 
HETATM   13  O4  UNL     1      19.732   1.872  48.868  1.00  0.00    -0.271 OA
HETATM   14  N1  UNL     1      21.798   1.294  49.353  1.00  0.00    -0.359 N 
HETATM   15  H16 UNL     1      22.424   0.899  50.067  1.00  0.00     0.162 HD
BRANCH  14  16
HETATM   16  C18 UNL     1      22.052   1.745  47.954  1.00  0.00     0.122 C 
BRANCH  16  17
HETATM   17  C19 UNL     1      22.963   2.911  48.111  1.00  0.00     0.020 C 
BRANCH  17  18
HETATM   18  C20 UNL     1      22.511   4.217  47.653  1.00  0.00     0.002 C 
BRANCH  18  19
HETATM   19  C21 UNL     1      21.312   4.830  48.227  1.00  0.00     0.000 C 
BRANCH  19  20
HETATM   20  C22 UNL     1      21.180   5.048  49.686  1.00  0.00     0.000 C 
BRANCH  20  21
HETATM   21  C23 UNL     1      20.862   6.517  49.994  1.00  0.00    -0.000 C 
BRANCH  21  22
HETATM   22  C24 UNL     1      21.975   7.209  50.709  1.00  0.00    -0.005 C 
HETATM   23  C25 UNL     1      22.702   8.198  49.823  1.00  0.00     0.005 C 
ENDBRANCH  21  22
ENDBRANCH  20  21
ENDBRANCH  19  20
ENDBRANCH  18  19
ENDBRANCH  17  18
ENDBRANCH  16  17
ENDBRANCH  14  16
ENDBRANCH  11  12
ENDBRANCH  10  11
ENDBRANCH   9  10
ENDBRANCH   8   9
BRANCH   1  24
HETATM   24  C2  UNL     1      23.166  -0.845  54.104  1.00  0.00    -0.013 C 
HETATM   25  C1  UNL     1      22.631  -1.507  55.285  1.00  0.00     0.037 C 
ENDBRANCH   1  24
BRANCH   5  26
HETATM   26  C7  UNL     1      25.130   3.137  50.935  1.00  0.00    -0.002 A 
HETATM   27  C8  UNL     1      24.607   4.408  50.867  1.00  0.00     0.014 A 
HETATM   28  C9  UNL     1      25.114   5.380  50.060  1.00  0.00     0.001 A 
HETATM   29  C10 UNL     1      26.188   5.132  49.263  1.00  0.00     0.000 A 
HETATM   30  C11 UNL     1      26.756   3.887  49.282  1.00  0.00     0.001 A 
HETATM   31  C12 UNL     1      26.219   2.924  50.112  1.00  0.00     0.014 A 
ENDBRANCH   5  26
TORSDOF 13
ENDMDL
MODEL 7
REMARK VINA RESULT:      -6.3      3.226      5.323
REMARK  13 active torsions:
REMARK  status: ('A' for Active; 'I' for Inactive)
REMARK    1  A    between atoms: C2_2  and  C3_3 
REMARK    2  A    between atoms: C6_7  and  C7_8 
REMARK    3  A    between atoms: C14_16  and  C15_17 
REMARK    4  A    between atoms: C15_17  and  O3_18 
REMARK    5  A    between atoms: O3_18  and  C16_19 
REMARK    6  A    between atoms: C16_19  and  C17_20 
REMARK       I    between atoms: C17_20  and  N1_22 
REMARK    7  A    between atoms: N1_22  and  C18_23 
REMARK    8  A    between atoms: C18_23  and  C19_24 
REMARK    9  A    between atoms: C19_24  and  C20_25 
REMARK   10  A    between atoms: C20_25  and  C21_26 
REMARK   11  A    between atoms: C21_26  and  C22_27 
REMARK   12  A    between atoms: C22_27  and  C23_28 
REMARK   13  A    between atoms: C23_28  and  C24_29 
ROOT
HETATM    1  C3  UNL     1      26.507   0.540  53.664  1.00  0.00     0.043 A 
HETATM    2  C4  UNL     1      25.577  -0.234  54.337  1.00  0.00     0.187 A 
HETATM    3  O1  UNL     1      25.961  -0.882  55.336  1.00  0.00    -0.287 OA
HETATM    4  C5  UNL     1      24.289  -0.251  53.881  1.00  0.00     0.093 A 
HETATM    5  C6  UNL     1      23.961   0.492  52.779  1.00  0.00     0.090 A 
HETATM    6  O2  UNL     1      24.863   1.203  52.178  1.00  0.00    -0.309 OA
HETATM    7  C13 UNL     1      26.117   1.268  52.559  1.00  0.00     0.088 A 
HETATM    8  C14 UNL     1      26.804   2.069  51.755  1.00  0.00     0.037 C 
ENDROOT
BRANCH   8   9
HETATM    9  C15 UNL     1      26.236   2.811  50.566  1.00  0.00     0.198 C 
BRANCH   9  10
HETATM   10  O3  UNL     1      27.101   3.634  49.946  1.00  0.00    -0.378 OA
BRANCH  10  11
HETATM   11  C16 UNL     1      26.713   4.506  49.002  1.00  0.00     0.270 C 
BRANCH  11  12
HETATM   12  C17 UNL     1      27.641   5.596  48.713  1.00  0.00     0.241 C 
HETATM   13  O4  UNL     1      26.983   6.648  48.360  1.00  0.00    -0.271 OA
HETATM   14  N1  UNL     1      29.020   5.886  48.686  1.00  0.00    -0.359 N 
HETATM   15  H16 UNL     1      29.591   5.069  48.941  1.00  0.00     0.162 HD
BRANCH  14  16
HETATM   16  C18 UNL     1      29.399   7.273  48.288  1.00  0.00     0.122 C 
BRANCH  16  17
HETATM   17  C19 UNL     1      30.150   7.090  47.016  1.00  0.00     0.020 C 
BRANCH  17  18
HETATM   18  C20 UNL     1      31.581   7.356  47.007  1.00  0.00     0.002 C 
BRANCH  18  19
HETATM   19  C21 UNL     1      32.539   6.267  47.205  1.00  0.00     0.000 C 
BRANCH  19  20
HETATM   20  C22 UNL     1      32.378   4.963  46.523  1.00  0.00     0.000 C 
BRANCH  20  21
HETATM   21  C23 UNL     1      32.295   3.818  47.540  1.00  0.00    -0.000 C 
BRANCH  21  22
HETATM   22  C24 UNL     1      33.359   2.789  47.336  1.00  0.00    -0.005 C 
HETATM   23  C25 UNL     1      34.710   3.250  47.840  1.00  0.00     0.005 C 
ENDBRANCH  21  22
ENDBRANCH  20  21
ENDBRANCH  19  20
ENDBRANCH  18  19
ENDBRANCH  17  18
ENDBRANCH  16  17
ENDBRANCH  14  16
ENDBRANCH  11  12
ENDBRANCH  10  11
ENDBRANCH   9  10
ENDBRANCH   8   9
BRANCH   1  24
HETATM   24  C2  UNL     1      27.776   0.657  53.975  1.00  0.00    -0.013 C 
HETATM   25  C1  UNL     1      29.212   0.844  53.832  1.00  0.00     0.037 C 
ENDBRANCH   1  24
BRANCH   5  26
HETATM   26  C7  UNL     1      22.582   0.451  52.320  1.00  0.00    -0.002 A 
HETATM   27  C8  UNL     1      22.135   0.905  51.101  1.00  0.00     0.014 A 
HETATM   28  C9  UNL     1      20.831   0.843  50.716  1.00  0.00     0.001 A 
HETATM   29  C10 UNL     1      19.887   0.317  51.540  1.00  0.00     0.000 A 
HETATM   30  C11 UNL     1      20.263  -0.154  52.768  1.00  0.00     0.001 A 
HETATM   31  C12 UNL     1      21.594  -0.078  53.129  1.00  0.00     0.014 A 
ENDBRANCH   5  26
TORSDOF 13
ENDMDL
MODEL 8
REMARK VINA RESULT:      -6.2      3.621      9.443
REMARK  13 active torsions:
REMARK  status: ('A' for Active; 'I' for Inactive)
REMARK    1  A    between atoms: C2_2  and  C3_3 
REMARK    2  A    between atoms: C6_7  and  C7_8 
REMARK    3  A    between atoms: C14_16  and  C15_17 
REMARK    4  A    between atoms: C15_17  and  O3_18 
REMARK    5  A    between atoms: O3_18  and  C16_19 
REMARK    6  A    between atoms: C16_19  and  C17_20 
REMARK       I    between atoms: C17_20  and  N1_22 
REMARK    7  A    between atoms: N1_22  and  C18_23 
REMARK    8  A    between atoms: C18_23  and  C19_24 
REMARK    9  A    between atoms: C19_24  and  C20_25 
REMARK   10  A    between atoms: C20_25  and  C21_26 
REMARK   11  A    between atoms: C21_26  and  C22_27 
REMARK   12  A    between atoms: C22_27  and  C23_28 
REMARK   13  A    between atoms: C23_28  and  C24_29 
ROOT
HETATM    1  C3  UNL     1      28.370   7.335  48.144  1.00  0.00     0.043 A 
HETATM    2  C4  UNL     1      29.596   7.799  47.700  1.00  0.00     0.187 A 
HETATM    3  O1  UNL     1      29.725   9.028  47.500  1.00  0.00    -0.287 OA
HETATM    4  C5  UNL     1      30.604   6.897  47.503  1.00  0.00     0.093 A 
HETATM    5  C6  UNL     1      30.369   5.571  47.749  1.00  0.00     0.090 A 
HETATM    6  O2  UNL     1      29.206   5.179  48.164  1.00  0.00    -0.309 OA
HETATM    7  C13 UNL     1      28.194   5.986  48.375  1.00  0.00     0.088 A 
HETATM    8  C14 UNL     1      27.135   5.304  48.792  1.00  0.00     0.037 C 
ENDROOT
BRANCH   8   9
HETATM    9  C15 UNL     1      27.088   3.807  49.003  1.00  0.00     0.198 C 
BRANCH   9  10
HETATM   10  O3  UNL     1      26.891   3.420  50.276  1.00  0.00    -0.378 OA
BRANCH  10  11
HETATM   11  C16 UNL     1      25.670   3.369  50.832  1.00  0.00     0.270 C 
BRANCH  11  12
HETATM   12  C17 UNL     1      25.474   2.349  51.859  1.00  0.00     0.241 C 
HETATM   13  O4  UNL     1      24.437   2.639  52.569  1.00  0.00    -0.271 OA
HETATM   14  N1  UNL     1      26.040   1.151  52.340  1.00  0.00    -0.359 N 
HETATM   15  H16 UNL     1      26.885   0.887  51.817  1.00  0.00     0.162 HD
BRANCH  14  16
HETATM   16  C18 UNL     1      25.349   0.508  53.495  1.00  0.00     0.122 C 
BRANCH  16  17
HETATM   17  C19 UNL     1      25.907  -0.871  53.526  1.00  0.00     0.020 C 
BRANCH  17  18
HETATM   18  C20 UNL     1      26.814  -1.281  52.465  1.00  0.00     0.002 C 
BRANCH  18  19
HETATM   19  C21 UNL     1      28.106  -1.887  52.787  1.00  0.00     0.000 C 
BRANCH  19  20
HETATM   20  C22 UNL     1      29.023  -1.273  53.774  1.00  0.00     0.000 C 
BRANCH  20  21
HETATM   21  C23 UNL     1      29.441   0.135  53.330  1.00  0.00    -0.000 C 
BRANCH  21  22
HETATM   22  C24 UNL     1      29.065   1.186  54.322  1.00  0.00    -0.005 C 
HETATM   23  C25 UNL     1      28.809   2.529  53.670  1.00  0.00     0.005 C 
ENDBRANCH  21  22
ENDBRANCH  20  21
ENDBRANCH  19  20
ENDBRANCH  18  19
ENDBRANCH  17  18
ENDBRANCH  16  17
ENDBRANCH  14  16
ENDBRANCH  11  12
ENDBRANCH  10  11
ENDBRANCH   9  10
ENDBRANCH   8   9
BRANCH   1  24
HETATM   24  C2  UNL     1      27.309   8.072  48.375  1.00  0.00    -0.013 C 
HETATM   25  C1  UNL     1      26.016   8.713  48.187  1.00  0.00     0.037 C 
ENDBRANCH   1  24
BRANCH   5  26
HETATM   26  C7  UNL     1      31.463   4.638  47.529  1.00  0.00    -0.002 A 
HETATM   27  C8  UNL     1      31.373   3.458  46.826  1.00  0.00     0.014 A 
HETATM   28  C9  UNL     1      32.427   2.617  46.646  1.00  0.00     0.001 A 
HETATM   29  C10 UNL     1      33.648   2.911  47.166  1.00  0.00     0.000 A 
HETATM   30  C11 UNL     1      33.807   4.069  47.878  1.00  0.00     0.001 A 
HETATM   31  C12 UNL     1      32.718   4.902  48.042  1.00  0.00     0.014 A 
ENDBRANCH   5  26
TORSDOF 13
ENDMDL
MODEL 9
REMARK VINA RESULT:      -6.2      2.960      4.984
REMARK  13 active torsions:
REMARK  status: ('A' for Active; 'I' for Inactive)
REMARK    1  A    between atoms: C2_2  and  C3_3 
REMARK    2  A    between atoms: C6_7  and  C7_8 
REMARK    3  A    between atoms: C14_16  and  C15_17 
REMARK    4  A    between atoms: C15_17  and  O3_18 
REMARK    5  A    between atoms: O3_18  and  C16_19 
REMARK    6  A    between atoms: C16_19  and  C17_20 
REMARK       I    between atoms: C17_20  and  N1_22 
REMARK    7  A    between atoms: N1_22  and  C18_23 
REMARK    8  A    between atoms: C18_23  and  C19_24 
REMARK    9  A    between atoms: C19_24  and  C20_25 
REMARK   10  A    between atoms: C20_25  and  C21_26 
REMARK   11  A    between atoms: C21_26  and  C22_27 
REMARK   12  A    between atoms: C22_27  and  C23_28 
REMARK   13  A    between atoms: C23_28  and  C24_29 
ROOT
HETATM    1  C3  UNL     1      26.465   0.963  53.638  1.00  0.00     0.043 A 
HETATM    2  C4  UNL     1      25.994  -0.019  54.492  1.00  0.00     0.187 A 
HETATM    3  O1  UNL     1      26.800  -0.542  55.294  1.00  0.00    -0.287 OA
HETATM    4  C5  UNL     1      24.674  -0.369  54.420  1.00  0.00     0.093 A 
HETATM    5  C6  UNL     1      23.866   0.259  53.511  1.00  0.00     0.090 A 
HETATM    6  O2  UNL     1      24.349   1.173  52.729  1.00  0.00    -0.309 OA
HETATM    7  C13 UNL     1      25.602   1.560  52.742  1.00  0.00     0.088 A 
HETATM    8  C14 UNL     1      25.806   2.505  51.833  1.00  0.00     0.037 C 
ENDROOT
BRANCH   8   9
HETATM    9  C15 UNL     1      24.750   3.069  50.909  1.00  0.00     0.198 C 
BRANCH   9  10
HETATM   10  O3  UNL     1      25.202   3.450  49.700  1.00  0.00    -0.378 OA
BRANCH  10  11
HETATM   11  C16 UNL     1      26.505   3.426  49.378  1.00  0.00     0.270 C 
BRANCH  11  12
HETATM   12  C17 UNL     1      27.088   4.697  48.958  1.00  0.00     0.241 C 
HETATM   13  O4  UNL     1      26.171   5.604  48.914  1.00  0.00    -0.271 OA
HETATM   14  N1  UNL     1      28.319   5.270  48.579  1.00  0.00    -0.359 N 
HETATM   15  H16 UNL     1      29.081   4.579  48.579  1.00  0.00     0.162 HD
BRANCH  14  16
HETATM   16  C18 UNL     1      28.298   6.722  48.239  1.00  0.00     0.122 C 
BRANCH  16  17
HETATM   17  C19 UNL     1      29.536   6.922  47.438  1.00  0.00     0.020 C 
BRANCH  17  18
HETATM   18  C20 UNL     1      30.549   7.841  47.936  1.00  0.00     0.002 C 
BRANCH  18  19
HETATM   19  C21 UNL     1      31.552   7.389  48.900  1.00  0.00     0.000 C 
BRANCH  19  20
HETATM   20  C22 UNL     1      31.704   5.956  49.242  1.00  0.00     0.000 C 
BRANCH  20  21
HETATM   21  C23 UNL     1      32.625   5.248  48.241  1.00  0.00    -0.000 C 
BRANCH  21  22
HETATM   22  C24 UNL     1      31.909   4.223  47.425  1.00  0.00    -0.005 C 
HETATM   23  C25 UNL     1      32.658   3.869  46.158  1.00  0.00     0.005 C 
ENDBRANCH  21  22
ENDBRANCH  20  21
ENDBRANCH  19  20
ENDBRANCH  18  19
ENDBRANCH  17  18
ENDBRANCH  16  17
ENDBRANCH  14  16
ENDBRANCH  11  12
ENDBRANCH  10  11
ENDBRANCH   9  10
ENDBRANCH   8   9
BRANCH   1  24
HETATM   24  C2  UNL     1      27.700   1.403  53.583  1.00  0.00    -0.013 C 
HETATM   25  C1  UNL     1      29.126   1.524  53.845  1.00  0.00     0.037 C 
ENDBRANCH   1  24
BRANCH   5  26
HETATM   26  C7  UNL     1      22.468  -0.137  53.460  1.00  0.00    -0.002 A 
HETATM   27  C8  UNL     1      21.513   0.418  52.640  1.00  0.00     0.014 A 
HETATM   28  C9  UNL     1      20.214   0.011  52.628  1.00  0.00     0.001 A 
HETATM   29  C10 UNL     1      19.790  -0.987  53.448  1.00  0.00     0.000 A 
HETATM   30  C11 UNL     1      20.689  -1.582  54.291  1.00  0.00     0.001 A 
HETATM   31  C12 UNL     1      22.000  -1.147  54.278  1.00  0.00     0.014 A 
ENDBRANCH   5  26
TORSDOF 13
ENDMDL
