MODEL 1
REMARK VINA RESULT:      -8.6      0.000      0.000
REMARK  6 active torsions:
REMARK  status: ('A' for Active; 'I' for Inactive)
REMARK    1  A    between atoms: C2_2  and  C3_3 
REMARK       I    between atoms: C3_3  and  N1_5 
REMARK    2  A    between atoms: C10_15  and  N4_16 
REMARK    3  A    between atoms: N4_16  and  C11_17 
REMARK    4  A    between atoms: C11_17  and  C12_18 
REMARK    5  A    between atoms: C11_17  and  C13_20 
REMARK    6  A    between atoms: C12_18  and  O2_19 
ROOT
HETATM    1  C3  UNL     1      28.236   0.218  54.124  1.00  0.00     0.239 C 
HETATM    2  O1  UNL     1      28.401  -0.735  54.919  1.00  0.00    -0.269 OA
HETATM    3  N1  UNL     1      26.950   0.713  53.816  1.00  0.00    -0.344 N 
HETATM    4  C4  UNL     1      26.611   1.783  52.935  1.00  0.00     0.131 C 
HETATM    5  C5  UNL     1      25.330   2.510  53.421  1.00  0.00     0.060 C 
HETATM    6  C6  UNL     1      24.220   1.614  53.053  1.00  0.00    -0.025 A 
HETATM    7  C7  UNL     1      24.564   0.383  53.630  1.00  0.00     0.010 A 
HETATM    8  S1  UNL     1      23.245  -0.705  53.194  1.00  0.00    -0.072 SA
HETATM    9  C8  UNL     1      22.306   0.507  52.275  1.00  0.00     0.114 A 
HETATM   10  N2  UNL     1      21.085   0.354  51.612  1.00  0.00    -0.234 NA
HETATM   11  C9  UNL     1      20.583   1.428  50.994  1.00  0.00     0.236 A 
HETATM   12  N3  UNL     1      21.294   2.531  51.072  1.00  0.00    -0.224 NA
HETATM   13  C10 UNL     1      22.460   2.739  51.687  1.00  0.00     0.139 A 
HETATM   14  C19 UNL     1      23.063   1.704  52.350  1.00  0.00     0.053 A 
HETATM   15  C20 UNL     1      25.780   0.117  54.425  1.00  0.00     0.172 C 
ENDROOT
BRANCH  13  16
HETATM   16  N4  UNL     1      23.002   4.046  51.618  1.00  0.00    -0.363 N 
HETATM   17  H9  UNL     1      23.316   4.756  52.257  1.00  0.00     0.162 HD
BRANCH  16  18
HETATM   18  C11 UNL     1      23.212   4.673  50.330  1.00  0.00     0.140 C 
BRANCH  18  19
HETATM   19  C12 UNL     1      22.765   6.116  50.283  1.00  0.00     0.194 C 
BRANCH  19  20
HETATM   20  O2  UNL     1      22.323   6.443  51.571  1.00  0.00    -0.399 OA
HETATM   21  H13 UNL     1      23.097   6.803  52.082  1.00  0.00     0.209 HD
ENDBRANCH  19  20
ENDBRANCH  18  19
BRANCH  18  22
HETATM   22  C13 UNL     1      24.600   4.635  49.835  1.00  0.00    -0.034 A 
HETATM   23  C14 UNL     1      25.104   5.806  49.296  1.00  0.00     0.009 A 
HETATM   24  C15 UNL     1      26.390   5.880  48.805  1.00  0.00     0.001 A 
HETATM   25  C16 UNL     1      27.237   4.784  48.828  1.00  0.00     0.000 A 
HETATM   26  C17 UNL     1      26.730   3.612  49.369  1.00  0.00     0.001 A 
HETATM   27  C18 UNL     1      25.441   3.529  49.864  1.00  0.00     0.009 A 
ENDBRANCH  18  22
ENDBRANCH  16  18
ENDBRANCH  13  16
BRANCH   1  28
HETATM   28  C2  UNL     1      29.447   0.761  53.555  1.00  0.00     0.048 C 
HETATM   29  C1  UNL     1      29.889  -0.483  53.548  1.00  0.00     0.037 C 
ENDBRANCH   1  28
TORSDOF 6
ENDMDL
MODEL 2
REMARK VINA RESULT:      -8.3      2.743      5.461
REMARK  6 active torsions:
REMARK  status: ('A' for Active; 'I' for Inactive)
REMARK    1  A    between atoms: C2_2  and  C3_3 
REMARK       I    between atoms: C3_3  and  N1_5 
REMARK    2  A    between atoms: C10_15  and  N4_16 
REMARK    3  A    between atoms: N4_16  and  C11_17 
REMARK    4  A    between atoms: C11_17  and  C12_18 
REMARK    5  A    between atoms: C11_17  and  C13_20 
REMARK    6  A    between atoms: C12_18  and  O2_19 
ROOT
HETATM    1  C3  UNL     1      21.308  -0.853  54.165  1.00  0.00     0.239 C 
HETATM    2  O1  UNL     1      21.134  -1.829  54.930  1.00  0.00    -0.269 OA
HETATM    3  N1  UNL     1      22.598  -0.459  53.748  1.00  0.00    -0.344 N 
HETATM    4  C4  UNL     1      22.947   0.625  52.887  1.00  0.00     0.131 C 
HETATM    5  C5  UNL     1      24.226   0.292  52.076  1.00  0.00     0.060 C 
HETATM    6  C6  UNL     1      25.337   0.454  53.030  1.00  0.00    -0.025 A 
HETATM    7  C7  UNL     1      24.984  -0.366  54.112  1.00  0.00     0.010 A 
HETATM    8  S1  UNL     1      26.303  -0.178  55.269  1.00  0.00    -0.072 SA
HETATM    9  C8  UNL     1      27.253   0.967  54.279  1.00  0.00     0.114 A 
HETATM   10  N2  UNL     1      28.479   1.572  54.568  1.00  0.00    -0.234 NA
HETATM   11  C9  UNL     1      28.989   2.398  53.649  1.00  0.00     0.236 A 
HETATM   12  N3  UNL     1      28.281   2.559  52.553  1.00  0.00    -0.224 NA
HETATM   13  C10 UNL     1      27.111   2.011  52.219  1.00  0.00     0.139 A 
HETATM   14  C19 UNL     1      26.499   1.150  53.091  1.00  0.00     0.053 A 
HETATM   15  C20 UNL     1      23.761  -1.189  54.204  1.00  0.00     0.172 C 
ENDROOT
BRANCH  13  16
HETATM   16  N4  UNL     1      26.573   2.357  50.954  1.00  0.00    -0.363 N 
HETATM   17  H9  UNL     1      26.499   1.947  50.040  1.00  0.00     0.162 HD
BRANCH  16  18
HETATM   18  C11 UNL     1      25.923   3.638  50.774  1.00  0.00     0.140 C 
BRANCH  18  19
HETATM   19  C12 UNL     1      26.347   4.355  49.512  1.00  0.00     0.194 C 
BRANCH  19  20
HETATM   20  O2  UNL     1      27.729   4.558  49.610  1.00  0.00    -0.399 OA
HETATM   21  H13 UNL     1      27.888   5.305  50.247  1.00  0.00     0.209 HD
ENDBRANCH  19  20
ENDBRANCH  18  19
BRANCH  18  22
HETATM   22  C13 UNL     1      24.448   3.595  50.770  1.00  0.00    -0.034 A 
HETATM   23  C14 UNL     1      23.806   4.097  51.889  1.00  0.00     0.009 A 
HETATM   24  C15 UNL     1      22.431   4.106  51.989  1.00  0.00     0.001 A 
HETATM   25  C16 UNL     1      21.630   3.612  50.973  1.00  0.00     0.000 A 
HETATM   26  C17 UNL     1      22.275   3.109  49.853  1.00  0.00     0.001 A 
HETATM   27  C18 UNL     1      23.655   3.097  49.745  1.00  0.00     0.009 A 
ENDBRANCH  18  22
ENDBRANCH  16  18
ENDBRANCH  13  16
BRANCH   1  28
HETATM   28  C2  UNL     1      20.103  -0.173  53.752  1.00  0.00     0.048 C 
HETATM   29  C1  UNL     1      19.544  -1.368  53.745  1.00  0.00     0.037 C 
ENDBRANCH   1  28
TORSDOF 6
ENDMDL
MODEL 3
REMARK VINA RESULT:      -8.1      1.700      2.304
REMARK  6 active torsions:
REMARK  status: ('A' for Active; 'I' for Inactive)
REMARK    1  A    between atoms: C2_2  and  C3_3 
REMARK       I    between atoms: C3_3  and  N1_5 
REMARK    2  A    between atoms: C10_15  and  N4_16 
REMARK    3  A    between atoms: N4_16  and  C11_17 
REMARK    4  A    between atoms: C11_17  and  C12_18 
REMARK    5  A    between atoms: C11_17  and  C13_20 
REMARK    6  A    between atoms: C12_18  and  O2_19 
ROOT
HETATM    1  C3  UNL     1      26.074  -0.683  53.392  1.00  0.00     0.239 C 
HETATM    2  O1  UNL     1      25.713  -1.628  54.130  1.00  0.00    -0.269 OA
HETATM    3  N1  UNL     1      25.251   0.442  53.172  1.00  0.00    -0.344 N 
HETATM    4  C4  UNL     1      25.527   1.586  52.363  1.00  0.00     0.131 C 
HETATM    5  C5  UNL     1      24.843   2.849  52.946  1.00  0.00     0.060 C 
HETATM    6  C6  UNL     1      23.421   2.713  52.587  1.00  0.00    -0.025 A 
HETATM    7  C7  UNL     1      23.058   1.452  53.083  1.00  0.00     0.010 A 
HETATM    8  S1  UNL     1      21.356   1.271  52.655  1.00  0.00    -0.072 SA
HETATM    9  C8  UNL     1      21.201   2.856  51.845  1.00  0.00     0.114 A 
HETATM   10  N2  UNL     1      20.081   3.426  51.234  1.00  0.00    -0.234 NA
HETATM   11  C9  UNL     1      20.225   4.641  50.696  1.00  0.00     0.236 A 
HETATM   12  N3  UNL     1      21.418   5.185  50.796  1.00  0.00    -0.224 NA
HETATM   13  C10 UNL     1      22.521   4.695  51.365  1.00  0.00     0.139 A 
HETATM   14  C19 UNL     1      22.483   3.456  51.945  1.00  0.00     0.053 A 
HETATM   15  C20 UNL     1      23.952   0.524  53.805  1.00  0.00     0.172 C 
ENDROOT
BRANCH  13  16
HETATM   16  N4  UNL     1      23.679   5.512  51.337  1.00  0.00    -0.363 N 
HETATM   17  H9  UNL     1      24.393   5.812  51.977  1.00  0.00     0.162 HD
BRANCH  16  18
HETATM   18  C11 UNL     1      24.064   6.174  50.108  1.00  0.00     0.140 C 
BRANCH  18  19
HETATM   19  C12 UNL     1      24.083   7.681  50.219  1.00  0.00     0.194 C 
BRANCH  19  20
HETATM   20  O2  UNL     1      24.170   7.984  51.582  1.00  0.00    -0.399 OA
HETATM   21  H13 UNL     1      25.087   7.760  51.893  1.00  0.00     0.209 HD
ENDBRANCH  19  20
ENDBRANCH  18  19
BRANCH  18  22
HETATM   22  C13 UNL     1      25.371   5.765  49.561  1.00  0.00    -0.034 A 
HETATM   23  C14 UNL     1      25.713   4.430  49.689  1.00  0.00     0.009 A 
HETATM   24  C15 UNL     1      26.911   3.942  49.212  1.00  0.00     0.001 A 
HETATM   25  C16 UNL     1      27.828   4.767  48.583  1.00  0.00     0.000 A 
HETATM   26  C17 UNL     1      27.484   6.105  48.455  1.00  0.00     0.001 A 
HETATM   27  C18 UNL     1      26.283   6.603  48.931  1.00  0.00     0.009 A 
ENDBRANCH  18  22
ENDBRANCH  16  18
ENDBRANCH  13  16
BRANCH   1  28
HETATM   28  C2  UNL     1      27.380  -0.834  52.795  1.00  0.00     0.048 C 
HETATM   29  C1  UNL     1      26.956  -2.017  52.393  1.00  0.00     0.037 C 
ENDBRANCH   1  28
TORSDOF 6
ENDMDL
MODEL 4
REMARK VINA RESULT:      -7.9      2.523      6.327
REMARK  6 active torsions:
REMARK  status: ('A' for Active; 'I' for Inactive)
REMARK    1  A    between atoms: C2_2  and  C3_3 
REMARK       I    between atoms: C3_3  and  N1_5 
REMARK    2  A    between atoms: C10_15  and  N4_16 
REMARK    3  A    between atoms: N4_16  and  C11_17 
REMARK    4  A    between atoms: C11_17  and  C12_18 
REMARK    5  A    between atoms: C11_17  and  C13_20 
REMARK    6  A    between atoms: C12_18  and  O2_19 
ROOT
HETATM    1  C3  UNL     1      18.679   2.363  50.717  1.00  0.00     0.239 C 
HETATM    2  O1  UNL     1      17.544   1.848  50.592  1.00  0.00    -0.269 OA
HETATM    3  N1  UNL     1      19.770   1.634  51.237  1.00  0.00    -0.344 N 
HETATM    4  C4  UNL     1      21.110   2.085  51.437  1.00  0.00     0.131 C 
HETATM    5  C5  UNL     1      22.115   0.917  51.263  1.00  0.00     0.060 C 
HETATM    6  C6  UNL     1      22.003   0.129  52.502  1.00  0.00    -0.025 A 
HETATM    7  C7  UNL     1      20.634  -0.160  52.605  1.00  0.00     0.010 A 
HETATM    8  S1  UNL     1      20.481  -1.100  54.090  1.00  0.00    -0.072 SA
HETATM    9  C8  UNL     1      22.219  -1.069  54.506  1.00  0.00     0.114 A 
HETATM   10  N2  UNL     1      22.871  -1.639  55.603  1.00  0.00    -0.234 NA
HETATM   11  C9  UNL     1      24.195  -1.474  55.685  1.00  0.00     0.236 A 
HETATM   12  N3  UNL     1      24.758  -0.785  54.717  1.00  0.00    -0.224 NA
HETATM   13  C10 UNL     1      24.193  -0.219  53.648  1.00  0.00     0.139 A 
HETATM   14  C19 UNL     1      22.840  -0.327  53.469  1.00  0.00     0.053 A 
HETATM   15  C20 UNL     1      19.594   0.256  51.643  1.00  0.00     0.172 C 
ENDROOT
BRANCH  13  16
HETATM   16  N4  UNL     1      25.050   0.462  52.749  1.00  0.00    -0.363 N 
HETATM   17  H9  UNL     1      25.468   0.297  51.850  1.00  0.00     0.162 HD
BRANCH  16  18
HETATM   18  C11 UNL     1      25.555   1.775  53.090  1.00  0.00     0.140 C 
BRANCH  18  19
HETATM   19  C12 UNL     1      27.041   1.928  52.854  1.00  0.00     0.194 C 
BRANCH  19  20
HETATM   20  O2  UNL     1      27.537   2.712  53.902  1.00  0.00    -0.399 OA
HETATM   21  H13 UNL     1      26.782   2.925  54.514  1.00  0.00     0.209 HD
ENDBRANCH  19  20
ENDBRANCH  18  19
BRANCH  18  22
HETATM   22  C13 UNL     1      24.892   2.898  52.401  1.00  0.00    -0.034 A 
HETATM   23  C14 UNL     1      25.184   3.069  51.060  1.00  0.00     0.009 A 
HETATM   24  C15 UNL     1      24.618   4.088  50.321  1.00  0.00     0.001 A 
HETATM   25  C16 UNL     1      23.732   4.986  50.891  1.00  0.00     0.000 A 
HETATM   26  C17 UNL     1      23.440   4.813  52.236  1.00  0.00     0.001 A 
HETATM   27  C18 UNL     1      24.003   3.794  52.983  1.00  0.00     0.009 A 
ENDBRANCH  18  22
ENDBRANCH  16  18
ENDBRANCH  13  16
BRANCH   1  28
HETATM   28  C2  UNL     1      18.780   3.739  50.292  1.00  0.00     0.048 C 
HETATM   29  C1  UNL     1      17.837   3.984  51.182  1.00  0.00     0.037 C 
ENDBRANCH   1  28
TORSDOF 6
ENDMDL
MODEL 5
REMARK VINA RESULT:      -7.8      2.934      5.881
REMARK  6 active torsions:
REMARK  status: ('A' for Active; 'I' for Inactive)
REMARK    1  A    between atoms: C2_2  and  C3_3 
REMARK       I    between atoms: C3_3  and  N1_5 
REMARK    2  A    between atoms: C10_15  and  N4_16 
REMARK    3  A    between atoms: N4_16  and  C11_17 
REMARK    4  A    between atoms: C11_17  and  C12_18 
REMARK    5  A    between atoms: C11_17  and  C13_20 
REMARK    6  A    between atoms: C12_18  and  O2_19 
ROOT
HETATM    1  C3  UNL     1      28.092   0.696  53.537  1.00  0.00     0.239 C 
HETATM    2  O1  UNL     1      29.012   0.897  52.711  1.00  0.00    -0.269 OA
HETATM    3  N1  UNL     1      26.737   0.899  53.201  1.00  0.00    -0.344 N 
HETATM    4  C4  UNL     1      25.591   0.714  54.032  1.00  0.00     0.131 C 
HETATM    5  C5  UNL     1      24.365   0.279  53.188  1.00  0.00     0.060 C 
HETATM    6  C6  UNL     1      23.906   1.507  52.518  1.00  0.00    -0.025 A 
HETATM    7  C7  UNL     1      25.048   1.990  51.861  1.00  0.00     0.010 A 
HETATM    8  S1  UNL     1      24.516   3.468  51.058  1.00  0.00    -0.072 SA
HETATM    9  C8  UNL     1      22.822   3.383  51.622  1.00  0.00     0.114 A 
HETATM   10  N2  UNL     1      21.765   4.260  51.364  1.00  0.00    -0.234 NA
HETATM   11  C9  UNL     1      20.579   3.969  51.907  1.00  0.00     0.236 A 
HETATM   12  N3  UNL     1      20.523   2.876  52.635  1.00  0.00    -0.224 NA
HETATM   13  C10 UNL     1      21.492   2.002  52.916  1.00  0.00     0.139 A 
HETATM   14  C19 UNL     1      22.748   2.207  52.411  1.00  0.00     0.053 A 
HETATM   15  C20 UNL     1      26.380   1.352  51.873  1.00  0.00     0.172 C 
ENDROOT
BRANCH  13  16
HETATM   16  N4  UNL     1      21.146   0.893  53.727  1.00  0.00    -0.363 N 
HETATM   17  H9  UNL     1      21.048   0.689  54.706  1.00  0.00     0.162 HD
BRANCH  16  18
HETATM   18  C11 UNL     1      20.824  -0.378  53.112  1.00  0.00     0.140 C 
BRANCH  18  19
HETATM   19  C12 UNL     1      21.077  -1.564  54.014  1.00  0.00     0.194 C 
BRANCH  19  20
HETATM   20  O2  UNL     1      21.468  -1.049  55.256  1.00  0.00    -0.399 OA
HETATM   21  H13 UNL     1      21.099  -0.129  55.340  1.00  0.00     0.209 HD
ENDBRANCH  19  20
ENDBRANCH  18  19
BRANCH  18  22
HETATM   22  C13 UNL     1      19.441  -0.500  52.616  1.00  0.00    -0.034 A 
HETATM   23  C14 UNL     1      18.564  -1.241  53.388  1.00  0.00     0.009 A 
HETATM   24  C15 UNL     1      17.247  -1.419  53.017  1.00  0.00     0.001 A 
HETATM   25  C16 UNL     1      16.744  -0.863  51.854  1.00  0.00     0.000 A 
HETATM   26  C17 UNL     1      17.625  -0.121  51.081  1.00  0.00     0.001 A 
HETATM   27  C18 UNL     1      18.947   0.062  51.446  1.00  0.00     0.009 A 
ENDBRANCH  18  22
ENDBRANCH  16  18
ENDBRANCH  13  16
BRANCH   1  28
HETATM   28  C2  UNL     1      28.524   0.247  54.840  1.00  0.00     0.048 C 
HETATM   29  C1  UNL     1      29.382  -0.515  54.189  1.00  0.00     0.037 C 
ENDBRANCH   1  28
TORSDOF 6
ENDMDL
MODEL 6
REMARK VINA RESULT:      -7.7      2.621      7.198
REMARK  6 active torsions:
REMARK  status: ('A' for Active; 'I' for Inactive)
REMARK    1  A    between atoms: C2_2  and  C3_3 
REMARK       I    between atoms: C3_3  and  N1_5 
REMARK    2  A    between atoms: C10_15  and  N4_16 
REMARK    3  A    between atoms: N4_16  and  C11_17 
REMARK    4  A    between atoms: C11_17  and  C12_18 
REMARK    5  A    between atoms: C11_17  and  C13_20 
REMARK    6  A    between atoms: C12_18  and  O2_19 
ROOT
HETATM    1  C3  UNL     1      23.135   5.312  48.483  1.00  0.00     0.239 C 
HETATM    2  O1  UNL     1      23.962   6.163  48.084  1.00  0.00    -0.269 OA
HETATM    3  N1  UNL     1      23.416   4.458  49.571  1.00  0.00    -0.344 N 
HETATM    4  C4  UNL     1      22.577   3.449  50.132  1.00  0.00     0.131 C 
HETATM    5  C5  UNL     1      22.840   3.298  51.653  1.00  0.00     0.060 C 
HETATM    6  C6  UNL     1      24.108   2.555  51.750  1.00  0.00    -0.025 A 
HETATM    7  C7  UNL     1      25.007   3.302  50.974  1.00  0.00     0.010 A 
HETATM    8  S1  UNL     1      26.531   2.419  51.075  1.00  0.00    -0.072 SA
HETATM    9  C8  UNL     1      25.917   1.113  52.128  1.00  0.00     0.114 A 
HETATM   10  N2  UNL     1      26.598   0.007  52.645  1.00  0.00    -0.234 NA
HETATM   11  C9  UNL     1      25.905  -0.834  53.420  1.00  0.00     0.236 A 
HETATM   12  N3  UNL     1      24.641  -0.534  53.622  1.00  0.00    -0.224 NA
HETATM   13  C10 UNL     1      23.938   0.502  53.159  1.00  0.00     0.139 A 
HETATM   14  C19 UNL     1      24.552   1.424  52.354  1.00  0.00     0.053 A 
HETATM   15  C20 UNL     1      24.688   4.552  50.256  1.00  0.00     0.172 C 
ENDROOT
BRANCH  13  16
HETATM   16  N4  UNL     1      22.578   0.584  53.549  1.00  0.00    -0.363 N 
HETATM   17  H9  UNL     1      21.977   1.239  54.019  1.00  0.00     0.162 HD
BRANCH  16  18
HETATM   18  C11 UNL     1      21.679  -0.514  53.264  1.00  0.00     0.140 C 
BRANCH  18  19
HETATM   19  C12 UNL     1      21.112  -1.164  54.506  1.00  0.00     0.194 C 
BRANCH  19  20
HETATM   20  O2  UNL     1      22.185  -1.770  55.169  1.00  0.00    -0.399 OA
HETATM   21  H13 UNL     1      22.086  -1.596  56.143  1.00  0.00     0.209 HD
ENDBRANCH  19  20
ENDBRANCH  18  19
BRANCH  18  22
HETATM   22  C13 UNL     1      20.537  -0.178  52.393  1.00  0.00    -0.034 A 
HETATM   23  C14 UNL     1      19.278  -0.520  52.854  1.00  0.00     0.009 A 
HETATM   24  C15 UNL     1      18.142  -0.250  52.119  1.00  0.00     0.001 A 
HETATM   25  C16 UNL     1      18.212   0.374  50.886  1.00  0.00     0.000 A 
HETATM   26  C17 UNL     1      19.475   0.716  50.426  1.00  0.00     0.001 A 
HETATM   27  C18 UNL     1      20.619   0.450  51.157  1.00  0.00     0.009 A 
ENDBRANCH  18  22
ENDBRANCH  16  18
ENDBRANCH  13  16
BRANCH   1  28
HETATM   28  C2  UNL     1      21.890   5.276  47.752  1.00  0.00     0.048 C 
HETATM   29  C1  UNL     1      21.736   6.529  48.139  1.00  0.00     0.037 C 
ENDBRANCH   1  28
TORSDOF 6
ENDMDL
MODEL 7
REMARK VINA RESULT:      -7.4      2.372      5.071
REMARK  6 active torsions:
REMARK  status: ('A' for Active; 'I' for Inactive)
REMARK    1  A    between atoms: C2_2  and  C3_3 
REMARK       I    between atoms: C3_3  and  N1_5 
REMARK    2  A    between atoms: C10_15  and  N4_16 
REMARK    3  A    between atoms: N4_16  and  C11_17 
REMARK    4  A    between atoms: C11_17  and  C12_18 
REMARK    5  A    between atoms: C11_17  and  C13_20 
REMARK    6  A    between atoms: C12_18  and  O2_19 
ROOT
HETATM    1  C3  UNL     1      27.753   1.675  53.267  1.00  0.00     0.239 C 
HETATM    2  O1  UNL     1      28.915   1.972  52.905  1.00  0.00    -0.269 OA
HETATM    3  N1  UNL     1      26.628   1.988  52.475  1.00  0.00    -0.344 N 
HETATM    4  C4  UNL     1      25.255   1.715  52.756  1.00  0.00     0.131 C 
HETATM    5  C5  UNL     1      24.462   1.477  51.445  1.00  0.00     0.060 C 
HETATM    6  C6  UNL     1      24.266   2.818  50.869  1.00  0.00    -0.025 A 
HETATM    7  C7  UNL     1      25.560   3.355  50.794  1.00  0.00     0.010 A 
HETATM    8  S1  UNL     1      25.341   4.966  50.109  1.00  0.00    -0.072 SA
HETATM    9  C8  UNL     1      23.563   4.860  49.956  1.00  0.00     0.114 A 
HETATM   10  N2  UNL     1      22.665   5.811  49.463  1.00  0.00    -0.234 NA
HETATM   11  C9  UNL     1      21.369   5.483  49.450  1.00  0.00     0.236 A 
HETATM   12  N3  UNL     1      21.065   4.287  49.905  1.00  0.00    -0.224 NA
HETATM   13  C10 UNL     1      21.873   3.339  50.385  1.00  0.00     0.139 A 
HETATM   14  C19 UNL     1      23.221   3.573  50.444  1.00  0.00     0.053 A 
HETATM   15  C20 UNL     1      26.799   2.668  51.209  1.00  0.00     0.172 C 
ENDROOT
BRANCH  13  16
HETATM   16  N4  UNL     1      21.269   2.127  50.800  1.00  0.00    -0.363 N 
HETATM   17  H9  UNL     1      21.111   1.207  50.425  1.00  0.00     0.162 HD
BRANCH  16  18
HETATM   18  C11 UNL     1      20.657   2.038  52.109  1.00  0.00     0.140 C 
BRANCH  18  19
HETATM   19  C12 UNL     1      19.146   2.026  52.066  1.00  0.00     0.194 C 
BRANCH  19  20
HETATM   20  O2  UNL     1      18.734   3.364  52.048  1.00  0.00    -0.399 OA
HETATM   21  H13 UNL     1      19.150   3.806  51.261  1.00  0.00     0.209 HD
ENDBRANCH  19  20
ENDBRANCH  18  19
BRANCH  18  22
HETATM   22  C13 UNL     1      21.075   0.877  52.917  1.00  0.00    -0.034 A 
HETATM   23  C14 UNL     1      21.821  -0.096  52.275  1.00  0.00     0.009 A 
HETATM   24  C15 UNL     1      22.263  -1.222  52.937  1.00  0.00     0.001 A 
HETATM   25  C16 UNL     1      21.979  -1.430  54.276  1.00  0.00     0.000 A 
HETATM   26  C17 UNL     1      21.231  -0.454  54.918  1.00  0.00     0.001 A 
HETATM   27  C18 UNL     1      20.784   0.679  54.261  1.00  0.00     0.009 A 
ENDBRANCH  18  22
ENDBRANCH  16  18
ENDBRANCH  13  16
BRANCH   1  28
HETATM   28  C2  UNL     1      27.660   0.999  54.539  1.00  0.00     0.048 C 
HETATM   29  C1  UNL     1      28.476   0.103  54.016  1.00  0.00     0.037 C 
ENDBRANCH   1  28
TORSDOF 6
ENDMDL
MODEL 8
REMARK VINA RESULT:      -7.4      2.023      6.341
REMARK  6 active torsions:
REMARK  status: ('A' for Active; 'I' for Inactive)
REMARK    1  A    between atoms: C2_2  and  C3_3 
REMARK       I    between atoms: C3_3  and  N1_5 
REMARK    2  A    between atoms: C10_15  and  N4_16 
REMARK    3  A    between atoms: N4_16  and  C11_17 
REMARK    4  A    between atoms: C11_17  and  C12_18 
REMARK    5  A    between atoms: C11_17  and  C13_20 
REMARK    6  A    between atoms: C12_18  and  O2_19 
ROOT
HETATM    1  C3  UNL     1      24.447   6.661  49.474  1.00  0.00     0.239 C 
HETATM    2  O1  UNL     1      23.536   7.331  48.937  1.00  0.00    -0.269 OA
HETATM    3  N1  UNL     1      24.226   5.346  49.937  1.00  0.00    -0.344 N 
HETATM    4  C4  UNL     1      25.160   4.469  50.565  1.00  0.00     0.131 C 
HETATM    5  C5  UNL     1      24.842   2.990  50.224  1.00  0.00     0.060 C 
HETATM    6  C6  UNL     1      23.680   2.646  51.061  1.00  0.00    -0.025 A 
HETATM    7  C7  UNL     1      22.732   3.634  50.759  1.00  0.00     0.010 A 
HETATM    8  S1  UNL     1      21.334   3.240  51.760  1.00  0.00    -0.072 SA
HETATM    9  C8  UNL     1      22.060   1.799  52.528  1.00  0.00     0.114 A 
HETATM   10  N2  UNL     1      21.505   0.935  53.476  1.00  0.00    -0.234 NA
HETATM   11  C9  UNL     1      22.262  -0.085  53.896  1.00  0.00     0.236 A 
HETATM   12  N3  UNL     1      23.463  -0.174  53.369  1.00  0.00    -0.224 NA
HETATM   13  C10 UNL     1      24.046   0.615  52.465  1.00  0.00     0.139 A 
HETATM   14  C19 UNL     1      23.359   1.690  51.969  1.00  0.00     0.053 A 
HETATM   15  C20 UNL     1      22.919   4.739  49.796  1.00  0.00     0.172 C 
ENDROOT
BRANCH  13  16
HETATM   16  N4  UNL     1      25.362   0.274  52.063  1.00  0.00    -0.363 N 
HETATM   17  H9  UNL     1      25.801  -0.296  51.361  1.00  0.00     0.162 HD
BRANCH  16  18
HETATM   18  C11 UNL     1      26.497   0.818  52.777  1.00  0.00     0.140 C 
BRANCH  18  19
HETATM   19  C12 UNL     1      26.137   1.400  54.125  1.00  0.00     0.194 C 
BRANCH  19  20
HETATM   20  O2  UNL     1      26.311   2.785  54.025  1.00  0.00    -0.399 OA
HETATM   21  H13 UNL     1      26.696   3.112  54.882  1.00  0.00     0.209 HD
ENDBRANCH  19  20
ENDBRANCH  18  19
BRANCH  18  22
HETATM   22  C13 UNL     1      27.608  -0.127  52.999  1.00  0.00    -0.034 A 
HETATM   23  C14 UNL     1      27.331  -1.471  52.817  1.00  0.00     0.009 A 
HETATM   24  C15 UNL     1      28.297  -2.438  52.998  1.00  0.00     0.001 A 
HETATM   25  C16 UNL     1      29.589  -2.108  53.370  1.00  0.00     0.000 A 
HETATM   26  C17 UNL     1      29.865  -0.761  53.551  1.00  0.00     0.001 A 
HETATM   27  C18 UNL     1      28.901   0.216  53.371  1.00  0.00     0.009 A 
ENDBRANCH  18  22
ENDBRANCH  16  18
ENDBRANCH  13  16
BRANCH   1  28
HETATM   28  C2  UNL     1      25.722   7.331  49.580  1.00  0.00     0.048 C 
HETATM   29  C1  UNL     1      25.788   7.210  48.268  1.00  0.00     0.037 C 
ENDBRANCH   1  28
TORSDOF 6
ENDMDL
MODEL 9
REMARK VINA RESULT:      -7.3      2.423      6.265
REMARK  6 active torsions:
REMARK  status: ('A' for Active; 'I' for Inactive)
REMARK    1  A    between atoms: C2_2  and  C3_3 
REMARK       I    between atoms: C3_3  and  N1_5 
REMARK    2  A    between atoms: C10_15  and  N4_16 
REMARK    3  A    between atoms: N4_16  and  C11_17 
REMARK    4  A    between atoms: C11_17  and  C12_18 
REMARK    5  A    between atoms: C11_17  and  C13_20 
REMARK    6  A    between atoms: C12_18  and  O2_19 
ROOT
HETATM    1  C3  UNL     1      26.039   6.939  48.395  1.00  0.00     0.239 C 
HETATM    2  O1  UNL     1      25.537   7.661  47.503  1.00  0.00    -0.269 OA
HETATM    3  N1  UNL     1      25.345   5.833  48.931  1.00  0.00    -0.344 N 
HETATM    4  C4  UNL     1      25.786   4.928  49.943  1.00  0.00     0.131 C 
HETATM    5  C5  UNL     1      25.188   3.516  49.717  1.00  0.00     0.060 C 
HETATM    6  C6  UNL     1      23.788   3.618  50.163  1.00  0.00    -0.025 A 
HETATM    7  C7  UNL     1      23.272   4.700  49.435  1.00  0.00     0.010 A 
HETATM    8  S1  UNL     1      21.594   4.840  49.964  1.00  0.00    -0.072 SA
HETATM    9  C8  UNL     1      21.650   3.473  51.114  1.00  0.00     0.114 A 
HETATM   10  N2  UNL     1      20.635   2.971  51.933  1.00  0.00    -0.234 NA
HETATM   11  C9  UNL     1      20.933   1.925  52.710  1.00  0.00     0.236 A 
HETATM   12  N3  UNL     1      22.163   1.468  52.626  1.00  0.00    -0.224 NA
HETATM   13  C10 UNL     1      23.172   1.901  51.867  1.00  0.00     0.139 A 
HETATM   14  C19 UNL     1      22.974   2.970  51.034  1.00  0.00     0.053 A 
HETATM   15  C20 UNL     1      24.019   5.508  48.450  1.00  0.00     0.172 C 
ENDROOT
BRANCH  13  16
HETATM   16  N4  UNL     1      24.402   1.206  51.970  1.00  0.00    -0.363 N 
HETATM   17  H9  UNL     1      25.124   0.875  51.353  1.00  0.00     0.162 HD
BRANCH  16  18
HETATM   18  C11 UNL     1      24.881   0.778  53.267  1.00  0.00     0.140 C 
BRANCH  18  19
HETATM   19  C12 UNL     1      24.668  -0.696  53.530  1.00  0.00     0.194 C 
BRANCH  19  20
HETATM   20  O2  UNL     1      23.444  -0.812  54.199  1.00  0.00    -0.399 OA
HETATM   21  H13 UNL     1      23.085  -1.724  54.032  1.00  0.00     0.209 HD
ENDBRANCH  19  20
ENDBRANCH  18  19
BRANCH  18  22
HETATM   22  C13 UNL     1      26.304   1.062  53.533  1.00  0.00    -0.034 A 
HETATM   23  C14 UNL     1      26.991   0.143  54.306  1.00  0.00     0.009 A 
HETATM   24  C15 UNL     1      28.325   0.312  54.614  1.00  0.00     0.001 A 
HETATM   25  C16 UNL     1      29.036   1.410  54.163  1.00  0.00     0.000 A 
HETATM   26  C17 UNL     1      28.346   2.330  53.388  1.00  0.00     0.001 A 
HETATM   27  C18 UNL     1      27.008   2.168  53.074  1.00  0.00     0.009 A 
ENDBRANCH  18  22
ENDBRANCH  16  18
ENDBRANCH  13  16
BRANCH   1  28
HETATM   28  C2  UNL     1      27.363   7.324  48.825  1.00  0.00     0.048 C 
HETATM   29  C1  UNL     1      27.709   7.193  47.558  1.00  0.00     0.037 C 
ENDBRANCH   1  28
TORSDOF 6
ENDMDL
