MODEL 1
REMARK VINA RESULT:      -7.7      0.000      0.000
REMARK  8 active torsions:
REMARK  status: ('A' for Active; 'I' for Inactive)
REMARK    1  A    between atoms: C2_2  and  N1_8 
REMARK    2  A    between atoms: C3_3  and  C4_4 
REMARK    3  A    between atoms: C4_4  and  C6_6 
REMARK    4  A    between atoms: N1_8  and  C7_9 
REMARK    5  A    between atoms: C12_16  and  N4_17 
REMARK       I    between atoms: N4_17  and  C13_18 
REMARK       I    between atoms: C13_18  and  N5_20 
REMARK    6  A    between atoms: N5_20  and  C14_21 
REMARK    7  A    between atoms: C14_21  and  C15_22 
REMARK    8  A    between atoms: C15_22  and  N6_23 
ROOT
HETATM    1  C7  UNL     1      26.835   1.904  52.146  1.00  0.00     0.141 A 
HETATM    2  N2  UNL     1      28.002   2.496  52.363  1.00  0.00    -0.224 NA
HETATM    3  C8  UNL     1      28.611   2.233  53.546  1.00  0.00     0.236 A 
HETATM    4  N3  UNL     1      28.069   1.420  54.452  1.00  0.00    -0.241 NA
HETATM    5  C9  UNL     1      26.886   0.837  54.200  1.00  0.00     0.072 A 
HETATM    6  C10 UNL     1      26.308  -0.011  55.133  1.00  0.00     0.035 A 
HETATM    7  C11 UNL     1      25.090  -0.576  54.808  1.00  0.00     0.032 A 
HETATM    8  C12 UNL     1      24.388  -0.390  53.663  1.00  0.00     0.037 A 
HETATM    9  C21 UNL     1      24.998   0.459  52.763  1.00  0.00     0.047 A 
HETATM   10  C22 UNL     1      26.208   1.064  53.006  1.00  0.00     0.041 A 
ENDROOT
BRANCH   8  11
HETATM   11  N4  UNL     1      23.164  -0.945  53.312  1.00  0.00    -0.309 N 
HETATM   12  C13 UNL     1      21.858  -0.418  53.411  1.00  0.00     0.320 C 
HETATM   13  O1  UNL     1      21.726   0.734  53.889  1.00  0.00    -0.247 OA
HETATM   14  N5  UNL     1      20.661  -1.039  53.033  1.00  0.00    -0.341 N 
HETATM   15  H16 UNL     1      20.740  -2.018  52.624  1.00  0.00     0.164 HD
HETATM   16  H15 UNL     1      23.110  -1.917  52.893  1.00  0.00     0.170 HD
BRANCH  14  17
HETATM   17  C14 UNL     1      19.375  -0.420  53.175  1.00  0.00     0.154 C 
BRANCH  17  18
HETATM   18  C15 UNL     1      18.840   0.195  51.924  1.00  0.00     0.292 C 
BRANCH  18  19
HETATM   19  N6  UNL     1      19.547   1.334  51.442  1.00  0.00     0.090 N 
HETATM   20  C16 UNL     1      19.898   1.211  50.043  1.00  0.00     0.272 C 
HETATM   21  C17 UNL     1      20.850   2.298  49.610  1.00  0.00     0.030 C 
HETATM   22  C18 UNL     1      20.121   3.607  49.796  1.00  0.00     0.003 C 
HETATM   23  C19 UNL     1      19.757   3.735  51.258  1.00  0.00     0.030 C 
HETATM   24  C20 UNL     1      18.947   2.588  51.764  1.00  0.00     0.272 C 
ENDBRANCH  18  19
ENDBRANCH  17  18
ENDBRANCH  14  17
ENDBRANCH   8  11
BRANCH   1  25
HETATM   25  N1  UNL     1      26.213   2.191  50.902  1.00  0.00    -0.344 N 
HETATM   26  H11 UNL     1      25.891   1.640  50.079  1.00  0.00     0.167 HD
BRANCH  25  27
HETATM   27  C2  UNL     1      25.813   3.449  50.373  1.00  0.00     0.003 C 
HETATM   28  C1  UNL     1      26.870   3.806  49.379  1.00  0.00     0.068 C 
HETATM   29  C3  UNL     1      24.750   4.191  50.658  1.00  0.00     0.003 C 
BRANCH  29  30
HETATM   30  C4  UNL     1      23.515   4.316  51.468  1.00  0.00     0.020 C 
HETATM   31  C5  UNL     1      23.744   3.928  52.923  1.00  0.00     0.015 C 
BRANCH  30  32
HETATM   32  C6  UNL     1      22.882   5.687  51.365  1.00  0.00     0.122 C 
HETATM   33 CL1  UNL     1      24.063   6.997  51.262  1.00  0.00    -0.130 Cl
ENDBRANCH  30  32
ENDBRANCH  29  30
ENDBRANCH  25  27
ENDBRANCH   1  25
TORSDOF 8
ENDMDL
MODEL 2
REMARK VINA RESULT:      -7.7      3.460      7.326
REMARK  8 active torsions:
REMARK  status: ('A' for Active; 'I' for Inactive)
REMARK    1  A    between atoms: C2_2  and  N1_8 
REMARK    2  A    between atoms: C3_3  and  C4_4 
REMARK    3  A    between atoms: C4_4  and  C6_6 
REMARK    4  A    between atoms: N1_8  and  C7_9 
REMARK    5  A    between atoms: C12_16  and  N4_17 
REMARK       I    between atoms: N4_17  and  C13_18 
REMARK       I    between atoms: C13_18  and  N5_20 
REMARK    6  A    between atoms: N5_20  and  C14_21 
REMARK    7  A    between atoms: C14_21  and  C15_22 
REMARK    8  A    between atoms: C15_22  and  N6_23 
ROOT
HETATM    1  C7  UNL     1      24.107   1.070  53.014  1.00  0.00     0.141 A 
HETATM    2  N2  UNL     1      23.814  -0.219  53.123  1.00  0.00    -0.224 NA
HETATM    3  C8  UNL     1      22.512  -0.566  52.964  1.00  0.00     0.236 A 
HETATM    4  N3  UNL     1      21.568   0.339  52.710  1.00  0.00    -0.241 NA
HETATM    5  C9  UNL     1      21.899   1.635  52.606  1.00  0.00     0.072 A 
HETATM    6  C10 UNL     1      20.928   2.589  52.343  1.00  0.00     0.035 A 
HETATM    7  C11 UNL     1      21.340   3.906  52.248  1.00  0.00     0.032 A 
HETATM    8  C12 UNL     1      22.605   4.372  52.388  1.00  0.00     0.037 A 
HETATM    9  C21 UNL     1      23.540   3.391  52.648  1.00  0.00     0.047 A 
HETATM   10  C22 UNL     1      23.216   2.059  52.758  1.00  0.00     0.041 A 
ENDROOT
BRANCH   8  11
HETATM   11  N4  UNL     1      23.045   5.686  52.298  1.00  0.00    -0.309 N 
HETATM   12  C13 UNL     1      23.511   6.422  51.187  1.00  0.00     0.320 C 
HETATM   13  O1  UNL     1      23.557   5.839  50.076  1.00  0.00    -0.247 OA
HETATM   14  N5  UNL     1      23.940   7.755  51.170  1.00  0.00    -0.341 N 
HETATM   15  H16 UNL     1      23.914   8.276  52.097  1.00  0.00     0.164 HD
HETATM   16  H15 UNL     1      23.065   6.311  53.154  1.00  0.00     0.170 HD
BRANCH  14  17
HETATM   17  C14 UNL     1      24.400   8.418  49.984  1.00  0.00     0.154 C 
BRANCH  17  18
HETATM   18  C15 UNL     1      25.872   8.666  49.943  1.00  0.00     0.292 C 
BRANCH  18  19
HETATM   19  N6  UNL     1      26.615   7.842  49.050  1.00  0.00     0.090 N 
HETATM   20  C16 UNL     1      27.935   8.375  48.782  1.00  0.00     0.272 C 
HETATM   21  C17 UNL     1      28.614   7.636  47.656  1.00  0.00     0.030 C 
HETATM   22  C18 UNL     1      28.771   6.205  48.114  1.00  0.00     0.003 C 
HETATM   23  C19 UNL     1      27.393   5.651  48.392  1.00  0.00     0.030 C 
HETATM   24  C20 UNL     1      26.625   6.456  49.387  1.00  0.00     0.272 C 
ENDBRANCH  18  19
ENDBRANCH  17  18
ENDBRANCH  14  17
ENDBRANCH   8  11
BRANCH   1  25
HETATM   25  N1  UNL     1      25.474   1.413  53.183  1.00  0.00    -0.344 N 
HETATM   26  H11 UNL     1      26.024   1.996  53.848  1.00  0.00     0.167 HD
BRANCH  25  27
HETATM   27  C2  UNL     1      26.598   1.014  52.409  1.00  0.00     0.003 C 
HETATM   28  C1  UNL     1      26.395   1.655  51.073  1.00  0.00     0.068 C 
HETATM   29  C3  UNL     1      27.629   0.247  52.740  1.00  0.00     0.003 C 
BRANCH  29  30
HETATM   30  C4  UNL     1      28.272  -0.561  53.803  1.00  0.00     0.020 C 
HETATM   31  C5  UNL     1      29.432  -1.390  53.269  1.00  0.00     0.015 C 
BRANCH  30  32
HETATM   32  C6  UNL     1      28.701   0.270  54.994  1.00  0.00     0.122 C 
HETATM   33 CL1  UNL     1      29.385   1.836  54.544  1.00  0.00    -0.130 Cl
ENDBRANCH  30  32
ENDBRANCH  29  30
ENDBRANCH  25  27
ENDBRANCH   1  25
TORSDOF 8
ENDMDL
MODEL 3
REMARK VINA RESULT:      -7.6      3.516      8.075
REMARK  8 active torsions:
REMARK  status: ('A' for Active; 'I' for Inactive)
REMARK    1  A    between atoms: C2_2  and  N1_8 
REMARK    2  A    between atoms: C3_3  and  C4_4 
REMARK    3  A    between atoms: C4_4  and  C6_6 
REMARK    4  A    between atoms: N1_8  and  C7_9 
REMARK    5  A    between atoms: C12_16  and  N4_17 
REMARK       I    between atoms: N4_17  and  C13_18 
REMARK       I    between atoms: C13_18  and  N5_20 
REMARK    6  A    between atoms: N5_20  and  C14_21 
REMARK    7  A    between atoms: C14_21  and  C15_22 
REMARK    8  A    between atoms: C15_22  and  N6_23 
ROOT
HETATM    1  C7  UNL     1      23.063  -0.046  53.187  1.00  0.00     0.141 A 
HETATM    2  N2  UNL     1      22.138  -0.918  53.566  1.00  0.00    -0.224 NA
HETATM    3  C8  UNL     1      20.850  -0.494  53.542  1.00  0.00     0.236 A 
HETATM    4  N3  UNL     1      20.522   0.738  53.156  1.00  0.00    -0.241 NA
HETATM    5  C9  UNL     1      21.483   1.596  52.778  1.00  0.00     0.072 A 
HETATM    6  C10 UNL     1      21.157   2.882  52.373  1.00  0.00     0.035 A 
HETATM    7  C11 UNL     1      22.197   3.711  51.998  1.00  0.00     0.032 A 
HETATM    8  C12 UNL     1      23.517   3.402  51.981  1.00  0.00     0.037 A 
HETATM    9  C21 UNL     1      23.797   2.114  52.389  1.00  0.00     0.047 A 
HETATM   10  C22 UNL     1      22.824   1.225  52.779  1.00  0.00     0.041 A 
ENDROOT
BRANCH   8  11
HETATM   11  N4  UNL     1      24.579   4.215  51.608  1.00  0.00    -0.309 N 
HETATM   12  C13 UNL     1      25.152   4.449  50.339  1.00  0.00     0.320 C 
HETATM   13  O1  UNL     1      24.658   3.849  49.354  1.00  0.00    -0.247 OA
HETATM   14  N5  UNL     1      26.229   5.291  50.035  1.00  0.00    -0.341 N 
HETATM   15  H16 UNL     1      26.670   5.814  50.850  1.00  0.00     0.164 HD
HETATM   16  H15 UNL     1      25.102   4.790  52.330  1.00  0.00     0.170 HD
BRANCH  14  17
HETATM   17  C14 UNL     1      26.743   5.463  48.707  1.00  0.00     0.154 C 
BRANCH  17  18
HETATM   18  C15 UNL     1      27.335   6.807  48.440  1.00  0.00     0.292 C 
BRANCH  18  19
HETATM   19  N6  UNL     1      28.707   6.815  48.057  1.00  0.00     0.090 N 
HETATM   20  C16 UNL     1      29.433   7.925  48.640  1.00  0.00     0.272 C 
HETATM   21  C17 UNL     1      30.809   8.066  48.039  1.00  0.00     0.030 C 
HETATM   22  C18 UNL     1      31.555   6.795  48.368  1.00  0.00     0.003 C 
HETATM   23  C19 UNL     1      30.796   5.638  47.758  1.00  0.00     0.030 C 
HETATM   24  C20 UNL     1      29.376   5.564  48.208  1.00  0.00     0.272 C 
ENDBRANCH  18  19
ENDBRANCH  17  18
ENDBRANCH  14  17
ENDBRANCH   8  11
BRANCH   1  25
HETATM   25  N1  UNL     1      24.405  -0.509  53.219  1.00  0.00    -0.344 N 
HETATM   26  H11 UNL     1      25.059  -0.962  52.547  1.00  0.00     0.167 HD
BRANCH  25  27
HETATM   27  C2  UNL     1      25.334  -0.480  54.296  1.00  0.00     0.003 C 
HETATM   28  C1  UNL     1      24.602  -1.075  55.455  1.00  0.00     0.068 C 
HETATM   29  C3  UNL     1      26.584  -0.037  54.327  1.00  0.00     0.003 C 
BRANCH  29  30
HETATM   30  C4  UNL     1      27.692   0.582  53.561  1.00  0.00     0.020 C 
HETATM   31  C5  UNL     1      27.440   2.057  53.280  1.00  0.00     0.015 C 
BRANCH  30  32
HETATM   32  C6  UNL     1      29.043   0.376  54.213  1.00  0.00     0.122 C 
HETATM   33 CL1  UNL     1      29.892  -1.057  53.625  1.00  0.00    -0.130 Cl
ENDBRANCH  30  32
ENDBRANCH  29  30
ENDBRANCH  25  27
ENDBRANCH   1  25
TORSDOF 8
ENDMDL
MODEL 4
REMARK VINA RESULT:      -7.5      3.961      7.944
REMARK  8 active torsions:
REMARK  status: ('A' for Active; 'I' for Inactive)
REMARK    1  A    between atoms: C2_2  and  N1_8 
REMARK    2  A    between atoms: C3_3  and  C4_4 
REMARK    3  A    between atoms: C4_4  and  C6_6 
REMARK    4  A    between atoms: N1_8  and  C7_9 
REMARK    5  A    between atoms: C12_16  and  N4_17 
REMARK       I    between atoms: N4_17  and  C13_18 
REMARK       I    between atoms: C13_18  and  N5_20 
REMARK    6  A    between atoms: N5_20  and  C14_21 
REMARK    7  A    between atoms: C14_21  and  C15_22 
REMARK    8  A    between atoms: C15_22  and  N6_23 
ROOT
HETATM    1  C7  UNL     1      23.923   1.725  52.609  1.00  0.00     0.141 A 
HETATM    2  N2  UNL     1      23.477   0.480  52.701  1.00  0.00    -0.224 NA
HETATM    3  C8  UNL     1      22.148   0.289  52.508  1.00  0.00     0.236 A 
HETATM    4  N3  UNL     1      21.324   1.301  52.239  1.00  0.00    -0.241 NA
HETATM    5  C9  UNL     1      21.808   2.549  52.153  1.00  0.00     0.072 A 
HETATM    6  C10 UNL     1      20.963   3.613  51.873  1.00  0.00     0.035 A 
HETATM    7  C11 UNL     1      21.529   4.872  51.799  1.00  0.00     0.032 A 
HETATM    8  C12 UNL     1      22.837   5.185  51.972  1.00  0.00     0.037 A 
HETATM    9  C21 UNL     1      23.643   4.099  52.247  1.00  0.00     0.047 A 
HETATM   10  C22 UNL     1      23.161   2.814  52.339  1.00  0.00     0.041 A 
ENDROOT
BRANCH   8  11
HETATM   11  N4  UNL     1      23.431   6.438  51.903  1.00  0.00    -0.309 N 
HETATM   12  C13 UNL     1      24.175   7.042  50.866  1.00  0.00     0.320 C 
HETATM   13  O1  UNL     1      24.360   6.382  49.816  1.00  0.00    -0.247 OA
HETATM   14  N5  UNL     1      24.747   8.321  50.865  1.00  0.00    -0.341 N 
HETATM   15  H16 UNL     1      24.607   8.906  51.743  1.00  0.00     0.164 HD
HETATM   16  H15 UNL     1      23.361   7.117  52.714  1.00  0.00     0.170 HD
BRANCH  14  17
HETATM   17  C14 UNL     1      25.491   8.849  49.759  1.00  0.00     0.154 C 
BRANCH  17  18
HETATM   18  C15 UNL     1      26.906   9.205  50.075  1.00  0.00     0.292 C 
BRANCH  18  19
HETATM   19  N6  UNL     1      27.902   8.462  49.380  1.00  0.00     0.090 N 
HETATM   20  C16 UNL     1      27.330   7.437  48.531  1.00  0.00     0.272 C 
HETATM   21  C17 UNL     1      28.387   6.503  47.996  1.00  0.00     0.030 C 
HETATM   22  C18 UNL     1      29.316   7.344  47.153  1.00  0.00     0.003 C 
HETATM   23  C19 UNL     1      29.913   8.412  48.041  1.00  0.00     0.030 C 
HETATM   24  C20 UNL     1      28.886   9.256  48.719  1.00  0.00     0.272 C 
ENDBRANCH  18  19
ENDBRANCH  17  18
ENDBRANCH  14  17
ENDBRANCH   8  11
BRANCH   1  25
HETATM   25  N1  UNL     1      25.317   1.904  52.813  1.00  0.00    -0.344 N 
HETATM   26  H11 UNL     1      25.915   2.410  53.499  1.00  0.00     0.167 HD
BRANCH  25  27
HETATM   27  C2  UNL     1      26.404   1.386  52.058  1.00  0.00     0.003 C 
HETATM   28  C1  UNL     1      26.641   2.393  50.978  1.00  0.00     0.068 C 
HETATM   29  C3  UNL     1      27.096   0.266  52.223  1.00  0.00     0.003 C 
BRANCH  29  30
HETATM   30  C4  UNL     1      27.277  -0.963  53.032  1.00  0.00     0.020 C 
HETATM   31  C5  UNL     1      26.786  -2.205  52.303  1.00  0.00     0.015 C 
BRANCH  30  32
HETATM   32  C6  UNL     1      28.702  -1.143  53.514  1.00  0.00     0.122 C 
HETATM   33 CL1  UNL     1      29.624   0.364  53.550  1.00  0.00    -0.130 Cl
ENDBRANCH  30  32
ENDBRANCH  29  30
ENDBRANCH  25  27
ENDBRANCH   1  25
TORSDOF 8
ENDMDL
MODEL 5
REMARK VINA RESULT:      -7.4      2.747      5.076
REMARK  8 active torsions:
REMARK  status: ('A' for Active; 'I' for Inactive)
REMARK    1  A    between atoms: C2_2  and  N1_8 
REMARK    2  A    between atoms: C3_3  and  C4_4 
REMARK    3  A    between atoms: C4_4  and  C6_6 
REMARK    4  A    between atoms: N1_8  and  C7_9 
REMARK    5  A    between atoms: C12_16  and  N4_17 
REMARK       I    between atoms: N4_17  and  C13_18 
REMARK       I    between atoms: C13_18  and  N5_20 
REMARK    6  A    between atoms: N5_20  and  C14_21 
REMARK    7  A    between atoms: C14_21  and  C15_22 
REMARK    8  A    between atoms: C15_22  and  N6_23 
ROOT
HETATM    1  C7  UNL     1      23.892  -0.111  53.682  1.00  0.00     0.141 A 
HETATM    2  N2  UNL     1      24.597  -0.736  54.615  1.00  0.00    -0.224 NA
HETATM    3  C8  UNL     1      23.908  -1.523  55.479  1.00  0.00     0.236 A 
HETATM    4  N3  UNL     1      22.586  -1.665  55.400  1.00  0.00    -0.241 NA
HETATM    5  C9  UNL     1      21.902  -1.018  54.443  1.00  0.00     0.072 A 
HETATM    6  C10 UNL     1      20.526  -1.156  54.348  1.00  0.00     0.035 A 
HETATM    7  C11 UNL     1      19.886  -0.460  53.339  1.00  0.00     0.032 A 
HETATM    8  C12 UNL     1      20.464   0.353  52.421  1.00  0.00     0.037 A 
HETATM    9  C21 UNL     1      21.834   0.461  52.551  1.00  0.00     0.047 A 
HETATM   10  C22 UNL     1      22.548  -0.195  53.525  1.00  0.00     0.041 A 
ENDROOT
BRANCH   8  11
HETATM   11  N4  UNL     1      19.846   1.061  51.399  1.00  0.00    -0.309 N 
HETATM   12  C13 UNL     1      19.392   2.397  51.357  1.00  0.00     0.320 C 
HETATM   13  O1  UNL     1      19.547   3.102  52.383  1.00  0.00    -0.247 OA
HETATM   14  N5  UNL     1      18.775   3.051  50.282  1.00  0.00    -0.341 N 
HETATM   15  H16 UNL     1      18.630   2.479  49.397  1.00  0.00     0.164 HD
HETATM   16  H15 UNL     1      19.647   0.602  50.464  1.00  0.00     0.170 HD
BRANCH  14  17
HETATM   17  C14 UNL     1      18.345   4.418  50.335  1.00  0.00     0.154 C 
BRANCH  17  18
HETATM   18  C15 UNL     1      19.191   5.366  49.551  1.00  0.00     0.292 C 
BRANCH  18  19
HETATM   19  N6  UNL     1      20.573   5.036  49.463  1.00  0.00     0.090 N 
HETATM   20  C16 UNL     1      21.096   5.215  48.124  1.00  0.00     0.272 C 
HETATM   21  C17 UNL     1      22.482   4.635  47.986  1.00  0.00     0.030 C 
HETATM   22  C18 UNL     1      23.366   5.402  48.941  1.00  0.00     0.003 C 
HETATM   23  C19 UNL     1      22.819   5.212  50.337  1.00  0.00     0.030 C 
HETATM   24  C20 UNL     1      21.392   5.627  50.471  1.00  0.00     0.272 C 
ENDBRANCH  18  19
ENDBRANCH  17  18
ENDBRANCH  14  17
ENDBRANCH   8  11
BRANCH   1  25
HETATM   25  N1  UNL     1      24.631   0.708  52.788  1.00  0.00    -0.344 N 
HETATM   26  H11 UNL     1      24.851   0.699  51.770  1.00  0.00     0.167 HD
BRANCH  25  27
HETATM   27  C2  UNL     1      25.356   1.900  53.061  1.00  0.00     0.003 C 
HETATM   28  C1  UNL     1      24.324   2.980  53.113  1.00  0.00     0.068 C 
HETATM   29  C3  UNL     1      26.659   2.079  53.239  1.00  0.00     0.003 C 
BRANCH  29  30
HETATM   30  C4  UNL     1      27.996   1.440  53.292  1.00  0.00     0.020 C 
HETATM   31  C5  UNL     1      29.061   2.385  53.830  1.00  0.00     0.015 C 
BRANCH  30  32
HETATM   32  C6  UNL     1      27.991   0.133  54.057  1.00  0.00     0.122 C 
HETATM   33 CL1  UNL     1      29.393  -0.885  53.710  1.00  0.00    -0.130 Cl
ENDBRANCH  30  32
ENDBRANCH  29  30
ENDBRANCH  25  27
ENDBRANCH   1  25
TORSDOF 8
ENDMDL
MODEL 6
REMARK VINA RESULT:      -7.1      5.112      9.977
REMARK  8 active torsions:
REMARK  status: ('A' for Active; 'I' for Inactive)
REMARK    1  A    between atoms: C2_2  and  N1_8 
REMARK    2  A    between atoms: C3_3  and  C4_4 
REMARK    3  A    between atoms: C4_4  and  C6_6 
REMARK    4  A    between atoms: N1_8  and  C7_9 
REMARK    5  A    between atoms: C12_16  and  N4_17 
REMARK       I    between atoms: N4_17  and  C13_18 
REMARK       I    between atoms: C13_18  and  N5_20 
REMARK    6  A    between atoms: N5_20  and  C14_21 
REMARK    7  A    between atoms: C14_21  and  C15_22 
REMARK    8  A    between atoms: C15_22  and  N6_23 
ROOT
HETATM    1  C7  UNL     1      24.076   4.463  50.237  1.00  0.00     0.141 A 
HETATM    2  N2  UNL     1      22.849   3.993  50.052  1.00  0.00    -0.224 NA
HETATM    3  C8  UNL     1      22.128   4.548  49.046  1.00  0.00     0.236 A 
HETATM    4  N3  UNL     1      22.621   5.518  48.277  1.00  0.00    -0.241 NA
HETATM    5  C9  UNL     1      23.866   5.970  48.493  1.00  0.00     0.072 A 
HETATM    6  C10 UNL     1      24.393   6.980  47.701  1.00  0.00     0.035 A 
HETATM    7  C11 UNL     1      25.681   7.396  47.979  1.00  0.00     0.032 A 
HETATM    8  C12 UNL     1      26.496   6.921  48.953  1.00  0.00     0.037 A 
HETATM    9  C21 UNL     1      25.934   5.918  49.716  1.00  0.00     0.047 A 
HETATM   10  C22 UNL     1      24.660   5.445  49.508  1.00  0.00     0.041 A 
ENDROOT
BRANCH   8  11
HETATM   11  N4  UNL     1      27.792   7.321  49.252  1.00  0.00    -0.309 N 
HETATM   12  C13 UNL     1      28.987   7.181  48.514  1.00  0.00     0.320 C 
HETATM   13  O1  UNL     1      28.924   6.607  47.401  1.00  0.00    -0.247 OA
HETATM   14  N5  UNL     1      30.268   7.614  48.881  1.00  0.00    -0.341 N 
HETATM   15  H16 UNL     1      30.354   8.104  49.821  1.00  0.00     0.164 HD
HETATM   16  H15 UNL     1      28.008   7.823  50.161  1.00  0.00     0.170 HD
BRANCH  14  17
HETATM   17  C14 UNL     1      31.428   7.423  48.059  1.00  0.00     0.154 C 
BRANCH  17  18
HETATM   18  C15 UNL     1      32.404   6.423  48.586  1.00  0.00     0.292 C 
BRANCH  18  19
HETATM   19  N6  UNL     1      32.745   5.363  47.698  1.00  0.00     0.090 N 
HETATM   20  C16 UNL     1      34.007   4.742  48.044  1.00  0.00     0.272 C 
HETATM   21  C17 UNL     1      34.476   3.796  46.966  1.00  0.00     0.030 C 
HETATM   22  C18 UNL     1      33.432   2.710  46.864  1.00  0.00     0.003 C 
HETATM   23  C19 UNL     1      32.117   3.360  46.501  1.00  0.00     0.030 C 
HETATM   24  C20 UNL     1      31.700   4.421  47.464  1.00  0.00     0.272 C 
ENDBRANCH  18  19
ENDBRANCH  17  18
ENDBRANCH  14  17
ENDBRANCH   8  11
BRANCH   1  25
HETATM   25  N1  UNL     1      24.815   3.870  51.295  1.00  0.00    -0.344 N 
HETATM   26  H11 UNL     1      25.230   4.194  52.194  1.00  0.00     0.167 HD
BRANCH  25  27
HETATM   27  C2  UNL     1      25.244   2.522  51.439  1.00  0.00     0.003 C 
HETATM   28  C1  UNL     1      26.595   2.475  50.801  1.00  0.00     0.068 C 
HETATM   29  C3  UNL     1      24.628   1.491  52.003  1.00  0.00     0.003 C 
BRANCH  29  30
HETATM   30  C4  UNL     1      23.415   1.015  52.710  1.00  0.00     0.020 C 
HETATM   31  C5  UNL     1      22.235   0.838  51.765  1.00  0.00     0.015 C 
BRANCH  30  32
HETATM   32  C6  UNL     1      23.661  -0.243  53.515  1.00  0.00     0.122 C 
HETATM   33 CL1  UNL     1      22.173  -1.040  54.038  1.00  0.00    -0.130 Cl
ENDBRANCH  30  32
ENDBRANCH  29  30
ENDBRANCH  25  27
ENDBRANCH   1  25
TORSDOF 8
ENDMDL
MODEL 7
REMARK VINA RESULT:      -7.1      4.622      8.265
REMARK  8 active torsions:
REMARK  status: ('A' for Active; 'I' for Inactive)
REMARK    1  A    between atoms: C2_2  and  N1_8 
REMARK    2  A    between atoms: C3_3  and  C4_4 
REMARK    3  A    between atoms: C4_4  and  C6_6 
REMARK    4  A    between atoms: N1_8  and  C7_9 
REMARK    5  A    between atoms: C12_16  and  N4_17 
REMARK       I    between atoms: N4_17  and  C13_18 
REMARK       I    between atoms: C13_18  and  N5_20 
REMARK    6  A    between atoms: N5_20  and  C14_21 
REMARK    7  A    between atoms: C14_21  and  C15_22 
REMARK    8  A    between atoms: C15_22  and  N6_23 
ROOT
HETATM    1  C7  UNL     1      29.317   6.165  47.809  1.00  0.00     0.141 A 
HETATM    2  N2  UNL     1      29.668   7.336  47.295  1.00  0.00    -0.224 NA
HETATM    3  C8  UNL     1      28.699   8.282  47.209  1.00  0.00     0.236 A 
HETATM    4  N3  UNL     1      27.453   8.052  47.619  1.00  0.00    -0.241 NA
HETATM    5  C9  UNL     1      27.131   6.856  48.135  1.00  0.00     0.072 A 
HETATM    6  C10 UNL     1      25.838   6.601  48.566  1.00  0.00     0.035 A 
HETATM    7  C11 UNL     1      25.577   5.347  49.087  1.00  0.00     0.032 A 
HETATM    8  C12 UNL     1      26.458   4.326  49.223  1.00  0.00     0.037 A 
HETATM    9  C21 UNL     1      27.732   4.621  48.783  1.00  0.00     0.047 A 
HETATM   10  C22 UNL     1      28.076   5.841  48.252  1.00  0.00     0.041 A 
ENDROOT
BRANCH   8  11
HETATM   11  N4  UNL     1      26.222   3.060  49.741  1.00  0.00    -0.309 N 
HETATM   12  C13 UNL     1      25.743   2.664  51.009  1.00  0.00     0.320 C 
HETATM   13  O1  UNL     1      25.471   3.564  51.839  1.00  0.00    -0.247 OA
HETATM   14  N5  UNL     1      25.527   1.358  51.466  1.00  0.00    -0.341 N 
HETATM   15  H16 UNL     1      25.748   0.571  50.783  1.00  0.00     0.164 HD
HETATM   16  H15 UNL     1      26.403   2.193  49.159  1.00  0.00     0.170 HD
BRANCH  14  17
HETATM   17  C14 UNL     1      25.035   1.054  52.779  1.00  0.00     0.154 C 
BRANCH  17  18
HETATM   18  C15 UNL     1      25.361  -0.320  53.262  1.00  0.00     0.292 C 
BRANCH  18  19
HETATM   19  N6  UNL     1      26.687  -0.509  53.745  1.00  0.00     0.090 N 
HETATM   20  C16 UNL     1      27.551  -1.116  52.754  1.00  0.00     0.272 C 
HETATM   21  C17 UNL     1      28.872  -1.536  53.349  1.00  0.00     0.030 C 
HETATM   22  C18 UNL     1      29.540  -0.275  53.844  1.00  0.00     0.003 C 
HETATM   23  C19 UNL     1      28.637   0.356  54.879  1.00  0.00     0.030 C 
HETATM   24  C20 UNL     1      27.264   0.637  54.369  1.00  0.00     0.272 C 
ENDBRANCH  18  19
ENDBRANCH  17  18
ENDBRANCH  14  17
ENDBRANCH   8  11
BRANCH   1  25
HETATM   25  N1  UNL     1      30.344   5.188  47.891  1.00  0.00    -0.344 N 
HETATM   26  H11 UNL     1      30.434   4.173  47.673  1.00  0.00     0.167 HD
BRANCH  25  27
HETATM   27  C2  UNL     1      31.684   5.337  48.342  1.00  0.00     0.003 C 
HETATM   28  C1  UNL     1      31.584   6.148  49.593  1.00  0.00     0.068 C 
HETATM   29  C3  UNL     1      32.814   4.882  47.814  1.00  0.00     0.003 C 
BRANCH  29  30
HETATM   30  C4  UNL     1      33.436   4.111  46.711  1.00  0.00     0.020 C 
HETATM   31  C5  UNL     1      33.274   2.610  46.900  1.00  0.00     0.015 C 
BRANCH  30  32
HETATM   32  C6  UNL     1      32.947   4.543  45.345  1.00  0.00     0.122 C 
HETATM   33 CL1  UNL     1      33.172   6.268  45.034  1.00  0.00    -0.130 Cl
ENDBRANCH  30  32
ENDBRANCH  29  30
ENDBRANCH  25  27
ENDBRANCH   1  25
TORSDOF 8
ENDMDL
MODEL 8
REMARK VINA RESULT:      -7.1      4.477      9.183
REMARK  8 active torsions:
REMARK  status: ('A' for Active; 'I' for Inactive)
REMARK    1  A    between atoms: C2_2  and  N1_8 
REMARK    2  A    between atoms: C3_3  and  C4_4 
REMARK    3  A    between atoms: C4_4  and  C6_6 
REMARK    4  A    between atoms: N1_8  and  C7_9 
REMARK    5  A    between atoms: C12_16  and  N4_17 
REMARK       I    between atoms: N4_17  and  C13_18 
REMARK       I    between atoms: C13_18  and  N5_20 
REMARK    6  A    between atoms: N5_20  and  C14_21 
REMARK    7  A    between atoms: C14_21  and  C15_22 
REMARK    8  A    between atoms: C15_22  and  N6_23 
ROOT
HETATM    1  C7  UNL     1      22.824   3.725  50.586  1.00  0.00     0.141 A 
HETATM    2  N2  UNL     1      21.607   3.200  50.547  1.00  0.00    -0.224 NA
HETATM    3  C8  UNL     1      20.565   4.067  50.606  1.00  0.00     0.236 A 
HETATM    4  N3  UNL     1      20.748   5.383  50.699  1.00  0.00    -0.241 NA
HETATM    5  C9  UNL     1      21.994   5.881  50.736  1.00  0.00     0.072 A 
HETATM    6  C10 UNL     1      22.201   7.249  50.833  1.00  0.00     0.035 A 
HETATM    7  C11 UNL     1      23.510   7.692  50.867  1.00  0.00     0.032 A 
HETATM    8  C12 UNL     1      24.627   6.927  50.815  1.00  0.00     0.037 A 
HETATM    9  C21 UNL     1      24.377   5.573  50.718  1.00  0.00     0.047 A 
HETATM   10  C22 UNL     1      23.107   5.048  50.680  1.00  0.00     0.041 A 
ENDROOT
BRANCH   8  11
HETATM   11  N4  UNL     1      25.951   7.346  50.847  1.00  0.00    -0.309 N 
HETATM   12  C13 UNL     1      26.627   8.305  50.061  1.00  0.00     0.320 C 
HETATM   13  O1  UNL     1      25.971   8.903  49.175  1.00  0.00    -0.247 OA
HETATM   14  N5  UNL     1      27.973   8.680  50.150  1.00  0.00    -0.341 N 
HETATM   15  H16 UNL     1      28.556   8.189  50.893  1.00  0.00     0.164 HD
HETATM   16  H15 UNL     1      26.634   6.933  51.544  1.00  0.00     0.170 HD
BRANCH  14  17
HETATM   17  C14 UNL     1      28.572   9.669  49.302  1.00  0.00     0.154 C 
BRANCH  17  18
HETATM   18  C15 UNL     1      29.659   9.153  48.418  1.00  0.00     0.292 C 
BRANCH  18  19
HETATM   19  N6  UNL     1      30.106   7.829  48.693  1.00  0.00     0.090 N 
HETATM   20  C16 UNL     1      29.927   6.944  47.560  1.00  0.00     0.272 C 
HETATM   21  C17 UNL     1      30.170   5.503  47.937  1.00  0.00     0.030 C 
HETATM   22  C18 UNL     1      31.610   5.412  48.380  1.00  0.00     0.003 C 
HETATM   23  C19 UNL     1      31.794   6.335  49.562  1.00  0.00     0.030 C 
HETATM   24  C20 UNL     1      31.407   7.746  49.273  1.00  0.00     0.272 C 
ENDBRANCH  18  19
ENDBRANCH  17  18
ENDBRANCH  14  17
ENDBRANCH   8  11
BRANCH   1  25
HETATM   25  N1  UNL     1      23.902   2.803  50.523  1.00  0.00    -0.344 N 
HETATM   26  H11 UNL     1      24.519   2.419  49.776  1.00  0.00     0.167 HD
BRANCH  25  27
HETATM   27  C2  UNL     1      24.507   2.063  51.576  1.00  0.00     0.003 C 
HETATM   28  C1  UNL     1      25.964   2.387  51.490  1.00  0.00     0.068 C 
HETATM   29  C3  UNL     1      23.956   1.249  52.468  1.00  0.00     0.003 C 
BRANCH  29  30
HETATM   30  C4  UNL     1      22.703   0.631  52.964  1.00  0.00     0.020 C 
HETATM   31  C5  UNL     1      21.808   0.161  51.827  1.00  0.00     0.015 C 
BRANCH  30  32
HETATM   32  C6  UNL     1      22.953  -0.485  53.956  1.00  0.00     0.122 C 
HETATM   33 CL1  UNL     1      21.471  -1.267  54.517  1.00  0.00    -0.130 Cl
ENDBRANCH  30  32
ENDBRANCH  29  30
ENDBRANCH  25  27
ENDBRANCH   1  25
TORSDOF 8
ENDMDL
MODEL 9
REMARK VINA RESULT:      -7.0      2.143      4.304
REMARK  8 active torsions:
REMARK  status: ('A' for Active; 'I' for Inactive)
REMARK    1  A    between atoms: C2_2  and  N1_8 
REMARK    2  A    between atoms: C3_3  and  C4_4 
REMARK    3  A    between atoms: C4_4  and  C6_6 
REMARK    4  A    between atoms: N1_8  and  C7_9 
REMARK    5  A    between atoms: C12_16  and  N4_17 
REMARK       I    between atoms: N4_17  and  C13_18 
REMARK       I    between atoms: C13_18  and  N5_20 
REMARK    6  A    between atoms: N5_20  and  C14_21 
REMARK    7  A    between atoms: C14_21  and  C15_22 
REMARK    8  A    between atoms: C15_22  and  N6_23 
ROOT
HETATM    1  C7  UNL     1      24.488  -0.367  53.854  1.00  0.00     0.141 A 
HETATM    2  N2  UNL     1      25.134  -0.907  54.878  1.00  0.00    -0.224 NA
HETATM    3  C8  UNL     1      24.380  -1.537  55.813  1.00  0.00     0.236 A 
HETATM    4  N3  UNL     1      23.054  -1.614  55.714  1.00  0.00    -0.241 NA
HETATM    5  C9  UNL     1      22.431  -1.055  54.664  1.00  0.00     0.072 A 
HETATM    6  C10 UNL     1      21.051  -1.125  54.546  1.00  0.00     0.035 A 
HETATM    7  C11 UNL     1      20.477  -0.528  53.439  1.00  0.00     0.032 A 
HETATM    8  C12 UNL     1      21.123   0.127  52.444  1.00  0.00     0.037 A 
HETATM    9  C21 UNL     1      22.494   0.173  52.599  1.00  0.00     0.047 A 
HETATM   10  C22 UNL     1      23.145  -0.393  53.669  1.00  0.00     0.041 A 
ENDROOT
BRANCH   8  11
HETATM   11  N4  UNL     1      20.572   0.734  51.323  1.00  0.00    -0.309 N 
HETATM   12  C13 UNL     1      20.072   2.042  51.143  1.00  0.00     0.320 C 
HETATM   13  O1  UNL     1      20.107   2.823  52.125  1.00  0.00    -0.247 OA
HETATM   14  N5  UNL     1      19.528   2.590  49.975  1.00  0.00    -0.341 N 
HETATM   15  H16 UNL     1      19.485   1.952  49.124  1.00  0.00     0.164 HD
HETATM   16  H15 UNL     1      20.474   0.202  50.411  1.00  0.00     0.170 HD
BRANCH  14  17
HETATM   17  C14 UNL     1      19.043   3.937  49.890  1.00  0.00     0.154 C 
BRANCH  17  18
HETATM   18  C15 UNL     1      19.433   4.661  48.643  1.00  0.00     0.292 C 
BRANCH  18  19
HETATM   19  N6  UNL     1      20.495   5.599  48.778  1.00  0.00     0.090 N 
HETATM   20  C16 UNL     1      20.715   5.985  50.157  1.00  0.00     0.272 C 
HETATM   21  C17 UNL     1      21.665   7.152  50.263  1.00  0.00     0.030 C 
HETATM   22  C18 UNL     1      22.984   6.686  49.692  1.00  0.00     0.003 C 
HETATM   23  C19 UNL     1      22.752   6.285  48.253  1.00  0.00     0.030 C 
HETATM   24  C20 UNL     1      21.696   5.243  48.095  1.00  0.00     0.272 C 
ENDBRANCH  18  19
ENDBRANCH  17  18
ENDBRANCH  14  17
ENDBRANCH   8  11
BRANCH   1  25
HETATM   25  N1  UNL     1      25.295   0.289  52.886  1.00  0.00    -0.344 N 
HETATM   26  H11 UNL     1      25.782   0.016  52.006  1.00  0.00     0.167 HD
BRANCH  25  27
HETATM   27  C2  UNL     1      25.708   1.648  52.840  1.00  0.00     0.003 C 
HETATM   28  C1  UNL     1      27.161   1.624  53.190  1.00  0.00     0.068 C 
HETATM   29  C3  UNL     1      25.008   2.740  52.557  1.00  0.00     0.003 C 
BRANCH  29  30
HETATM   30  C4  UNL     1      23.685   3.293  52.182  1.00  0.00     0.020 C 
HETATM   31  C5  UNL     1      23.469   4.691  52.745  1.00  0.00     0.015 C 
BRANCH  30  32
HETATM   32  C6  UNL     1      23.439   3.264  50.688  1.00  0.00     0.122 C 
HETATM   33 CL1  UNL     1      24.927   3.285  49.734  1.00  0.00    -0.130 Cl
ENDBRANCH  30  32
ENDBRANCH  29  30
ENDBRANCH  25  27
ENDBRANCH   1  25
TORSDOF 8
ENDMDL
