MODEL 1
REMARK VINA RESULT:      -8.8      0.000      0.000
REMARK  6 active torsions:
REMARK  status: ('A' for Active; 'I' for Inactive)
REMARK    1  A    between atoms: C5_6  and  N1_7 
REMARK    2  A    between atoms: N1_7  and  C6_8 
REMARK       I    between atoms: N2_11  and  C9_12 
REMARK    3  A    between atoms: C9_12  and  C10_14 
REMARK    4  A    between atoms: C11_15  and  C12_16 
REMARK    5  A    between atoms: C12_16  and  C13_17 
REMARK    6  A    between atoms: C16_22  and  O3_23 
ROOT
HETATM    1  C6  UNL     1      22.909   5.809  50.002  1.00  0.00     0.031 C 
HETATM    2  C7  UNL     1      22.436   5.512  51.171  1.00  0.00     0.022 C 
HETATM    3  C8  UNL     1      21.955   4.564  52.187  1.00  0.00     0.155 C 
HETATM    4  N2  UNL     1      22.323   3.211  51.817  1.00  0.00    -0.342 N 
HETATM    5  C9  UNL     1      23.662   3.030  52.406  1.00  0.00     0.243 C 
HETATM    6  O1  UNL     1      23.967   4.113  53.021  1.00  0.00    -0.268 OA
HETATM    7  C17 UNL     1      21.947   1.993  51.195  1.00  0.00     0.156 C 
HETATM    8  C18 UNL     1      22.377   1.642  49.865  1.00  0.00     0.027 C 
HETATM    9  C19 UNL     1      21.375   1.336  49.024  1.00  0.00     0.082 C 
HETATM   10  N4  UNL     1      20.627   2.435  48.973  1.00  0.00    -0.259 NA
HETATM   11  C20 UNL     1      21.462   3.623  49.216  1.00  0.00     0.119 C 
HETATM   12  C21 UNL     1      22.282   4.700  49.231  1.00  0.00     0.048 C 
ENDROOT
BRANCH   5  13
HETATM   13  C10 UNL     1      24.575   1.879  52.368  1.00  0.00     0.070 C 
HETATM   14  C11 UNL     1      24.989   0.716  52.912  1.00  0.00    -0.019 C 
BRANCH  14  15
HETATM   15  C12 UNL     1      26.075  -0.175  52.447  1.00  0.00     0.068 C 
BRANCH  15  16
HETATM   16  C13 UNL     1      26.930  -0.684  53.566  1.00  0.00     0.278 C 
HETATM   17  N3  UNL     1      27.825  -1.663  53.020  1.00  0.00     0.095 N 
HETATM   18  C14 UNL     1      29.188  -1.534  53.432  1.00  0.00     0.296 C 
HETATM   19  H13 UNL     1      27.489  -2.628  53.088  1.00  0.00     0.316 HD
HETATM   20  C15 UNL     1      29.687  -0.130  53.338  1.00  0.00     0.201 C 
HETATM   21  O2  UNL     1      28.694   0.840  53.395  1.00  0.00    -0.358 OA
HETATM   22  C16 UNL     1      27.706   0.383  54.261  1.00  0.00     0.290 C 
BRANCH  22  23
HETATM   23  O3  UNL     1      28.339  -0.174  55.369  1.00  0.00    -0.369 OA
HETATM   24  H19 UNL     1      28.098  -1.116  55.529  1.00  0.00     0.212 HD
ENDBRANCH  22  23
ENDBRANCH  15  16
ENDBRANCH  14  15
ENDBRANCH   5  13
BRANCH   1  25
HETATM   25  N1  UNL     1      23.419   6.400  48.833  1.00  0.00    -0.354 N 
HETATM   26  H4  UNL     1      22.704   6.816  48.164  1.00  0.00     0.166 HD
BRANCH  25  27
HETATM   27  C5  UNL     1      24.844   6.413  48.598  1.00  0.00     0.074 A 
HETATM   28  C4  UNL     1      25.475   7.567  47.966  1.00  0.00     0.057 A 
HETATM   29  C3  UNL     1      26.772   7.344  47.860  1.00  0.00     0.048 A 
HETATM   30  C2  UNL     1      27.068   6.026  48.417  1.00  0.00     0.017 A 
HETATM   31 CL1  UNL     1      28.055   8.348  47.193  1.00  0.00    -0.083 Cl
HETATM   32  C1  UNL     1      28.207   5.346  48.546  1.00  0.00     0.028 C 
HETATM   33  C22 UNL     1      25.792   5.501  48.864  1.00  0.00     0.154 A 
HETATM   34  F1  UNL     1      25.433   4.338  49.456  1.00  0.00    -0.203 F 
ENDBRANCH  25  27
ENDBRANCH   1  25
TORSDOF 6
ENDMDL
MODEL 2
REMARK VINA RESULT:      -8.5      4.179      8.026
REMARK  6 active torsions:
REMARK  status: ('A' for Active; 'I' for Inactive)
REMARK    1  A    between atoms: C5_6  and  N1_7 
REMARK    2  A    between atoms: N1_7  and  C6_8 
REMARK       I    between atoms: N2_11  and  C9_12 
REMARK    3  A    between atoms: C9_12  and  C10_14 
REMARK    4  A    between atoms: C11_15  and  C12_16 
REMARK    5  A    between atoms: C12_16  and  C13_17 
REMARK    6  A    between atoms: C16_22  and  O3_23 
ROOT
HETATM    1  C6  UNL     1      25.798   2.807  51.440  1.00  0.00     0.031 C 
HETATM    2  C7  UNL     1      25.572   2.907  50.169  1.00  0.00     0.022 C 
HETATM    3  C8  UNL     1      24.991   3.567  48.990  1.00  0.00     0.155 C 
HETATM    4  N2  UNL     1      24.566   4.910  49.332  1.00  0.00    -0.342 N 
HETATM    5  C9  UNL     1      25.764   5.735  49.097  1.00  0.00     0.243 C 
HETATM    6  O1  UNL     1      26.693   4.962  48.672  1.00  0.00    -0.268 OA
HETATM    7  C17 UNL     1      23.511   5.768  49.735  1.00  0.00     0.156 C 
HETATM    8  C18 UNL     1      23.354   6.209  51.098  1.00  0.00     0.027 C 
HETATM    9  C19 UNL     1      22.143   5.956  51.624  1.00  0.00     0.082 C 
HETATM   10  N4  UNL     1      22.017   4.634  51.568  1.00  0.00    -0.259 NA
HETATM   11  C20 UNL     1      23.344   3.999  51.646  1.00  0.00     0.119 C 
HETATM   12  C21 UNL     1      24.544   3.442  51.931  1.00  0.00     0.048 C 
ENDROOT
BRANCH   5  13
HETATM   13  C10 UNL     1      25.980   7.178  49.277  1.00  0.00     0.070 C 
HETATM   14  C11 UNL     1      26.431   8.191  50.046  1.00  0.00    -0.019 C 
BRANCH  14  15
HETATM   15  C12 UNL     1      26.424   9.639  49.747  1.00  0.00     0.068 C 
BRANCH  15  16
HETATM   16  C13 UNL     1      27.793  10.188  49.490  1.00  0.00     0.278 C 
HETATM   17  N3  UNL     1      28.743   9.252  50.017  1.00  0.00     0.095 N 
HETATM   18  C14 UNL     1      29.841   8.951  49.152  1.00  0.00     0.296 C 
HETATM   19  H13 UNL     1      29.048   9.452  50.974  1.00  0.00     0.316 HD
HETATM   20  C15 UNL     1      29.408   8.659  47.753  1.00  0.00     0.201 C 
HETATM   21  O2  UNL     1      28.184   9.216  47.401  1.00  0.00    -0.358 OA
HETATM   22  C16 UNL     1      28.076  10.443  48.047  1.00  0.00     0.290 C 
BRANCH  22  23
HETATM   23  O3  UNL     1      29.305  11.088  47.940  1.00  0.00    -0.369 OA
HETATM   24  H19 UNL     1      29.667  11.096  47.023  1.00  0.00     0.212 HD
ENDBRANCH  22  23
ENDBRANCH  15  16
ENDBRANCH  14  15
ENDBRANCH   5  13
BRANCH   1  25
HETATM   25  N1  UNL     1      26.195   2.467  52.745  1.00  0.00    -0.354 N 
HETATM   26  H4  UNL     1      25.832   3.090  53.526  1.00  0.00     0.166 HD
BRANCH  25  27
HETATM   27  C5  UNL     1      27.054   1.325  52.960  1.00  0.00     0.074 A 
HETATM   28  C4  UNL     1      26.587  -0.018  52.634  1.00  0.00     0.057 A 
HETATM   29  C3  UNL     1      27.541  -0.886  52.915  1.00  0.00     0.048 A 
HETATM   30  C2  UNL     1      28.694  -0.159  53.444  1.00  0.00     0.017 A 
HETATM   31 CL1  UNL     1      27.583  -2.637  52.745  1.00  0.00    -0.083 Cl
HETATM   32  C1  UNL     1      29.889  -0.567  53.869  1.00  0.00     0.028 C 
HETATM   33  C22 UNL     1      28.304   1.238  53.440  1.00  0.00     0.154 A 
HETATM   34  F1  UNL     1      28.943   2.372  53.811  1.00  0.00    -0.203 F 
ENDBRANCH  25  27
ENDBRANCH   1  25
TORSDOF 6
ENDMDL
MODEL 3
REMARK VINA RESULT:      -8.5      1.660      2.010
REMARK  6 active torsions:
REMARK  status: ('A' for Active; 'I' for Inactive)
REMARK    1  A    between atoms: C5_6  and  N1_7 
REMARK    2  A    between atoms: N1_7  and  C6_8 
REMARK       I    between atoms: N2_11  and  C9_12 
REMARK    3  A    between atoms: C9_12  and  C10_14 
REMARK    4  A    between atoms: C11_15  and  C12_16 
REMARK    5  A    between atoms: C12_16  and  C13_17 
REMARK    6  A    between atoms: C16_22  and  O3_23 
ROOT
HETATM    1  C6  UNL     1      23.424   6.330  49.255  1.00  0.00     0.031 C 
HETATM    2  C7  UNL     1      22.605   6.203  50.251  1.00  0.00     0.022 C 
HETATM    3  C8  UNL     1      21.793   5.409  51.185  1.00  0.00     0.155 C 
HETATM    4  N2  UNL     1      22.192   4.016  51.129  1.00  0.00    -0.342 N 
HETATM    5  C9  UNL     1      23.277   3.914  52.120  1.00  0.00     0.243 C 
HETATM    6  O1  UNL     1      23.432   5.070  52.649  1.00  0.00    -0.268 OA
HETATM    7  C17 UNL     1      21.965   2.724  50.588  1.00  0.00     0.156 C 
HETATM    8  C18 UNL     1      22.762   2.188  49.514  1.00  0.00     0.027 C 
HETATM    9  C19 UNL     1      22.049   1.772  48.453  1.00  0.00     0.082 C 
HETATM   10  N4  UNL     1      21.405   2.856  48.030  1.00  0.00    -0.259 NA
HETATM   11  C20 UNL     1      22.183   4.063  48.358  1.00  0.00     0.119 C 
HETATM   12  C21 UNL     1      23.009   5.127  48.483  1.00  0.00     0.048 C 
ENDROOT
BRANCH   5  13
HETATM   13  C10 UNL     1      24.103   2.764  52.517  1.00  0.00     0.070 C 
HETATM   14  C11 UNL     1      24.180   1.529  53.054  1.00  0.00    -0.019 C 
BRANCH  14  15
HETATM   15  C12 UNL     1      25.385   0.695  53.260  1.00  0.00     0.068 C 
BRANCH  15  16
HETATM   16  C13 UNL     1      26.437   1.384  54.072  1.00  0.00     0.278 C 
HETATM   17  N3  UNL     1      27.060   0.397  54.907  1.00  0.00     0.095 N 
HETATM   18  C14 UNL     1      28.488   0.443  54.937  1.00  0.00     0.296 C 
HETATM   19  H13 UNL     1      26.654   0.319  55.844  1.00  0.00     0.316 HD
HETATM   20  C15 UNL     1      29.089   0.557  53.575  1.00  0.00     0.201 C 
HETATM   21  O2  UNL     1      28.248   1.113  52.619  1.00  0.00    -0.358 OA
HETATM   22  C16 UNL     1      27.470   2.079  53.250  1.00  0.00     0.290 C 
BRANCH  22  23
HETATM   23  O3  UNL     1      28.303   2.806  54.097  1.00  0.00    -0.369 OA
HETATM   24  H19 UNL     1      28.130   2.643  55.054  1.00  0.00     0.212 HD
ENDBRANCH  22  23
ENDBRANCH  15  16
ENDBRANCH  14  15
ENDBRANCH   5  13
BRANCH   1  25
HETATM   25  N1  UNL     1      24.293   6.749  48.233  1.00  0.00    -0.354 N 
HETATM   26  H4  UNL     1      23.934   6.647  47.237  1.00  0.00     0.166 HD
BRANCH  25  27
HETATM   27  C5  UNL     1      25.595   7.279  48.569  1.00  0.00     0.074 A 
HETATM   28  C4  UNL     1      26.804   6.574  48.157  1.00  0.00     0.057 A 
HETATM   29  C3  UNL     1      27.859   7.247  48.577  1.00  0.00     0.048 A 
HETATM   30  C2  UNL     1      27.401   8.437  49.291  1.00  0.00     0.017 A 
HETATM   31 CL1  UNL     1      29.577   6.913  48.396  1.00  0.00    -0.083 Cl
HETATM   32  C1  UNL     1      28.060   9.425  49.896  1.00  0.00     0.028 C 
HETATM   33  C22 UNL     1      25.952   8.384  49.241  1.00  0.00     0.154 A 
HETATM   34  F1  UNL     1      24.985   9.200  49.722  1.00  0.00    -0.203 F 
ENDBRANCH  25  27
ENDBRANCH   1  25
TORSDOF 6
ENDMDL
MODEL 4
REMARK VINA RESULT:      -8.1      4.838      8.219
REMARK  6 active torsions:
REMARK  status: ('A' for Active; 'I' for Inactive)
REMARK    1  A    between atoms: C5_6  and  N1_7 
REMARK    2  A    between atoms: N1_7  and  C6_8 
REMARK       I    between atoms: N2_11  and  C9_12 
REMARK    3  A    between atoms: C9_12  and  C10_14 
REMARK    4  A    between atoms: C11_15  and  C12_16 
REMARK    5  A    between atoms: C12_16  and  C13_17 
REMARK    6  A    between atoms: C16_22  and  O3_23 
ROOT
HETATM    1  C6  UNL     1      23.186   2.344  50.380  1.00  0.00     0.031 C 
HETATM    2  C7  UNL     1      22.382   1.769  49.542  1.00  0.00     0.022 C 
HETATM    3  C8  UNL     1      21.136   1.072  49.192  1.00  0.00     0.155 C 
HETATM    4  N2  UNL     1      20.176   1.198  50.271  1.00  0.00    -0.342 N 
HETATM    5  C9  UNL     1      19.459   2.449  49.968  1.00  0.00     0.243 C 
HETATM    6  O1  UNL     1      19.942   2.921  48.879  1.00  0.00    -0.268 OA
HETATM    7  C17 UNL     1      19.600   0.631  51.437  1.00  0.00     0.156 C 
HETATM    8  C18 UNL     1      19.975   1.050  52.764  1.00  0.00     0.027 C 
HETATM    9  C19 UNL     1      20.376   0.050  53.566  1.00  0.00     0.082 C 
HETATM   10  N4  UNL     1      21.431  -0.476  52.952  1.00  0.00    -0.259 NA
HETATM   11  C20 UNL     1      22.110   0.554  52.148  1.00  0.00     0.119 C 
HETATM   12  C21 UNL     1      22.827   1.559  51.593  1.00  0.00     0.048 C 
ENDROOT
BRANCH   5  13
HETATM   13  C10 UNL     1      18.380   3.132  50.696  1.00  0.00     0.070 C 
HETATM   14  C11 UNL     1      17.063   3.243  50.970  1.00  0.00    -0.019 C 
BRANCH  14  15
HETATM   15  C12 UNL     1      16.397   4.204  51.878  1.00  0.00     0.068 C 
BRANCH  15  16
HETATM   16  C13 UNL     1      15.554   3.533  52.917  1.00  0.00     0.278 C 
HETATM   17  N3  UNL     1      14.985   4.558  53.745  1.00  0.00     0.095 N 
HETATM   18  C14 UNL     1      13.589   4.411  54.018  1.00  0.00     0.296 C 
HETATM   19  H13 UNL     1      15.526   4.768  54.589  1.00  0.00     0.316 HD
HETATM   20  C15 UNL     1      12.793   4.104  52.793  1.00  0.00     0.201 C 
HETATM   21  O2  UNL     1      13.518   3.509  51.768  1.00  0.00    -0.358 OA
HETATM   22  C16 UNL     1      14.470   2.679  52.350  1.00  0.00     0.290 C 
BRANCH  22  23
HETATM   23  O3  UNL     1      13.852   1.991  53.391  1.00  0.00    -0.369 OA
HETATM   24  H19 UNL     1      13.039   2.434  53.728  1.00  0.00     0.212 HD
ENDBRANCH  22  23
ENDBRANCH  15  16
ENDBRANCH  14  15
ENDBRANCH   5  13
BRANCH   1  25
HETATM   25  N1  UNL     1      24.221   3.012  51.057  1.00  0.00    -0.354 N 
HETATM   26  H4  UNL     1      24.297   2.827  52.102  1.00  0.00     0.166 HD
BRANCH  25  27
HETATM   27  C5  UNL     1      25.105   3.892  50.329  1.00  0.00     0.074 A 
HETATM   28  C4  UNL     1      24.750   5.294  50.135  1.00  0.00     0.057 A 
HETATM   29  C3  UNL     1      25.705   5.889  49.446  1.00  0.00     0.048 A 
HETATM   30  C2  UNL     1      26.747   4.908  49.147  1.00  0.00     0.017 A 
HETATM   31 CL1  UNL     1      25.857   7.556  48.901  1.00  0.00    -0.083 Cl
HETATM   32  C1  UNL     1      27.901   5.004  48.488  1.00  0.00     0.028 C 
HETATM   33  C22 UNL     1      26.290   3.667  49.742  1.00  0.00     0.154 A 
HETATM   34  F1  UNL     1      26.821   2.423  49.795  1.00  0.00    -0.203 F 
ENDBRANCH  25  27
ENDBRANCH   1  25
TORSDOF 6
ENDMDL
MODEL 5
REMARK VINA RESULT:      -8.0      4.639      7.853
REMARK  6 active torsions:
REMARK  status: ('A' for Active; 'I' for Inactive)
REMARK    1  A    between atoms: C5_6  and  N1_7 
REMARK    2  A    between atoms: N1_7  and  C6_8 
REMARK       I    between atoms: N2_11  and  C9_12 
REMARK    3  A    between atoms: C9_12  and  C10_14 
REMARK    4  A    between atoms: C11_15  and  C12_16 
REMARK    5  A    between atoms: C12_16  and  C13_17 
REMARK    6  A    between atoms: C16_22  and  O3_23 
ROOT
HETATM    1  C6  UNL     1      23.775   4.036  51.592  1.00  0.00     0.031 C 
HETATM    2  C7  UNL     1      22.721   4.776  51.732  1.00  0.00     0.022 C 
HETATM    3  C8  UNL     1      21.350   5.180  51.388  1.00  0.00     0.155 C 
HETATM    4  N2  UNL     1      20.716   4.151  50.586  1.00  0.00    -0.342 N 
HETATM    5  C9  UNL     1      20.108   3.248  51.580  1.00  0.00     0.243 C 
HETATM    6  O1  UNL     1      20.357   3.724  52.743  1.00  0.00    -0.268 OA
HETATM    7  C17 UNL     1      20.385   3.671  49.294  1.00  0.00     0.156 C 
HETATM    8  C18 UNL     1      21.131   2.621  48.648  1.00  0.00     0.027 C 
HETATM    9  C19 UNL     1      21.593   2.942  47.427  1.00  0.00     0.082 C 
HETATM   10  N4  UNL     1      22.386   3.990  47.628  1.00  0.00    -0.259 NA
HETATM   11  C20 UNL     1      22.963   3.931  48.982  1.00  0.00     0.119 C 
HETATM   12  C21 UNL     1      23.638   3.742  50.140  1.00  0.00     0.048 C 
ENDROOT
BRANCH   5  13
HETATM   13  C10 UNL     1      19.341   2.007  51.399  1.00  0.00     0.070 C 
HETATM   14  C11 UNL     1      19.327   0.662  51.300  1.00  0.00    -0.019 C 
BRANCH  14  15
HETATM   15  C12 UNL     1      18.163  -0.228  51.097  1.00  0.00     0.068 C 
BRANCH  15  16
HETATM   16  C13 UNL     1      16.943   0.233  51.831  1.00  0.00     0.278 C 
HETATM   17  N3  UNL     1      15.973   0.637  50.855  1.00  0.00     0.095 N 
HETATM   18  C14 UNL     1      14.647   0.151  51.080  1.00  0.00     0.296 C 
HETATM   19  H13 UNL     1      15.987   1.637  50.632  1.00  0.00     0.316 HD
HETATM   20  C15 UNL     1      14.616  -1.306  51.405  1.00  0.00     0.201 C 
HETATM   21  O2  UNL     1      15.798  -1.802  51.941  1.00  0.00    -0.358 OA
HETATM   22  C16 UNL     1      16.357  -0.803  52.731  1.00  0.00     0.290 C 
BRANCH  22  23
HETATM   23  O3  UNL     1      15.329  -0.224  53.471  1.00  0.00    -0.369 OA
HETATM   24  H19 UNL     1      14.448  -0.633  53.307  1.00  0.00     0.212 HD
ENDBRANCH  22  23
ENDBRANCH  15  16
ENDBRANCH  14  15
ENDBRANCH   5  13
BRANCH   1  25
HETATM   25  N1  UNL     1      25.023   3.392  51.656  1.00  0.00    -0.354 N 
HETATM   26  H4  UNL     1      25.859   3.950  51.309  1.00  0.00     0.166 HD
BRANCH  25  27
HETATM   27  C5  UNL     1      25.110   2.045  52.170  1.00  0.00     0.074 A 
HETATM   28  C4  UNL     1      24.068   1.523  53.048  1.00  0.00     0.057 A 
HETATM   29  C3  UNL     1      24.368   0.282  53.382  1.00  0.00     0.048 A 
HETATM   30  C2  UNL     1      25.629  -0.084  52.741  1.00  0.00     0.017 A 
HETATM   31 CL1  UNL     1      23.513  -0.866  54.407  1.00  0.00    -0.083 Cl
HETATM   32  C1  UNL     1      26.348  -1.206  52.760  1.00  0.00     0.028 C 
HETATM   33  C22 UNL     1      26.034   1.089  51.989  1.00  0.00     0.154 A 
HETATM   34  F1  UNL     1      27.104   1.352  51.202  1.00  0.00    -0.203 F 
ENDBRANCH  25  27
ENDBRANCH   1  25
TORSDOF 6
ENDMDL
MODEL 6
REMARK VINA RESULT:      -8.0      4.369      8.057
REMARK  6 active torsions:
REMARK  status: ('A' for Active; 'I' for Inactive)
REMARK    1  A    between atoms: C5_6  and  N1_7 
REMARK    2  A    between atoms: N1_7  and  C6_8 
REMARK       I    between atoms: N2_11  and  C9_12 
REMARK    3  A    between atoms: C9_12  and  C10_14 
REMARK    4  A    between atoms: C11_15  and  C12_16 
REMARK    5  A    between atoms: C12_16  and  C13_17 
REMARK    6  A    between atoms: C16_22  and  O3_23 
ROOT
HETATM    1  C6  UNL     1      24.526   3.574  51.561  1.00  0.00     0.031 C 
HETATM    2  C7  UNL     1      24.499   3.497  50.268  1.00  0.00     0.022 C 
HETATM    3  C8  UNL     1      24.308   4.067  48.926  1.00  0.00     0.155 C 
HETATM    4  N2  UNL     1      24.300   5.515  48.999  1.00  0.00    -0.342 N 
HETATM    5  C9  UNL     1      25.719   5.888  48.861  1.00  0.00     0.243 C 
HETATM    6  O1  UNL     1      26.394   4.808  48.716  1.00  0.00    -0.268 OA
HETATM    7  C17 UNL     1      23.538   6.708  49.088  1.00  0.00     0.156 C 
HETATM    8  C18 UNL     1      23.367   7.422  50.329  1.00  0.00     0.027 C 
HETATM    9  C19 UNL     1      22.086   7.643  50.667  1.00  0.00     0.082 C 
HETATM   10  N4  UNL     1      21.549   6.432  50.775  1.00  0.00    -0.259 NA
HETATM   11  C20 UNL     1      22.580   5.458  51.170  1.00  0.00     0.119 C 
HETATM   12  C21 UNL     1      23.494   4.633  51.733  1.00  0.00     0.048 C 
ENDROOT
BRANCH   5  13
HETATM   13  C10 UNL     1      26.365   7.208  48.872  1.00  0.00     0.070 C 
HETATM   14  C11 UNL     1      27.495   7.942  48.795  1.00  0.00    -0.019 C 
BRANCH  14  15
HETATM   15  C12 UNL     1      27.637   9.412  48.871  1.00  0.00     0.068 C 
BRANCH  15  16
HETATM   16  C13 UNL     1      28.911   9.841  49.529  1.00  0.00     0.278 C 
HETATM   17  N3  UNL     1      29.769   8.694  49.608  1.00  0.00     0.095 N 
HETATM   18  C14 UNL     1      31.123   8.920  49.208  1.00  0.00     0.296 C 
HETATM   19  H13 UNL     1      29.706   8.178  50.491  1.00  0.00     0.316 HD
HETATM   20  C15 UNL     1      31.225   9.671  47.922  1.00  0.00     0.201 C 
HETATM   21  O2  UNL     1      30.115  10.452  47.621  1.00  0.00    -0.358 OA
HETATM   22  C16 UNL     1      29.611  10.950  48.818  1.00  0.00     0.290 C 
BRANCH  22  23
HETATM   23  O3  UNL     1      30.691  11.367  49.591  1.00  0.00    -0.369 OA
HETATM   24  H19 UNL     1      31.554  10.992  49.298  1.00  0.00     0.212 HD
ENDBRANCH  22  23
ENDBRANCH  15  16
ENDBRANCH  14  15
ENDBRANCH   5  13
BRANCH   1  25
HETATM   25  N1  UNL     1      24.632   3.381  52.950  1.00  0.00    -0.354 N 
HETATM   26  H4  UNL     1      24.304   4.186  53.563  1.00  0.00     0.166 HD
BRANCH  25  27
HETATM   27  C5  UNL     1      25.168   2.143  53.464  1.00  0.00     0.074 A 
HETATM   28  C4  UNL     1      26.574   2.051  53.843  1.00  0.00     0.057 A 
HETATM   29  C3  UNL     1      26.823   0.831  54.280  1.00  0.00     0.048 A 
HETATM   30  C2  UNL     1      25.591   0.048  54.212  1.00  0.00     0.017 A 
HETATM   31 CL1  UNL     1      28.315   0.110  54.874  1.00  0.00    -0.083 Cl
HETATM   32  C1  UNL     1      25.316  -1.216  54.532  1.00  0.00     0.028 C 
HETATM   33  C22 UNL     1      24.588   0.953  53.684  1.00  0.00     0.154 A 
HETATM   34  F1  UNL     1      23.272   0.804  53.401  1.00  0.00    -0.203 F 
ENDBRANCH  25  27
ENDBRANCH   1  25
TORSDOF 6
ENDMDL
MODEL 7
REMARK VINA RESULT:      -7.9      5.398      7.444
REMARK  6 active torsions:
REMARK  status: ('A' for Active; 'I' for Inactive)
REMARK    1  A    between atoms: C5_6  and  N1_7 
REMARK    2  A    between atoms: N1_7  and  C6_8 
REMARK       I    between atoms: N2_11  and  C9_12 
REMARK    3  A    between atoms: C9_12  and  C10_14 
REMARK    4  A    between atoms: C11_15  and  C12_16 
REMARK    5  A    between atoms: C12_16  and  C13_17 
REMARK    6  A    between atoms: C16_22  and  O3_23 
ROOT
HETATM    1  C6  UNL     1      17.826   2.476  51.536  1.00  0.00     0.031 C 
HETATM    2  C7  UNL     1      18.076   1.210  51.418  1.00  0.00     0.022 C 
HETATM    3  C8  UNL     1      18.913   0.073  51.011  1.00  0.00     0.155 C 
HETATM    4  N2  UNL     1      20.261   0.526  50.726  1.00  0.00    -0.342 N 
HETATM    5  C9  UNL     1      20.946   0.453  52.029  1.00  0.00     0.243 C 
HETATM    6  O1  UNL     1      20.105   0.009  52.887  1.00  0.00    -0.268 OA
HETATM    7  C17 UNL     1      21.204   0.950  49.755  1.00  0.00     0.156 C 
HETATM    8  C18 UNL     1      21.528   2.339  49.551  1.00  0.00     0.027 C 
HETATM    9  C19 UNL     1      21.382   2.759  48.283  1.00  0.00     0.082 C 
HETATM   10  N4  UNL     1      20.098   2.557  48.003  1.00  0.00    -0.259 NA
HETATM   11  C20 UNL     1      19.295   2.652  49.234  1.00  0.00     0.119 C 
HETATM   12  C21 UNL     1      18.566   2.951  50.334  1.00  0.00     0.048 C 
ENDROOT
BRANCH   5  13
HETATM   13  C10 UNL     1      22.326   0.796  52.403  1.00  0.00     0.070 C 
HETATM   14  C11 UNL     1      23.421   0.530  53.144  1.00  0.00    -0.019 C 
BRANCH  14  15
HETATM   15  C12 UNL     1      24.711   1.254  53.161  1.00  0.00     0.068 C 
BRANCH  15  16
HETATM   16  C13 UNL     1      25.874   0.381  52.806  1.00  0.00     0.278 C 
HETATM   17  N3  UNL     1      27.041   1.212  52.744  1.00  0.00     0.095 N 
HETATM   18  C14 UNL     1      28.194   0.690  53.410  1.00  0.00     0.296 C 
HETATM   19  H13 UNL     1      27.261   1.564  51.807  1.00  0.00     0.316 HD
HETATM   20  C15 UNL     1      27.884   0.174  54.777  1.00  0.00     0.201 C 
HETATM   21  O2  UNL     1      26.559  -0.202  54.964  1.00  0.00    -0.358 OA
HETATM   22  C16 UNL     1      26.098  -0.739  53.766  1.00  0.00     0.290 C 
BRANCH  22  23
HETATM   23  O3  UNL     1      27.097  -1.568  53.262  1.00  0.00    -0.369 OA
HETATM   24  H19 UNL     1      26.778  -2.193  52.570  1.00  0.00     0.212 HD
ENDBRANCH  22  23
ENDBRANCH  15  16
ENDBRANCH  14  15
ENDBRANCH   5  13
BRANCH   1  25
HETATM   25  N1  UNL     1      17.314   3.760  51.790  1.00  0.00    -0.354 N 
HETATM   26  H4  UNL     1      18.031   4.532  51.939  1.00  0.00     0.166 HD
BRANCH  25  27
HETATM   27  C5  UNL     1      15.886   3.967  51.842  1.00  0.00     0.074 A 
HETATM   28  C4  UNL     1      15.201   4.052  53.127  1.00  0.00     0.057 A 
HETATM   29  C3  UNL     1      13.912   4.241  52.917  1.00  0.00     0.048 A 
HETATM   30  C2  UNL     1      13.675   4.291  51.476  1.00  0.00     0.017 A 
HETATM   31 CL1  UNL     1      12.580   4.421  54.054  1.00  0.00    -0.083 Cl
HETATM   32  C1  UNL     1      12.565   4.460  50.758  1.00  0.00     0.028 C 
HETATM   33  C22 UNL     1      14.978   4.109  50.864  1.00  0.00     0.154 A 
HETATM   34  F1  UNL     1      15.391   4.064  49.576  1.00  0.00    -0.203 F 
ENDBRANCH  25  27
ENDBRANCH   1  25
TORSDOF 6
ENDMDL
MODEL 8
REMARK VINA RESULT:      -7.9      4.856      8.629
REMARK  6 active torsions:
REMARK  status: ('A' for Active; 'I' for Inactive)
REMARK    1  A    between atoms: C5_6  and  N1_7 
REMARK    2  A    between atoms: N1_7  and  C6_8 
REMARK       I    between atoms: N2_11  and  C9_12 
REMARK    3  A    between atoms: C9_12  and  C10_14 
REMARK    4  A    between atoms: C11_15  and  C12_16 
REMARK    5  A    between atoms: C12_16  and  C13_17 
REMARK    6  A    between atoms: C16_22  and  O3_23 
ROOT
HETATM    1  C6  UNL     1      23.475   0.414  52.888  1.00  0.00     0.031 C 
HETATM    2  C7  UNL     1      22.535   0.380  53.780  1.00  0.00     0.022 C 
HETATM    3  C8  UNL     1      21.209   0.743  54.300  1.00  0.00     0.155 C 
HETATM    4  N2  UNL     1      20.398   1.307  53.238  1.00  0.00    -0.342 N 
HETATM    5  C9  UNL     1      19.743   0.136  52.628  1.00  0.00     0.243 C 
HETATM    6  O1  UNL     1      20.124  -0.903  53.272  1.00  0.00    -0.268 OA
HETATM    7  C17 UNL     1      19.927   2.470  52.576  1.00  0.00     0.156 C 
HETATM    8  C18 UNL     1      20.489   2.929  51.331  1.00  0.00     0.027 C 
HETATM    9  C19 UNL     1      20.910   4.205  51.353  1.00  0.00     0.082 C 
HETATM   10  N4  UNL     1      21.842   4.240  52.300  1.00  0.00    -0.259 NA
HETATM   11  C20 UNL     1      22.492   2.923  52.414  1.00  0.00     0.119 C 
HETATM   12  C21 UNL     1      23.208   1.777  52.351  1.00  0.00     0.048 C 
ENDROOT
BRANCH   5  13
HETATM   13  C10 UNL     1      18.812   0.046  51.494  1.00  0.00     0.070 C 
HETATM   14  C11 UNL     1      17.574  -0.232  51.036  1.00  0.00    -0.019 C 
BRANCH  14  15
HETATM   15  C12 UNL     1      17.077  -0.163  49.645  1.00  0.00     0.068 C 
BRANCH  15  16
HETATM   16  C13 UNL     1      16.082   0.936  49.436  1.00  0.00     0.278 C 
HETATM   17  N3  UNL     1      15.670   1.404  50.728  1.00  0.00     0.095 N 
HETATM   18  C14 UNL     1      15.641   2.825  50.877  1.00  0.00     0.296 C 
HETATM   19  H13 UNL     1      14.821   0.959  51.088  1.00  0.00     0.316 HD
HETATM   20  C15 UNL     1      16.875   3.484  50.354  1.00  0.00     0.201 C 
HETATM   21  O2  UNL     1      17.554   2.751  49.387  1.00  0.00    -0.358 OA
HETATM   22  C16 UNL     1      16.606   2.074  48.626  1.00  0.00     0.290 C 
BRANCH  22  23
HETATM   23  O3  UNL     1      15.562   2.958  48.367  1.00  0.00    -0.369 OA
HETATM   24  H19 UNL     1      15.717   3.532  47.580  1.00  0.00     0.212 HD
ENDBRANCH  22  23
ENDBRANCH  15  16
ENDBRANCH  14  15
ENDBRANCH   5  13
BRANCH   1  25
HETATM   25  N1  UNL     1      24.631   0.274  52.100  1.00  0.00    -0.354 N 
HETATM   26  H4  UNL     1      24.499   0.371  51.050  1.00  0.00     0.166 HD
BRANCH  25  27
HETATM   27  C5  UNL     1      25.903   0.010  52.732  1.00  0.00     0.074 A 
HETATM   28  C4  UNL     1      26.648  -1.200  52.405  1.00  0.00     0.057 A 
HETATM   29  C3  UNL     1      27.768  -1.218  53.103  1.00  0.00     0.048 A 
HETATM   30  C2  UNL     1      27.823  -0.015  53.932  1.00  0.00     0.017 A 
HETATM   31 CL1  UNL     1      29.071  -2.400  53.148  1.00  0.00    -0.083 Cl
HETATM   32  C1  UNL     1      28.729   0.431  54.801  1.00  0.00     0.028 C 
HETATM   33  C22 UNL     1      26.602   0.711  53.638  1.00  0.00     0.154 A 
HETATM   34  F1  UNL     1      26.097   1.882  54.091  1.00  0.00    -0.203 F 
ENDBRANCH  25  27
ENDBRANCH   1  25
TORSDOF 6
ENDMDL
MODEL 9
REMARK VINA RESULT:      -7.8      3.753      4.543
REMARK  6 active torsions:
REMARK  status: ('A' for Active; 'I' for Inactive)
REMARK    1  A    between atoms: C5_6  and  N1_7 
REMARK    2  A    between atoms: N1_7  and  C6_8 
REMARK       I    between atoms: N2_11  and  C9_12 
REMARK    3  A    between atoms: C9_12  and  C10_14 
REMARK    4  A    between atoms: C11_15  and  C12_16 
REMARK    5  A    between atoms: C12_16  and  C13_17 
REMARK    6  A    between atoms: C16_22  and  O3_23 
ROOT
HETATM    1  C6  UNL     1      20.404   2.483  50.094  1.00  0.00     0.031 C 
HETATM    2  C7  UNL     1      20.920   3.170  51.065  1.00  0.00     0.022 C 
HETATM    3  C8  UNL     1      21.630   3.296  52.346  1.00  0.00     0.155 C 
HETATM    4  N2  UNL     1      22.259   2.035  52.691  1.00  0.00    -0.342 N 
HETATM    5  C9  UNL     1      23.583   2.108  52.049  1.00  0.00     0.243 C 
HETATM    6  O1  UNL     1      23.669   3.243  51.461  1.00  0.00    -0.268 OA
HETATM    7  C17 UNL     1      22.181   0.812  53.404  1.00  0.00     0.156 C 
HETATM    8  C18 UNL     1      21.830  -0.431  52.766  1.00  0.00     0.027 C 
HETATM    9  C19 UNL     1      20.796  -1.072  53.337  1.00  0.00     0.082 C 
HETATM   10  N4  UNL     1      19.777  -0.223  53.245  1.00  0.00    -0.259 NA
HETATM   11  C20 UNL     1      19.947   0.642  52.066  1.00  0.00     0.119 C 
HETATM   12  C21 UNL     1      20.021   1.272  50.870  1.00  0.00     0.048 C 
ENDROOT
BRANCH   5  13
HETATM   13  C10 UNL     1      24.683   1.133  52.015  1.00  0.00     0.070 C 
HETATM   14  C11 UNL     1      26.009   0.890  51.971  1.00  0.00    -0.019 C 
BRANCH  14  15
HETATM   15  C12 UNL     1      26.698  -0.418  51.951  1.00  0.00     0.068 C 
BRANCH  15  16
HETATM   16  C13 UNL     1      27.290  -0.784  53.277  1.00  0.00     0.278 C 
HETATM   17  N3  UNL     1      28.295  -1.781  53.046  1.00  0.00     0.095 N 
HETATM   18  C14 UNL     1      29.532  -1.565  53.729  1.00  0.00     0.296 C 
HETATM   19  H13 UNL     1      27.964  -2.746  53.139  1.00  0.00     0.316 HD
HETATM   20  C15 UNL     1      30.023  -0.161  53.600  1.00  0.00     0.201 C 
HETATM   21  O2  UNL     1      29.030   0.775  53.337  1.00  0.00    -0.358 OA
HETATM   22  C16 UNL     1      27.881   0.373  54.010  1.00  0.00     0.290 C 
BRANCH  22  23
HETATM   23  O3  UNL     1      28.261  -0.049  55.281  1.00  0.00    -0.369 OA
HETATM   24  H19 UNL     1      27.914  -0.941  55.520  1.00  0.00     0.212 HD
ENDBRANCH  22  23
ENDBRANCH  15  16
ENDBRANCH  14  15
ENDBRANCH   5  13
BRANCH   1  25
HETATM   25  N1  UNL     1      19.782   1.997  48.931  1.00  0.00    -0.354 N 
HETATM   26  H4  UNL     1      19.228   1.095  49.035  1.00  0.00     0.166 HD
BRANCH  25  27
HETATM   27  C5  UNL     1      19.920   2.718  47.687  1.00  0.00     0.074 A 
HETATM   28  C4  UNL     1      18.742   3.247  47.009  1.00  0.00     0.057 A 
HETATM   29  C3  UNL     1      19.120   3.860  45.903  1.00  0.00     0.048 A 
HETATM   30  C2  UNL     1      20.574   3.768  45.791  1.00  0.00     0.017 A 
HETATM   31 CL1  UNL     1      18.174   4.690  44.673  1.00  0.00    -0.083 Cl
HETATM   32  C1  UNL     1      21.430   4.217  44.873  1.00  0.00     0.028 C 
HETATM   33  C22 UNL     1      21.005   3.028  46.962  1.00  0.00     0.154 A 
HETATM   34  F1  UNL     1      22.223   2.634  47.404  1.00  0.00    -0.203 F 
ENDBRANCH  25  27
ENDBRANCH   1  25
TORSDOF 6
ENDMDL
