MODEL 1
REMARK VINA RESULT:      -9.9      0.000      0.000
REMARK  6 active torsions:
REMARK  status: ('A' for Active; 'I' for Inactive)
REMARK    1  A    between atoms: C7_11  and  S1_12 
REMARK    2  A    between atoms: S1_12  and  C8_13 
REMARK    3  A    between atoms: N3_23  and  C17_24 
REMARK    4  A    between atoms: C17_24  and  C18_25 
REMARK    5  A    between atoms: C18_25  and  C19_26 
REMARK    6  A    between atoms: C19_26  and  N4_27 
ROOT
HETATM    1  O1  UNL     1      23.033  -1.622  55.604  1.00  0.00    -0.271 OA
HETATM    2  C1  UNL     1      22.490  -1.074  54.601  1.00  0.00     0.248 A 
HETATM    3  C2  UNL     1      21.074  -1.422  54.397  1.00  0.00     0.279 A 
HETATM    4  O2  UNL     1      20.520  -0.777  53.266  1.00  0.00    -0.340 OA
HETATM    5  C3  UNL     1      21.277   0.082  52.462  1.00  0.00     0.098 A 
HETATM    6  C4  UNL     1      20.635   0.651  51.385  1.00  0.00     0.071 A 
HETATM    7  C5  UNL     1      21.382   1.504  50.582  1.00  0.00     0.074 A 
HETATM    8  N1  UNL     1      20.710   2.051  49.526  1.00  0.00    -0.241 NA
HETATM    9  C6  UNL     1      21.373   2.893  48.703  1.00  0.00     0.234 A 
HETATM   10  N2  UNL     1      22.668   3.201  48.899  1.00  0.00    -0.234 NA
HETATM   11  C7  UNL     1      23.365   2.696  49.912  1.00  0.00     0.112 A 
HETATM   12  C14 UNL     1      22.727   1.824  50.788  1.00  0.00     0.031 A 
HETATM   13  C15 UNL     1      23.331   1.226  51.885  1.00  0.00     0.049 A 
HETATM   14  C16 UNL     1      22.604   0.381  52.683  1.00  0.00     0.071 A 
HETATM   15  N3  UNL     1      23.288  -0.192  53.785  1.00  0.00    -0.314 N 
ENDROOT
BRANCH  15  16
HETATM   16  C17 UNL     1      24.697   0.029  54.153  1.00  0.00     0.134 C 
BRANCH  16  17
HETATM   17  C18 UNL     1      25.579  -1.005  53.529  1.00  0.00     0.040 C 
BRANCH  17  18
HETATM   18  C19 UNL     1      26.439  -0.570  52.392  1.00  0.00     0.118 C 
BRANCH  18  19
HETATM   19  N4  UNL     1      27.577   0.203  52.640  1.00  0.00    -0.412 N 
HETATM   20  C20 UNL     1      27.578   1.588  52.528  1.00  0.00     0.117 C 
HETATM   21  C21 UNL     1      28.158   2.354  53.688  1.00  0.00     0.019 C 
HETATM   22  C22 UNL     1      29.262   1.678  54.421  1.00  0.00     0.003 C 
HETATM   23  C23 UNL     1      28.751   0.278  54.790  1.00  0.00     0.019 C 
HETATM   24  C24 UNL     1      28.592  -0.406  53.445  1.00  0.00     0.117 C 
ENDBRANCH  18  19
ENDBRANCH  17  18
ENDBRANCH  16  17
ENDBRANCH  15  16
BRANCH  11  25
HETATM   25  S1  UNL     1      25.057   2.987  50.325  1.00  0.00    -0.070 SA
BRANCH  25  26
HETATM   26  C8  UNL     1      25.748   4.408  49.538  1.00  0.00     0.010 A 
HETATM   27  C9  UNL     1      25.183   5.634  49.278  1.00  0.00     0.019 A 
HETATM   28  C10 UNL     1      25.872   6.647  48.648  1.00  0.00     0.004 A 
HETATM   29  C11 UNL     1      27.185   6.423  48.260  1.00  0.00     0.042 A 
HETATM   30  C12 UNL     1      27.796   5.207  48.500  1.00  0.00     0.117 A 
HETATM   31  F1  UNL     1      29.075   5.081  48.087  1.00  0.00    -0.206 F 
HETATM   32  C13 UNL     1      27.072   4.208  49.137  1.00  0.00     0.061 A 
ENDBRANCH  25  26
ENDBRANCH  11  25
TORSDOF 6
ENDMDL
MODEL 2
REMARK VINA RESULT:      -9.8      2.215      6.041
REMARK  6 active torsions:
REMARK  status: ('A' for Active; 'I' for Inactive)
REMARK    1  A    between atoms: C7_11  and  S1_12 
REMARK    2  A    between atoms: S1_12  and  C8_13 
REMARK    3  A    between atoms: N3_23  and  C17_24 
REMARK    4  A    between atoms: C17_24  and  C18_25 
REMARK    5  A    between atoms: C18_25  and  C19_26 
REMARK    6  A    between atoms: C19_26  and  N4_27 
ROOT
HETATM    1  O1  UNL     1      19.255   1.451  49.689  1.00  0.00    -0.271 OA
HETATM    2  C1  UNL     1      19.677   0.919  50.755  1.00  0.00     0.248 A 
HETATM    3  C2  UNL     1      18.623   0.421  51.657  1.00  0.00     0.279 A 
HETATM    4  O2  UNL     1      19.154  -0.167  52.829  1.00  0.00    -0.340 OA
HETATM    5  C3  UNL     1      20.532  -0.240  53.060  1.00  0.00     0.098 A 
HETATM    6  C4  UNL     1      20.934  -0.831  54.236  1.00  0.00     0.071 A 
HETATM    7  C5  UNL     1      22.301  -0.905  54.472  1.00  0.00     0.074 A 
HETATM    8  N1  UNL     1      22.661  -1.500  55.647  1.00  0.00    -0.241 NA
HETATM    9  C6  UNL     1      23.975  -1.609  55.942  1.00  0.00     0.234 A 
HETATM   10  N2  UNL     1      24.928  -1.149  55.111  1.00  0.00    -0.234 NA
HETATM   11  C7  UNL     1      24.629  -0.564  53.956  1.00  0.00     0.112 A 
HETATM   12  C14 UNL     1      23.290  -0.427  53.606  1.00  0.00     0.031 A 
HETATM   13  C15 UNL     1      22.837   0.161  52.434  1.00  0.00     0.049 A 
HETATM   14  C16 UNL     1      21.489   0.240  52.192  1.00  0.00     0.071 A 
HETATM   15  N3  UNL     1      21.100   0.853  50.974  1.00  0.00    -0.314 N 
ENDROOT
BRANCH  15  16
HETATM   16  C17 UNL     1      21.999   1.412  49.949  1.00  0.00     0.134 C 
BRANCH  16  17
HETATM   17  C18 UNL     1      22.131   2.894  50.106  1.00  0.00     0.040 C 
BRANCH  17  18
HETATM   18  C19 UNL     1      22.975   3.386  51.231  1.00  0.00     0.118 C 
BRANCH  18  19
HETATM   19  N4  UNL     1      24.197   4.007  50.959  1.00  0.00    -0.412 N 
HETATM   20  C20 UNL     1      25.383   3.296  50.827  1.00  0.00     0.117 C 
HETATM   21  C21 UNL     1      26.218   3.601  49.611  1.00  0.00     0.019 C 
HETATM   22  C22 UNL     1      26.145   5.001  49.114  1.00  0.00     0.003 C 
HETATM   23  C23 UNL     1      24.655   5.332  48.948  1.00  0.00     0.019 C 
HETATM   24  C24 UNL     1      24.129   5.311  50.372  1.00  0.00     0.117 C 
ENDBRANCH  18  19
ENDBRANCH  17  18
ENDBRANCH  16  17
ENDBRANCH  15  16
BRANCH  11  25
HETATM   25  S1  UNL     1      25.736   0.093  52.747  1.00  0.00    -0.070 SA
BRANCH  25  26
HETATM   26  C8  UNL     1      27.439  -0.059  53.183  1.00  0.00     0.010 A 
HETATM   27  C9  UNL     1      28.287  -1.135  53.066  1.00  0.00     0.019 A 
HETATM   28  C10 UNL     1      29.606  -1.084  53.461  1.00  0.00     0.004 A 
HETATM   29  C11 UNL     1      30.099   0.097  53.995  1.00  0.00     0.042 A 
HETATM   30  C12 UNL     1      29.286   1.205  54.133  1.00  0.00     0.117 A 
HETATM   31  F1  UNL     1      29.854   2.309  54.663  1.00  0.00    -0.206 F 
HETATM   32  C13 UNL     1      27.962   1.119  53.726  1.00  0.00     0.061 A 
ENDBRANCH  25  26
ENDBRANCH  11  25
TORSDOF 6
ENDMDL
MODEL 3
REMARK VINA RESULT:      -9.2      1.929      5.381
REMARK  6 active torsions:
REMARK  status: ('A' for Active; 'I' for Inactive)
REMARK    1  A    between atoms: C7_11  and  S1_12 
REMARK    2  A    between atoms: S1_12  and  C8_13 
REMARK    3  A    between atoms: N3_23  and  C17_24 
REMARK    4  A    between atoms: C17_24  and  C18_25 
REMARK    5  A    between atoms: C18_25  and  C19_26 
REMARK    6  A    between atoms: C19_26  and  N4_27 
ROOT
HETATM    1  O1  UNL     1      20.908  -1.649  54.052  1.00  0.00    -0.271 OA
HETATM    2  C1  UNL     1      22.101  -1.260  54.215  1.00  0.00     0.248 A 
HETATM    3  C2  UNL     1      22.775  -1.813  55.401  1.00  0.00     0.279 A 
HETATM    4  O2  UNL     1      24.106  -1.348  55.529  1.00  0.00    -0.340 OA
HETATM    5  C3  UNL     1      24.668  -0.460  54.606  1.00  0.00     0.098 A 
HETATM    6  C4  UNL     1      25.970  -0.072  54.831  1.00  0.00     0.071 A 
HETATM    7  C5  UNL     1      26.534   0.810  53.919  1.00  0.00     0.074 A 
HETATM    8  N1  UNL     1      27.826   1.170  54.174  1.00  0.00    -0.241 NA
HETATM    9  C6  UNL     1      28.441   2.024  53.327  1.00  0.00     0.234 A 
HETATM   10  N2  UNL     1      27.813   2.524  52.248  1.00  0.00    -0.234 NA
HETATM   11  C7  UNL     1      26.556   2.205  51.955  1.00  0.00     0.112 A 
HETATM   12  C14 UNL     1      25.880   1.328  52.796  1.00  0.00     0.031 A 
HETATM   13  C15 UNL     1      24.570   0.909  52.611  1.00  0.00     0.049 A 
HETATM   14  C16 UNL     1      24.003   0.039  53.507  1.00  0.00     0.071 A 
HETATM   15  N3  UNL     1      22.662  -0.345  53.252  1.00  0.00    -0.314 N 
ENDROOT
BRANCH  15  16
HETATM   16  C17 UNL     1      21.823   0.099  52.126  1.00  0.00     0.134 C 
BRANCH  16  17
HETATM   17  C18 UNL     1      21.030   1.312  52.498  1.00  0.00     0.040 C 
BRANCH  17  18
HETATM   18  C19 UNL     1      20.692   2.266  51.404  1.00  0.00     0.118 C 
BRANCH  18  19
HETATM   19  N4  UNL     1      20.765   3.642  51.637  1.00  0.00    -0.412 N 
HETATM   20  C20 UNL     1      21.807   4.224  52.349  1.00  0.00     0.117 C 
HETATM   21  C21 UNL     1      22.471   5.417  51.712  1.00  0.00     0.019 C 
HETATM   22  C22 UNL     1      21.590   6.271  50.871  1.00  0.00     0.003 C 
HETATM   23  C23 UNL     1      20.893   5.337  49.872  1.00  0.00     0.019 C 
HETATM   24  C24 UNL     1      20.008   4.476  50.754  1.00  0.00     0.117 C 
ENDBRANCH  18  19
ENDBRANCH  17  18
ENDBRANCH  16  17
ENDBRANCH  15  16
BRANCH  11  25
HETATM   25  S1  UNL     1      25.580   2.756  50.591  1.00  0.00    -0.070 SA
BRANCH  25  26
HETATM   26  C8  UNL     1      26.231   4.181  49.779  1.00  0.00     0.010 A 
HETATM   27  C9  UNL     1      27.345   4.311  48.983  1.00  0.00     0.019 A 
HETATM   28  C10 UNL     1      27.715   5.513  48.420  1.00  0.00     0.004 A 
HETATM   29  C11 UNL     1      26.936   6.634  48.662  1.00  0.00     0.042 A 
HETATM   30  C12 UNL     1      25.807   6.553  49.455  1.00  0.00     0.117 A 
HETATM   31  F1  UNL     1      25.112   7.696  49.635  1.00  0.00    -0.206 F 
HETATM   32  C13 UNL     1      25.464   5.327  50.007  1.00  0.00     0.061 A 
ENDBRANCH  25  26
ENDBRANCH  11  25
TORSDOF 6
ENDMDL
MODEL 4
REMARK VINA RESULT:      -9.1      2.406      5.582
REMARK  6 active torsions:
REMARK  status: ('A' for Active; 'I' for Inactive)
REMARK    1  A    between atoms: C7_11  and  S1_12 
REMARK    2  A    between atoms: S1_12  and  C8_13 
REMARK    3  A    between atoms: N3_23  and  C17_24 
REMARK    4  A    between atoms: C17_24  and  C18_25 
REMARK    5  A    between atoms: C18_25  and  C19_26 
REMARK    6  A    between atoms: C19_26  and  N4_27 
ROOT
HETATM    1  O1  UNL     1      28.615   1.421  52.765  1.00  0.00    -0.271 OA
HETATM    2  C1  UNL     1      27.518   0.897  53.114  1.00  0.00     0.248 A 
HETATM    3  C2  UNL     1      27.647  -0.333  53.913  1.00  0.00     0.279 A 
HETATM    4  O2  UNL     1      26.391  -0.871  54.278  1.00  0.00    -0.340 OA
HETATM    5  C3  UNL     1      25.189  -0.265  53.894  1.00  0.00     0.098 A 
HETATM    6  C4  UNL     1      24.026  -0.878  54.303  1.00  0.00     0.071 A 
HETATM    7  C5  UNL     1      22.830  -0.282  53.925  1.00  0.00     0.074 A 
HETATM    8  N1  UNL     1      21.699  -0.917  54.351  1.00  0.00    -0.241 NA
HETATM    9  C6  UNL     1      20.498  -0.392  54.021  1.00  0.00     0.234 A 
HETATM   10  N2  UNL     1      20.394   0.731  53.290  1.00  0.00    -0.234 NA
HETATM   11  C7  UNL     1      21.464   1.387  52.852  1.00  0.00     0.112 A 
HETATM   12  C14 UNL     1      22.723   0.887  53.164  1.00  0.00     0.031 A 
HETATM   13  C15 UNL     1      23.921   1.468  52.775  1.00  0.00     0.049 A 
HETATM   14  C16 UNL     1      25.108   0.887  53.143  1.00  0.00     0.071 A 
HETATM   15  N3  UNL     1      26.291   1.537  52.709  1.00  0.00    -0.314 N 
ENDROOT
BRANCH  15  16
HETATM   16  C17 UNL     1      26.369   2.769  51.904  1.00  0.00     0.134 C 
BRANCH  16  17
HETATM   17  C18 UNL     1      26.442   2.449  50.445  1.00  0.00     0.040 C 
BRANCH  17  18
HETATM   18  C19 UNL     1      25.923   3.475  49.497  1.00  0.00     0.118 C 
BRANCH  18  19
HETATM   19  N4  UNL     1      26.464   4.763  49.505  1.00  0.00    -0.412 N 
HETATM   20  C20 UNL     1      27.668   5.071  48.884  1.00  0.00     0.117 C 
HETATM   21  C21 UNL     1      27.666   6.274  47.977  1.00  0.00     0.019 C 
HETATM   22  C22 UNL     1      26.740   7.371  48.363  1.00  0.00     0.003 C 
HETATM   23  C23 UNL     1      25.357   6.733  48.556  1.00  0.00     0.019 C 
HETATM   24  C24 UNL     1      25.549   5.833  49.764  1.00  0.00     0.117 C 
ENDBRANCH  18  19
ENDBRANCH  17  18
ENDBRANCH  16  17
ENDBRANCH  15  16
BRANCH  11  25
HETATM   25  S1  UNL     1      21.519   2.866  51.889  1.00  0.00    -0.070 SA
BRANCH  25  26
HETATM   26  C8  UNL     1      21.809   2.587  50.171  1.00  0.00     0.010 A 
HETATM   27  C9  UNL     1      21.675   1.437  49.429  1.00  0.00     0.019 A 
HETATM   28  C10 UNL     1      21.946   1.392  48.079  1.00  0.00     0.004 A 
HETATM   29  C11 UNL     1      22.368   2.550  47.442  1.00  0.00     0.042 A 
HETATM   30  C12 UNL     1      22.517   3.730  48.145  1.00  0.00     0.117 A 
HETATM   31  F1  UNL     1      22.933   4.804  47.441  1.00  0.00    -0.206 F 
HETATM   32  C13 UNL     1      22.236   3.739  49.504  1.00  0.00     0.061 A 
ENDBRANCH  25  26
ENDBRANCH  11  25
TORSDOF 6
ENDMDL
MODEL 5
REMARK VINA RESULT:      -9.1      2.716      6.380
REMARK  6 active torsions:
REMARK  status: ('A' for Active; 'I' for Inactive)
REMARK    1  A    between atoms: C7_11  and  S1_12 
REMARK    2  A    between atoms: S1_12  and  C8_13 
REMARK    3  A    between atoms: N3_23  and  C17_24 
REMARK    4  A    between atoms: C17_24  and  C18_25 
REMARK    5  A    between atoms: C18_25  and  C19_26 
REMARK    6  A    between atoms: C19_26  and  N4_27 
ROOT
HETATM    1  O1  UNL     1      19.982   4.924  50.008  1.00  0.00    -0.271 OA
HETATM    2  C1  UNL     1      20.159   3.984  50.836  1.00  0.00     0.248 A 
HETATM    3  C2  UNL     1      18.939   3.531  51.526  1.00  0.00     0.279 A 
HETATM    4  O2  UNL     1      19.196   2.477  52.435  1.00  0.00    -0.340 OA
HETATM    5  C3  UNL     1      20.483   1.961  52.621  1.00  0.00     0.098 A 
HETATM    6  C4  UNL     1      20.616   0.938  53.533  1.00  0.00     0.071 A 
HETATM    7  C5  UNL     1      21.892   0.422  53.723  1.00  0.00     0.074 A 
HETATM    8  N1  UNL     1      21.983  -0.592  54.633  1.00  0.00    -0.241 NA
HETATM    9  C6  UNL     1      23.194  -1.144  54.868  1.00  0.00     0.234 A 
HETATM   10  N2  UNL     1      24.300  -0.720  54.232  1.00  0.00    -0.234 NA
HETATM   11  C7  UNL     1      24.264   0.263  53.338  1.00  0.00     0.112 A 
HETATM   12  C14 UNL     1      23.041   0.864  53.061  1.00  0.00     0.031 A 
HETATM   13  C15 UNL     1      22.858   1.896  52.152  1.00  0.00     0.049 A 
HETATM   14  C16 UNL     1      21.603   2.413  51.957  1.00  0.00     0.071 A 
HETATM   15  N3  UNL     1      21.492   3.466  51.013  1.00  0.00    -0.314 N 
ENDROOT
BRANCH  15  16
HETATM   16  C17 UNL     1      22.589   4.056  50.227  1.00  0.00     0.134 C 
BRANCH  16  17
HETATM   17  C18 UNL     1      23.086   5.315  50.865  1.00  0.00     0.040 C 
BRANCH  17  18
HETATM   18  C19 UNL     1      24.560   5.534  50.880  1.00  0.00     0.118 C 
BRANCH  18  19
HETATM   19  N4  UNL     1      25.198   6.026  49.738  1.00  0.00    -0.412 N 
HETATM   20  C20 UNL     1      25.665   7.332  49.648  1.00  0.00     0.117 C 
HETATM   21  C21 UNL     1      27.082   7.506  49.165  1.00  0.00     0.019 C 
HETATM   22  C22 UNL     1      27.561   6.487  48.193  1.00  0.00     0.003 C 
HETATM   23  C23 UNL     1      27.279   5.114  48.819  1.00  0.00     0.019 C 
HETATM   24  C24 UNL     1      25.763   5.049  48.858  1.00  0.00     0.117 C 
ENDBRANCH  18  19
ENDBRANCH  17  18
ENDBRANCH  16  17
ENDBRANCH  15  16
BRANCH  11  25
HETATM   25  S1  UNL     1      25.603   0.944  52.410  1.00  0.00    -0.070 SA
BRANCH  25  26
HETATM   26  C8  UNL     1      27.191   0.380  52.933  1.00  0.00     0.010 A 
HETATM   27  C9  UNL     1      28.257   1.087  53.439  1.00  0.00     0.019 A 
HETATM   28  C10 UNL     1      29.440   0.482  53.802  1.00  0.00     0.004 A 
HETATM   29  C11 UNL     1      29.563  -0.891  53.655  1.00  0.00     0.042 A 
HETATM   30  C12 UNL     1      28.520  -1.645  53.152  1.00  0.00     0.117 A 
HETATM   31  F1  UNL     1      28.731  -2.974  53.045  1.00  0.00    -0.206 F 
HETATM   32  C13 UNL     1      27.342  -1.003  52.795  1.00  0.00     0.061 A 
ENDBRANCH  25  26
ENDBRANCH  11  25
TORSDOF 6
ENDMDL
MODEL 6
REMARK VINA RESULT:      -9.1      2.630      6.455
REMARK  6 active torsions:
REMARK  status: ('A' for Active; 'I' for Inactive)
REMARK    1  A    between atoms: C7_11  and  S1_12 
REMARK    2  A    between atoms: S1_12  and  C8_13 
REMARK    3  A    between atoms: N3_23  and  C17_24 
REMARK    4  A    between atoms: C17_24  and  C18_25 
REMARK    5  A    between atoms: C18_25  and  C19_26 
REMARK    6  A    between atoms: C19_26  and  N4_27 
ROOT
HETATM    1  O1  UNL     1      18.699   1.486  49.612  1.00  0.00    -0.271 OA
HETATM    2  C1  UNL     1      19.158   0.928  50.650  1.00  0.00     0.248 A 
HETATM    3  C2  UNL     1      18.142   0.309  51.520  1.00  0.00     0.279 A 
HETATM    4  O2  UNL     1      18.713  -0.303  52.660  1.00  0.00    -0.340 OA
HETATM    5  C3  UNL     1      20.093  -0.290  52.892  1.00  0.00     0.098 A 
HETATM    6  C4  UNL     1      20.536  -0.914  54.036  1.00  0.00     0.071 A 
HETATM    7  C5  UNL     1      21.906  -0.905  54.272  1.00  0.00     0.074 A 
HETATM    8  N1  UNL     1      22.307  -1.535  55.415  1.00  0.00    -0.241 NA
HETATM    9  C6  UNL     1      23.626  -1.567  55.708  1.00  0.00     0.234 A 
HETATM   10  N2  UNL     1      24.543  -0.996  54.906  1.00  0.00    -0.234 NA
HETATM   11  C7  UNL     1      24.203  -0.372  53.783  1.00  0.00     0.112 A 
HETATM   12  C14 UNL     1      22.858  -0.312  53.437  1.00  0.00     0.031 A 
HETATM   13  C15 UNL     1      22.364   0.305  52.297  1.00  0.00     0.049 A 
HETATM   14  C16 UNL     1      21.013   0.302  52.055  1.00  0.00     0.071 A 
HETATM   15  N3  UNL     1      20.582   0.951  50.870  1.00  0.00    -0.314 N 
ENDROOT
BRANCH  15  16
HETATM   16  C17 UNL     1      21.439   1.626  49.880  1.00  0.00     0.134 C 
BRANCH  16  17
HETATM   17  C18 UNL     1      21.586   3.079  50.204  1.00  0.00     0.040 C 
BRANCH  17  18
HETATM   18  C19 UNL     1      22.885   3.725  49.861  1.00  0.00     0.118 C 
BRANCH  18  19
HETATM   19  N4  UNL     1      22.940   5.108  49.666  1.00  0.00    -0.412 N 
HETATM   20  C20 UNL     1      21.810   5.914  49.713  1.00  0.00     0.117 C 
HETATM   21  C21 UNL     1      21.901   7.147  50.576  1.00  0.00     0.019 C 
HETATM   22  C22 UNL     1      23.248   7.768  50.672  1.00  0.00     0.003 C 
HETATM   23  C23 UNL     1      24.221   6.651  51.076  1.00  0.00     0.019 C 
HETATM   24  C24 UNL     1      24.215   5.726  49.872  1.00  0.00     0.117 C 
ENDBRANCH  18  19
ENDBRANCH  17  18
ENDBRANCH  16  17
ENDBRANCH  15  16
BRANCH  11  25
HETATM   25  S1  UNL     1      25.261   0.426  52.616  1.00  0.00    -0.070 SA
BRANCH  25  26
HETATM   26  C8  UNL     1      26.966   0.405  53.069  1.00  0.00     0.010 A 
HETATM   27  C9  UNL     1      27.779   1.430  53.493  1.00  0.00     0.019 A 
HETATM   28  C10 UNL     1      29.106   1.238  53.811  1.00  0.00     0.004 A 
HETATM   29  C11 UNL     1      29.643  -0.035  53.702  1.00  0.00     0.042 A 
HETATM   30  C12 UNL     1      28.866  -1.097  53.281  1.00  0.00     0.117 A 
HETATM   31  F1  UNL     1      29.475  -2.300  53.204  1.00  0.00    -0.206 F 
HETATM   32  C13 UNL     1      27.533  -0.869  52.967  1.00  0.00     0.061 A 
ENDBRANCH  25  26
ENDBRANCH  11  25
TORSDOF 6
ENDMDL
MODEL 7
REMARK VINA RESULT:      -9.1      1.540      5.329
REMARK  6 active torsions:
REMARK  status: ('A' for Active; 'I' for Inactive)
REMARK    1  A    between atoms: C7_11  and  S1_12 
REMARK    2  A    between atoms: S1_12  and  C8_13 
REMARK    3  A    between atoms: N3_23  and  C17_24 
REMARK    4  A    between atoms: C17_24  and  C18_25 
REMARK    5  A    between atoms: C18_25  and  C19_26 
REMARK    6  A    between atoms: C19_26  and  N4_27 
ROOT
HETATM    1  O1  UNL     1      19.452  -0.550  53.529  1.00  0.00    -0.271 OA
HETATM    2  C1  UNL     1      20.712  -0.524  53.628  1.00  0.00     0.248 A 
HETATM    3  C2  UNL     1      21.282  -1.531  54.539  1.00  0.00     0.279 A 
HETATM    4  O2  UNL     1      22.694  -1.458  54.606  1.00  0.00    -0.340 OA
HETATM    5  C3  UNL     1      23.419  -0.513  53.871  1.00  0.00     0.098 A 
HETATM    6  C4  UNL     1      24.788  -0.532  54.016  1.00  0.00     0.071 A 
HETATM    7  C5  UNL     1      25.513   0.404  53.289  1.00  0.00     0.074 A 
HETATM    8  N1  UNL     1      26.868   0.353  53.457  1.00  0.00    -0.241 NA
HETATM    9  C6  UNL     1      27.638   1.233  52.780  1.00  0.00     0.234 A 
HETATM   10  N2  UNL     1      27.105   2.149  51.952  1.00  0.00    -0.234 NA
HETATM   11  C7  UNL     1      25.794   2.239  51.754  1.00  0.00     0.112 A 
HETATM   12  C14 UNL     1      24.958   1.355  52.428  1.00  0.00     0.031 A 
HETATM   13  C15 UNL     1      23.575   1.336  52.315  1.00  0.00     0.049 A 
HETATM   14  C16 UNL     1      22.849   0.417  53.029  1.00  0.00     0.071 A 
HETATM   15  N3  UNL     1      21.441   0.456  52.862  1.00  0.00    -0.314 N 
ENDROOT
BRANCH  15  16
HETATM   16  C17 UNL     1      20.686   1.385  52.003  1.00  0.00     0.134 C 
BRANCH  16  17
HETATM   17  C18 UNL     1      20.415   0.774  50.665  1.00  0.00     0.040 C 
BRANCH  17  18
HETATM   18  C19 UNL     1      19.557   1.548  49.725  1.00  0.00     0.118 C 
BRANCH  18  19
HETATM   19  N4  UNL     1      20.114   2.592  48.980  1.00  0.00    -0.412 N 
HETATM   20  C20 UNL     1      20.231   3.884  49.477  1.00  0.00     0.117 C 
HETATM   21  C21 UNL     1      21.581   4.538  49.333  1.00  0.00     0.019 C 
HETATM   22  C22 UNL     1      22.365   4.140  48.133  1.00  0.00     0.003 C 
HETATM   23  C23 UNL     1      22.411   2.606  48.125  1.00  0.00     0.019 C 
HETATM   24  C24 UNL     1      20.964   2.211  47.893  1.00  0.00     0.117 C 
ENDBRANCH  18  19
ENDBRANCH  17  18
ENDBRANCH  16  17
ENDBRANCH  15  16
BRANCH  11  25
HETATM   25  S1  UNL     1      24.922   3.366  50.712  1.00  0.00    -0.070 SA
BRANCH  25  26
HETATM   26  C8  UNL     1      25.973   4.467  49.818  1.00  0.00     0.010 A 
HETATM   27  C9  UNL     1      27.130   4.212  49.120  1.00  0.00     0.019 A 
HETATM   28  C10 UNL     1      27.836   5.201  48.471  1.00  0.00     0.004 A 
HETATM   29  C11 UNL     1      27.363   6.503  48.520  1.00  0.00     0.042 A 
HETATM   30  C12 UNL     1      26.204   6.810  49.208  1.00  0.00     0.117 A 
HETATM   31  F1  UNL     1      25.822   8.105  49.201  1.00  0.00    -0.206 F 
HETATM   32  C13 UNL     1      25.518   5.789  49.852  1.00  0.00     0.061 A 
ENDBRANCH  25  26
ENDBRANCH  11  25
TORSDOF 6
ENDMDL
MODEL 8
REMARK VINA RESULT:      -9.1      0.963      1.377
REMARK  6 active torsions:
REMARK  status: ('A' for Active; 'I' for Inactive)
REMARK    1  A    between atoms: C7_11  and  S1_12 
REMARK    2  A    between atoms: S1_12  and  C8_13 
REMARK    3  A    between atoms: N3_23  and  C17_24 
REMARK    4  A    between atoms: C17_24  and  C18_25 
REMARK    5  A    between atoms: C18_25  and  C19_26 
REMARK    6  A    between atoms: C19_26  and  N4_27 
ROOT
HETATM    1  O1  UNL     1      21.805  -1.467  55.036  1.00  0.00    -0.271 OA
HETATM    2  C1  UNL     1      21.443  -0.870  53.982  1.00  0.00     0.248 A 
HETATM    3  C2  UNL     1      20.054  -1.133  53.569  1.00  0.00     0.279 A 
HETATM    4  O2  UNL     1      19.703  -0.436  52.388  1.00  0.00    -0.340 OA
HETATM    5  C3  UNL     1      20.612   0.394  51.724  1.00  0.00     0.098 A 
HETATM    6  C4  UNL     1      20.162   1.020  50.583  1.00  0.00     0.071 A 
HETATM    7  C5  UNL     1      21.061   1.845  49.918  1.00  0.00     0.074 A 
HETATM    8  N1  UNL     1      20.578   2.450  48.793  1.00  0.00    -0.241 NA
HETATM    9  C6  UNL     1      21.396   3.269  48.096  1.00  0.00     0.234 A 
HETATM   10  N2  UNL     1      22.663   3.499  48.483  1.00  0.00    -0.234 NA
HETATM   11  C7  UNL     1      23.180   2.936  49.570  1.00  0.00     0.112 A 
HETATM   12  C14 UNL     1      22.378   2.085  50.322  1.00  0.00     0.031 A 
HETATM   13  C15 UNL     1      22.786   1.432  51.477  1.00  0.00     0.049 A 
HETATM   14  C16 UNL     1      21.907   0.614  52.140  1.00  0.00     0.071 A 
HETATM   15  N3  UNL     1      22.394  -0.018  53.312  1.00  0.00    -0.314 N 
ENDROOT
BRANCH  15  16
HETATM   16  C17 UNL     1      23.746   0.116  53.883  1.00  0.00     0.134 C 
BRANCH  16  17
HETATM   17  C18 UNL     1      24.772  -0.473  52.967  1.00  0.00     0.040 C 
BRANCH  17  18
HETATM   18  C19 UNL     1      26.116   0.172  52.948  1.00  0.00     0.118 C 
BRANCH  18  19
HETATM   19  N4  UNL     1      27.192  -0.452  53.585  1.00  0.00    -0.412 N 
HETATM   20  C20 UNL     1      27.659  -1.705  53.206  1.00  0.00     0.117 C 
HETATM   21  C21 UNL     1      29.146  -1.830  52.992  1.00  0.00     0.019 C 
HETATM   22  C22 UNL     1      29.995  -0.959  53.847  1.00  0.00     0.003 C 
HETATM   23  C23 UNL     1      29.460   0.472  53.688  1.00  0.00     0.019 C 
HETATM   24  C24 UNL     1      28.079   0.402  54.314  1.00  0.00     0.117 C 
ENDBRANCH  18  19
ENDBRANCH  17  18
ENDBRANCH  16  17
ENDBRANCH  15  16
BRANCH  11  25
HETATM   25  S1  UNL     1      24.808   3.123  50.227  1.00  0.00    -0.070 SA
BRANCH  25  26
HETATM   26  C8  UNL     1      25.701   4.483  49.543  1.00  0.00     0.010 A 
HETATM   27  C9  UNL     1      25.328   5.797  49.392  1.00  0.00     0.019 A 
HETATM   28  C10 UNL     1      26.158   6.742  48.830  1.00  0.00     0.004 A 
HETATM   29  C11 UNL     1      27.418   6.355  48.400  1.00  0.00     0.042 A 
HETATM   30  C12 UNL     1      27.839   5.045  48.530  1.00  0.00     0.117 A 
HETATM   31  F1  UNL     1      29.081   4.762  48.084  1.00  0.00    -0.206 F 
HETATM   32  C13 UNL     1      26.977   4.119  49.100  1.00  0.00     0.061 A 
ENDBRANCH  25  26
ENDBRANCH  11  25
TORSDOF 6
ENDMDL
MODEL 9
REMARK VINA RESULT:      -9.0      2.682      5.875
REMARK  6 active torsions:
REMARK  status: ('A' for Active; 'I' for Inactive)
REMARK    1  A    between atoms: C7_11  and  S1_12 
REMARK    2  A    between atoms: S1_12  and  C8_13 
REMARK    3  A    between atoms: N3_23  and  C17_24 
REMARK    4  A    between atoms: C17_24  and  C18_25 
REMARK    5  A    between atoms: C18_25  and  C19_26 
REMARK    6  A    between atoms: C19_26  and  N4_27 
ROOT
HETATM    1  O1  UNL     1      28.813   1.372  52.887  1.00  0.00    -0.271 OA
HETATM    2  C1  UNL     1      27.795   0.833  53.407  1.00  0.00     0.248 A 
HETATM    3  C2  UNL     1      28.029   0.208  54.720  1.00  0.00     0.279 A 
HETATM    4  O2  UNL     1      26.856  -0.374  55.256  1.00  0.00    -0.340 OA
HETATM    5  C3  UNL     1      25.636  -0.336  54.572  1.00  0.00     0.098 A 
HETATM    6  C4  UNL     1      24.561  -0.938  55.187  1.00  0.00     0.071 A 
HETATM    7  C5  UNL     1      23.346  -0.904  54.513  1.00  0.00     0.074 A 
HETATM    8  N1  UNL     1      22.304  -1.509  55.155  1.00  0.00    -0.241 NA
HETATM    9  C6  UNL     1      21.091  -1.514  54.559  1.00  0.00     0.234 A 
HETATM   10  N2  UNL     1      20.890  -0.941  53.359  1.00  0.00    -0.234 NA
HETATM   11  C7  UNL     1      21.872  -0.339  52.694  1.00  0.00     0.112 A 
HETATM   12  C14 UNL     1      23.139  -0.308  53.266  1.00  0.00     0.031 A 
HETATM   13  C15 UNL     1      24.251   0.285  52.685  1.00  0.00     0.049 A 
HETATM   14  C16 UNL     1      25.455   0.257  53.341  1.00  0.00     0.071 A 
HETATM   15  N3  UNL     1      26.547   0.883  52.687  1.00  0.00    -0.314 N 
ENDROOT
BRANCH  15  16
HETATM   16  C17 UNL     1      26.513   1.556  51.377  1.00  0.00     0.134 C 
BRANCH  16  17
HETATM   17  C18 UNL     1      26.248   3.020  51.536  1.00  0.00     0.040 C 
BRANCH  17  18
HETATM   18  C19 UNL     1      24.916   3.521  51.093  1.00  0.00     0.118 C 
BRANCH  18  19
HETATM   19  N4  UNL     1      24.839   4.658  50.284  1.00  0.00    -0.412 N 
HETATM   20  C20 UNL     1      24.598   5.926  50.800  1.00  0.00     0.117 C 
HETATM   21  C21 UNL     1      25.527   7.022  50.346  1.00  0.00     0.019 C 
HETATM   22  C22 UNL     1      26.065   6.882  48.967  1.00  0.00     0.003 C 
HETATM   23  C23 UNL     1      26.667   5.473  48.870  1.00  0.00     0.019 C 
HETATM   24  C24 UNL     1      25.458   4.564  48.997  1.00  0.00     0.117 C 
ENDBRANCH  18  19
ENDBRANCH  17  18
ENDBRANCH  16  17
ENDBRANCH  15  16
BRANCH  11  25
HETATM   25  S1  UNL     1      21.794   0.462  51.123  1.00  0.00    -0.070 SA
BRANCH  25  26
HETATM   26  C8  UNL     1      21.523   2.203  51.224  1.00  0.00     0.010 A 
HETATM   27  C9  UNL     1      21.394   3.013  52.327  1.00  0.00     0.019 A 
HETATM   28  C10 UNL     1      21.183   4.371  52.227  1.00  0.00     0.004 A 
HETATM   29  C11 UNL     1      21.100   4.944  50.967  1.00  0.00     0.042 A 
HETATM   30  C12 UNL     1      21.224   4.171  49.828  1.00  0.00     0.117 A 
HETATM   31  F1  UNL     1      21.129   4.816  48.646  1.00  0.00    -0.206 F 
HETATM   32  C13 UNL     1      21.435   2.806  49.965  1.00  0.00     0.061 A 
ENDBRANCH  25  26
ENDBRANCH  11  25
TORSDOF 6
ENDMDL
