MODEL 1
REMARK VINA RESULT:      -7.0      0.000      0.000
REMARK  8 active torsions:
REMARK  status: ('A' for Active; 'I' for Inactive)
REMARK    1  A    between atoms: C2_2  and  C3_3 
REMARK    2  A    between atoms: C3_3  and  N1_4 
REMARK    3  A    between atoms: N1_4  and  C4_5 
REMARK    4  A    between atoms: C5_6  and  C6_7 
REMARK       I    between atoms: C6_7  and  N2_9 
REMARK    5  A    between atoms: N2_9  and  C7_10 
REMARK    6  A    between atoms: C10_13  and  N3_14 
REMARK    7  A    between atoms: N3_14  and  C11_15 
REMARK    8  A    between atoms: C11_15  and  C12_16 
ROOT
HETATM    1  C6  UNL     1      24.771   1.280  53.437  1.00  0.00     0.256 C 
HETATM    2  O1  UNL     1      24.180   2.378  53.294  1.00  0.00    -0.268 OA
HETATM    3  N2  UNL     1      23.866   0.201  53.248  1.00  0.00    -0.323 N 
HETATM    4  H9  UNL     1      24.161  -0.803  53.322  1.00  0.00     0.169 HD
ENDROOT
BRANCH   1   5
HETATM    5  C5  UNL     1      26.174   1.041  53.748  1.00  0.00     0.054 A 
HETATM    6  C4  UNL     1      27.067   1.777  53.108  1.00  0.00     0.042 A 
HETATM    7  C17 UNL     1      28.489   1.574  53.382  1.00  0.00     0.046 A 
HETATM    8  C16 UNL     1      28.942   0.676  54.252  1.00  0.00     0.085 A 
HETATM    9  N4  UNL     1      27.930  -0.063  54.889  1.00  0.00    -0.394 N 
HETATM   10  C15 UNL     1      26.498   0.009  54.751  1.00  0.00     0.165 A 
HETATM   11  H20 UNL     1      28.157  -0.813  55.597  1.00  0.00     0.159 HD
BRANCH   6  12
HETATM   12  N1  UNL     1      26.807   2.784  52.140  1.00  0.00    -0.389 N 
HETATM   13  H8  UNL     1      26.724   3.804  52.430  1.00  0.00     0.159 HD
BRANCH  12  14
HETATM   14  C3  UNL     1      26.650   2.496  50.751  1.00  0.00     0.119 C 
BRANCH  14  15
HETATM   15  C2  UNL     1      25.786   3.567  50.106  1.00  0.00     0.015 C 
HETATM   16  C1  UNL     1      26.689   4.422  49.221  1.00  0.00     0.006 C 
ENDBRANCH  14  15
ENDBRANCH  12  14
ENDBRANCH   6  12
ENDBRANCH   1   5
BRANCH   3  17
HETATM   17  C7  UNL     1      22.482   0.169  52.942  1.00  0.00     0.035 A 
HETATM   18  C8  UNL     1      21.962   0.424  51.691  1.00  0.00     0.032 A 
HETATM   19  C9  UNL     1      20.605   0.382  51.444  1.00  0.00     0.031 A 
HETATM   20  C10 UNL     1      19.694   0.084  52.436  1.00  0.00     0.028 A 
HETATM   21  C13 UNL     1      20.219  -0.170  53.685  1.00  0.00     0.031 A 
HETATM   22  C14 UNL     1      21.570  -0.131  53.938  1.00  0.00     0.032 A 
BRANCH  20  23
HETATM   23  N3  UNL     1      18.308   0.037  52.214  1.00  0.00    -0.384 N 
HETATM   24  H12 UNL     1      17.828   0.823  51.743  1.00  0.00     0.160 HD
BRANCH  23  25
HETATM   25  C11 UNL     1      17.519  -1.095  52.632  1.00  0.00     0.189 C 
BRANCH  25  26
HETATM   26  C12 UNL     1      16.059  -0.797  52.679  1.00  0.00     0.250 C 
HETATM   27  O2  UNL     1      15.436   0.135  53.181  1.00  0.00    -0.305 OA
ENDBRANCH  25  26
ENDBRANCH  23  25
ENDBRANCH  20  23
ENDBRANCH   3  17
TORSDOF 8
ENDMDL
MODEL 2
REMARK VINA RESULT:      -6.9      2.376      8.949
REMARK  8 active torsions:
REMARK  status: ('A' for Active; 'I' for Inactive)
REMARK    1  A    between atoms: C2_2  and  C3_3 
REMARK    2  A    between atoms: C3_3  and  N1_4 
REMARK    3  A    between atoms: N1_4  and  C4_5 
REMARK    4  A    between atoms: C5_6  and  C6_7 
REMARK       I    between atoms: C6_7  and  N2_9 
REMARK    5  A    between atoms: N2_9  and  C7_10 
REMARK    6  A    between atoms: C10_13  and  N3_14 
REMARK    7  A    between atoms: N3_14  and  C11_15 
REMARK    8  A    between atoms: C11_15  and  C12_16 
ROOT
HETATM    1  C6  UNL     1      20.675   0.832  52.351  1.00  0.00     0.256 C 
HETATM    2  O1  UNL     1      20.657   1.018  53.592  1.00  0.00    -0.268 OA
HETATM    3  N2  UNL     1      22.013   0.750  51.881  1.00  0.00    -0.323 N 
HETATM    4  H9  UNL     1      22.248   0.595  50.870  1.00  0.00     0.169 HD
ENDROOT
BRANCH   1   5
HETATM    5  C5  UNL     1      19.546   0.703  51.439  1.00  0.00     0.054 A 
HETATM    6  C4  UNL     1      18.571  -0.115  51.799  1.00  0.00     0.042 A 
HETATM    7  C17 UNL     1      17.417  -0.283  50.917  1.00  0.00     0.046 A 
HETATM    8  C16 UNL     1      17.291   0.351  49.754  1.00  0.00     0.085 A 
HETATM    9  N4  UNL     1      18.369   1.200  49.446  1.00  0.00    -0.394 N 
HETATM   10  C15 UNL     1      19.567   1.490  50.191  1.00  0.00     0.165 A 
HETATM   11  H20 UNL     1      18.395   1.754  48.548  1.00  0.00     0.159 HD
BRANCH   6  12
HETATM   12  N1  UNL     1      18.502  -0.889  52.988  1.00  0.00    -0.389 N 
HETATM   13  H8  UNL     1      19.305  -0.883  53.684  1.00  0.00     0.159 HD
BRANCH  12  14
HETATM   14  C3  UNL     1      17.373  -1.700  53.314  1.00  0.00     0.119 C 
BRANCH  14  15
HETATM   15  C2  UNL     1      17.850  -3.037  53.858  1.00  0.00     0.015 C 
HETATM   16  C1  UNL     1      16.829  -4.096  53.450  1.00  0.00     0.006 C 
ENDBRANCH  14  15
ENDBRANCH  12  14
ENDBRANCH   6  12
ENDBRANCH   1   5
BRANCH   3  17
HETATM   17  C7  UNL     1      23.259   0.841  52.550  1.00  0.00     0.035 A 
HETATM   18  C8  UNL     1      23.866  -0.215  53.196  1.00  0.00     0.032 A 
HETATM   19  C9  UNL     1      25.080  -0.076  53.837  1.00  0.00     0.031 A 
HETATM   20  C10 UNL     1      25.753   1.128  53.867  1.00  0.00     0.028 A 
HETATM   21  C13 UNL     1      25.142   2.181  53.220  1.00  0.00     0.031 A 
HETATM   22  C14 UNL     1      23.933   2.049  52.579  1.00  0.00     0.032 A 
BRANCH  20  23
HETATM   23  N3  UNL     1      26.989   1.299  54.513  1.00  0.00    -0.384 N 
HETATM   24  H12 UNL     1      27.306   2.245  54.790  1.00  0.00     0.160 HD
BRANCH  23  25
HETATM   25  C11 UNL     1      27.844   0.177  54.809  1.00  0.00     0.189 C 
BRANCH  25  26
HETATM   26  C12 UNL     1      29.175   0.274  54.146  1.00  0.00     0.250 C 
HETATM   27  O2  UNL     1      29.819  -0.543  53.492  1.00  0.00    -0.305 OA
ENDBRANCH  25  26
ENDBRANCH  23  25
ENDBRANCH  20  23
ENDBRANCH   3  17
TORSDOF 8
ENDMDL
MODEL 3
REMARK VINA RESULT:      -6.9      1.369      1.524
REMARK  8 active torsions:
REMARK  status: ('A' for Active; 'I' for Inactive)
REMARK    1  A    between atoms: C2_2  and  C3_3 
REMARK    2  A    between atoms: C3_3  and  N1_4 
REMARK    3  A    between atoms: N1_4  and  C4_5 
REMARK    4  A    between atoms: C5_6  and  C6_7 
REMARK       I    between atoms: C6_7  and  N2_9 
REMARK    5  A    between atoms: N2_9  and  C7_10 
REMARK    6  A    between atoms: C10_13  and  N3_14 
REMARK    7  A    between atoms: N3_14  and  C11_15 
REMARK    8  A    between atoms: C11_15  and  C12_16 
ROOT
HETATM    1  C6  UNL     1      24.920   1.428  53.449  1.00  0.00     0.256 C 
HETATM    2  O1  UNL     1      24.343   2.541  53.402  1.00  0.00    -0.268 OA
HETATM    3  N2  UNL     1      24.007   0.382  53.145  1.00  0.00    -0.323 N 
HETATM    4  H9  UNL     1      24.289  -0.628  53.128  1.00  0.00     0.169 HD
ENDROOT
BRANCH   1   5
HETATM    5  C5  UNL     1      26.315   1.144  53.758  1.00  0.00     0.054 A 
HETATM    6  C4  UNL     1      27.230   1.824  53.089  1.00  0.00     0.042 A 
HETATM    7  C17 UNL     1      28.646   1.574  53.359  1.00  0.00     0.046 A 
HETATM    8  C16 UNL     1      29.070   0.686  54.253  1.00  0.00     0.085 A 
HETATM    9  N4  UNL     1      28.035   0.006  54.919  1.00  0.00    -0.394 N 
HETATM   10  C15 UNL     1      26.606   0.130  54.789  1.00  0.00     0.165 A 
HETATM   11  H20 UNL     1      28.239  -0.730  55.648  1.00  0.00     0.159 HD
BRANCH   6  12
HETATM   12  N1  UNL     1      27.002   2.811  52.093  1.00  0.00    -0.389 N 
HETATM   13  H8  UNL     1      27.057   3.845  52.334  1.00  0.00     0.159 HD
BRANCH  12  14
HETATM   14  C3  UNL     1      26.694   2.482  50.738  1.00  0.00     0.119 C 
BRANCH  14  15
HETATM   15  C2  UNL     1      25.933   3.631  50.098  1.00  0.00     0.015 C 
HETATM   16  C1  UNL     1      24.478   3.195  49.942  1.00  0.00     0.006 C 
ENDBRANCH  14  15
ENDBRANCH  12  14
ENDBRANCH   6  12
ENDBRANCH   1   5
BRANCH   3  17
HETATM   17  C7  UNL     1      22.627   0.395  52.817  1.00  0.00     0.035 A 
HETATM   18  C8  UNL     1      22.138   0.646  51.553  1.00  0.00     0.032 A 
HETATM   19  C9  UNL     1      20.784   0.651  51.283  1.00  0.00     0.031 A 
HETATM   20  C10 UNL     1      19.847   0.404  52.264  1.00  0.00     0.028 A 
HETATM   21  C13 UNL     1      20.341   0.154  53.527  1.00  0.00     0.031 A 
HETATM   22  C14 UNL     1      21.688   0.148  53.802  1.00  0.00     0.032 A 
BRANCH  20  23
HETATM   23  N3  UNL     1      18.463   0.404  52.020  1.00  0.00    -0.384 N 
HETATM   24  H12 UNL     1      17.838  -0.221  52.558  1.00  0.00     0.160 HD
BRANCH  23  25
HETATM   25  C11 UNL     1      17.877   1.265  51.023  1.00  0.00     0.189 C 
BRANCH  25  26
HETATM   26  C12 UNL     1      17.590   2.634  51.537  1.00  0.00     0.250 C 
HETATM   27  O2  UNL     1      18.335   3.527  51.933  1.00  0.00    -0.305 OA
ENDBRANCH  25  26
ENDBRANCH  23  25
ENDBRANCH  20  23
ENDBRANCH   3  17
TORSDOF 8
ENDMDL
MODEL 4
REMARK VINA RESULT:      -6.8      2.958      7.842
REMARK  8 active torsions:
REMARK  status: ('A' for Active; 'I' for Inactive)
REMARK    1  A    between atoms: C2_2  and  C3_3 
REMARK    2  A    between atoms: C3_3  and  N1_4 
REMARK    3  A    between atoms: N1_4  and  C4_5 
REMARK    4  A    between atoms: C5_6  and  C6_7 
REMARK       I    between atoms: C6_7  and  N2_9 
REMARK    5  A    between atoms: N2_9  and  C7_10 
REMARK    6  A    between atoms: C10_13  and  N3_14 
REMARK    7  A    between atoms: N3_14  and  C11_15 
REMARK    8  A    between atoms: C11_15  and  C12_16 
ROOT
HETATM    1  C6  UNL     1      23.961   2.280  52.258  1.00  0.00     0.256 C 
HETATM    2  O1  UNL     1      24.584   3.097  52.978  1.00  0.00    -0.268 OA
HETATM    3  N2  UNL     1      24.205   2.544  50.883  1.00  0.00    -0.323 N 
HETATM    4  H9  UNL     1      23.778   1.973  50.114  1.00  0.00     0.169 HD
ENDROOT
BRANCH   1   5
HETATM    5  C5  UNL     1      23.091   1.188  52.673  1.00  0.00     0.054 A 
HETATM    6  C4  UNL     1      23.640   0.220  53.387  1.00  0.00     0.042 A 
HETATM    7  C17 UNL     1      22.810  -0.902  53.826  1.00  0.00     0.046 A 
HETATM    8  C16 UNL     1      21.515  -1.005  53.541  1.00  0.00     0.085 A 
HETATM    9  N4  UNL     1      21.010   0.063  52.779  1.00  0.00    -0.394 N 
HETATM   10  C15 UNL     1      21.671   1.240  52.275  1.00  0.00     0.165 A 
HETATM   11  H20 UNL     1      19.998   0.098  52.480  1.00  0.00     0.159 HD
BRANCH   6  12
HETATM   12  N1  UNL     1      24.995   0.127  53.799  1.00  0.00    -0.389 N 
HETATM   13  H8  UNL     1      25.384   0.789  54.534  1.00  0.00     0.159 HD
BRANCH  12  14
HETATM   14  C3  UNL     1      25.898  -0.843  53.266  1.00  0.00     0.119 C 
BRANCH  14  15
HETATM   15  C2  UNL     1      26.637  -0.249  52.079  1.00  0.00     0.015 C 
HETATM   16  C1  UNL     1      27.371   0.998  52.565  1.00  0.00     0.006 C 
ENDBRANCH  14  15
ENDBRANCH  12  14
ENDBRANCH   6  12
ENDBRANCH   1   5
BRANCH   3  17
HETATM   17  C7  UNL     1      24.995   3.525  50.233  1.00  0.00     0.035 A 
HETATM   18  C8  UNL     1      26.282   3.309  49.788  1.00  0.00     0.032 A 
HETATM   19  C9  UNL     1      27.012   4.299  49.162  1.00  0.00     0.031 A 
HETATM   20  C10 UNL     1      26.494   5.559  48.947  1.00  0.00     0.028 A 
HETATM   21  C13 UNL     1      25.207   5.771  49.393  1.00  0.00     0.031 A 
HETATM   22  C14 UNL     1      24.474   4.789  50.017  1.00  0.00     0.032 A 
BRANCH  20  23
HETATM   23  N3  UNL     1      27.215   6.586  48.315  1.00  0.00    -0.384 N 
HETATM   24  H12 UNL     1      28.059   6.366  47.758  1.00  0.00     0.160 HD
BRANCH  23  25
HETATM   25  C11 UNL     1      26.807   7.965  48.422  1.00  0.00     0.189 C 
BRANCH  25  26
HETATM   26  C12 UNL     1      27.477   8.682  49.542  1.00  0.00     0.250 C 
HETATM   27  O2  UNL     1      27.105   9.615  50.249  1.00  0.00    -0.305 OA
ENDBRANCH  25  26
ENDBRANCH  23  25
ENDBRANCH  20  23
ENDBRANCH   3  17
TORSDOF 8
ENDMDL
MODEL 5
REMARK VINA RESULT:      -6.8      3.436      6.232
REMARK  8 active torsions:
REMARK  status: ('A' for Active; 'I' for Inactive)
REMARK    1  A    between atoms: C2_2  and  C3_3 
REMARK    2  A    between atoms: C3_3  and  N1_4 
REMARK    3  A    between atoms: N1_4  and  C4_5 
REMARK    4  A    between atoms: C5_6  and  C6_7 
REMARK       I    between atoms: C6_7  and  N2_9 
REMARK    5  A    between atoms: N2_9  and  C7_10 
REMARK    6  A    between atoms: C10_13  and  N3_14 
REMARK    7  A    between atoms: N3_14  and  C11_15 
REMARK    8  A    between atoms: C11_15  and  C12_16 
ROOT
HETATM    1  C6  UNL     1      26.087   4.291  49.438  1.00  0.00     0.256 C 
HETATM    2  O1  UNL     1      25.008   3.759  49.083  1.00  0.00    -0.268 OA
HETATM    3  N2  UNL     1      26.580   3.674  50.619  1.00  0.00    -0.323 N 
HETATM    4  H9  UNL     1      27.474   3.972  51.081  1.00  0.00     0.169 HD
ENDROOT
BRANCH   1   5
HETATM    5  C5  UNL     1      26.810   5.383  48.800  1.00  0.00     0.054 A 
HETATM    6  C4  UNL     1      26.116   6.467  48.495  1.00  0.00     0.042 A 
HETATM    7  C17 UNL     1      26.794   7.592  47.850  1.00  0.00     0.046 A 
HETATM    8  C16 UNL     1      28.089   7.584  47.547  1.00  0.00     0.085 A 
HETATM    9  N4  UNL     1      28.753   6.397  47.904  1.00  0.00    -0.394 N 
HETATM   10  C15 UNL     1      28.252   5.208  48.546  1.00  0.00     0.165 A 
HETATM   11  H20 UNL     1      29.782   6.261  47.711  1.00  0.00     0.159 HD
BRANCH   6  12
HETATM   12  N1  UNL     1      24.731   6.686  48.723  1.00  0.00    -0.389 N 
HETATM   13  H8  UNL     1      24.001   6.090  48.231  1.00  0.00     0.159 HD
BRANCH  12  14
HETATM   14  C3  UNL     1      24.246   7.696  49.607  1.00  0.00     0.119 C 
BRANCH  14  15
HETATM   15  C2  UNL     1      24.341   7.203  51.042  1.00  0.00     0.015 C 
HETATM   16  C1  UNL     1      23.318   6.083  51.217  1.00  0.00     0.006 C 
ENDBRANCH  14  15
ENDBRANCH  12  14
ENDBRANCH   6  12
ENDBRANCH   1   5
BRANCH   3  17
HETATM   17  C7  UNL     1      26.076   2.616  51.416  1.00  0.00     0.035 A 
HETATM   18  C8  UNL     1      26.675   1.379  51.523  1.00  0.00     0.032 A 
HETATM   19  C9  UNL     1      26.143   0.378  52.311  1.00  0.00     0.031 A 
HETATM   20  C10 UNL     1      24.983   0.560  53.034  1.00  0.00     0.028 A 
HETATM   21  C13 UNL     1      24.387   1.799  52.923  1.00  0.00     0.031 A 
HETATM   22  C14 UNL     1      24.912   2.800  52.141  1.00  0.00     0.032 A 
BRANCH  20  23
HETATM   23  N3  UNL     1      24.418  -0.440  53.842  1.00  0.00    -0.384 N 
HETATM   24  H12 UNL     1      24.967  -0.863  54.611  1.00  0.00     0.160 HD
BRANCH  23  25
HETATM   25  C11 UNL     1      23.071  -0.907  53.627  1.00  0.00     0.189 C 
BRANCH  25  26
HETATM   26  C12 UNL     1      22.342  -1.176  54.898  1.00  0.00     0.250 C 
HETATM   27  O2  UNL     1      21.398  -1.920  55.152  1.00  0.00    -0.305 OA
ENDBRANCH  25  26
ENDBRANCH  23  25
ENDBRANCH  20  23
ENDBRANCH   3  17
TORSDOF 8
ENDMDL
MODEL 6
REMARK VINA RESULT:      -6.5      2.922      8.028
REMARK  8 active torsions:
REMARK  status: ('A' for Active; 'I' for Inactive)
REMARK    1  A    between atoms: C2_2  and  C3_3 
REMARK    2  A    between atoms: C3_3  and  N1_4 
REMARK    3  A    between atoms: N1_4  and  C4_5 
REMARK    4  A    between atoms: C5_6  and  C6_7 
REMARK       I    between atoms: C6_7  and  N2_9 
REMARK    5  A    between atoms: N2_9  and  C7_10 
REMARK    6  A    between atoms: C10_13  and  N3_14 
REMARK    7  A    between atoms: N3_14  and  C11_15 
REMARK    8  A    between atoms: C11_15  and  C12_16 
ROOT
HETATM    1  C6  UNL     1      23.091   1.550  51.646  1.00  0.00     0.256 C 
HETATM    2  O1  UNL     1      22.900   1.439  50.411  1.00  0.00    -0.268 OA
HETATM    3  N2  UNL     1      24.095   2.521  51.907  1.00  0.00    -0.323 N 
HETATM    4  H9  UNL     1      24.404   2.766  52.879  1.00  0.00     0.169 HD
ENDROOT
BRANCH   1   5
HETATM    5  C5  UNL     1      22.432   0.836  52.731  1.00  0.00     0.054 A 
HETATM    6  C4  UNL     1      23.144  -0.077  53.370  1.00  0.00     0.042 A 
HETATM    7  C17 UNL     1      22.528  -0.826  54.466  1.00  0.00     0.046 A 
HETATM    8  C16 UNL     1      21.272  -0.636  54.861  1.00  0.00     0.085 A 
HETATM    9  N4  UNL     1      20.586   0.350  54.131  1.00  0.00    -0.394 N 
HETATM   10  C15 UNL     1      21.032   1.181  53.042  1.00  0.00     0.165 A 
HETATM   11  H20 UNL     1      19.579   0.591  54.340  1.00  0.00     0.159 HD
BRANCH   6  12
HETATM   12  N1  UNL     1      24.492  -0.442  53.113  1.00  0.00    -0.389 N 
HETATM   13  H8  UNL     1      24.807  -0.692  52.129  1.00  0.00     0.159 HD
BRANCH  12  14
HETATM   14  C3  UNL     1      25.486  -0.493  54.138  1.00  0.00     0.119 C 
BRANCH  14  15
HETATM   15  C2  UNL     1      26.867  -0.501  53.505  1.00  0.00     0.015 C 
HETATM   16  C1  UNL     1      26.687  -0.389  51.993  1.00  0.00     0.006 C 
ENDBRANCH  14  15
ENDBRANCH  12  14
ENDBRANCH   6  12
ENDBRANCH   1   5
BRANCH   3  17
HETATM   17  C7  UNL     1      24.871   3.336  51.046  1.00  0.00     0.035 A 
HETATM   18  C8  UNL     1      26.042   2.928  50.444  1.00  0.00     0.032 A 
HETATM   19  C9  UNL     1      26.764   3.760  49.614  1.00  0.00     0.031 A 
HETATM   20  C10 UNL     1      26.354   5.048  49.340  1.00  0.00     0.028 A 
HETATM   21  C13 UNL     1      25.182   5.453  49.944  1.00  0.00     0.031 A 
HETATM   22  C14 UNL     1      24.458   4.628  50.772  1.00  0.00     0.032 A 
BRANCH  20  23
HETATM   23  N3  UNL     1      27.069   5.919  48.502  1.00  0.00    -0.384 N 
HETATM   24  H12 UNL     1      26.583   6.691  48.014  1.00  0.00     0.160 HD
BRANCH  23  25
HETATM   25  C11 UNL     1      28.487   5.766  48.295  1.00  0.00     0.189 C 
BRANCH  25  26
HETATM   26  C12 UNL     1      29.175   7.059  48.022  1.00  0.00     0.250 C 
HETATM   27  O2  UNL     1      29.571   7.945  48.777  1.00  0.00    -0.305 OA
ENDBRANCH  25  26
ENDBRANCH  23  25
ENDBRANCH  20  23
ENDBRANCH   3  17
TORSDOF 8
ENDMDL
MODEL 7
REMARK VINA RESULT:      -6.5      3.677      8.468
REMARK  8 active torsions:
REMARK  status: ('A' for Active; 'I' for Inactive)
REMARK    1  A    between atoms: C2_2  and  C3_3 
REMARK    2  A    between atoms: C3_3  and  N1_4 
REMARK    3  A    between atoms: N1_4  and  C4_5 
REMARK    4  A    between atoms: C5_6  and  C6_7 
REMARK       I    between atoms: C6_7  and  N2_9 
REMARK    5  A    between atoms: N2_9  and  C7_10 
REMARK    6  A    between atoms: C10_13  and  N3_14 
REMARK    7  A    between atoms: N3_14  and  C11_15 
REMARK    8  A    between atoms: C11_15  and  C12_16 
ROOT
HETATM    1  C6  UNL     1      25.612   2.280  51.885  1.00  0.00     0.256 C 
HETATM    2  O1  UNL     1      26.831   2.468  52.116  1.00  0.00    -0.268 OA
HETATM    3  N2  UNL     1      25.163   3.149  50.855  1.00  0.00    -0.323 N 
HETATM    4  H9  UNL     1      24.172   3.151  50.509  1.00  0.00     0.169 HD
ENDROOT
BRANCH   1   5
HETATM    5  C5  UNL     1      24.706   1.335  52.522  1.00  0.00     0.054 A 
HETATM    6  C4  UNL     1      25.252   0.353  53.219  1.00  0.00     0.042 A 
HETATM    7  C17 UNL     1      24.386  -0.626  53.876  1.00  0.00     0.046 A 
HETATM    8  C16 UNL     1      23.058  -0.582  53.810  1.00  0.00     0.085 A 
HETATM    9  N4  UNL     1      22.558   0.490  53.050  1.00  0.00    -0.394 N 
HETATM   10  C15 UNL     1      23.255   1.539  52.351  1.00  0.00     0.165 A 
HETATM   11  H20 UNL     1      21.521   0.633  52.914  1.00  0.00     0.159 HD
BRANCH   6  12
HETATM   12  N1  UNL     1      26.638   0.116  53.418  1.00  0.00    -0.389 N 
HETATM   13  H8  UNL     1      27.222   0.780  54.008  1.00  0.00     0.159 HD
BRANCH  12  14
HETATM   14  C3  UNL     1      27.317  -1.005  52.852  1.00  0.00     0.119 C 
BRANCH  14  15
HETATM   15  C2  UNL     1      28.766  -1.005  53.309  1.00  0.00     0.015 C 
HETATM   16  C1  UNL     1      29.056   0.356  53.937  1.00  0.00     0.006 C 
ENDBRANCH  14  15
ENDBRANCH  12  14
ENDBRANCH   6  12
ENDBRANCH   1   5
BRANCH   3  17
HETATM   17  C7  UNL     1      25.833   4.138  50.091  1.00  0.00     0.035 A 
HETATM   18  C8  UNL     1      26.944   3.891  49.314  1.00  0.00     0.032 A 
HETATM   19  C9  UNL     1      27.564   4.889  48.590  1.00  0.00     0.031 A 
HETATM   20  C10 UNL     1      27.104   6.189  48.603  1.00  0.00     0.028 A 
HETATM   21  C13 UNL     1      25.992   6.432  49.381  1.00  0.00     0.031 A 
HETATM   22  C14 UNL     1      25.370   5.442  50.105  1.00  0.00     0.032 A 
BRANCH  20  23
HETATM   23  N3  UNL     1      27.715   7.226  47.878  1.00  0.00    -0.384 N 
HETATM   24  H12 UNL     1      27.565   7.308  46.857  1.00  0.00     0.160 HD
BRANCH  23  25
HETATM   25  C11 UNL     1      28.561   8.197  48.525  1.00  0.00     0.189 C 
BRANCH  25  26
HETATM   26  C12 UNL     1      29.987   7.768  48.593  1.00  0.00     0.250 C 
HETATM   27  O2  UNL     1      30.641   7.005  47.887  1.00  0.00    -0.305 OA
ENDBRANCH  25  26
ENDBRANCH  23  25
ENDBRANCH  20  23
ENDBRANCH   3  17
TORSDOF 8
ENDMDL
MODEL 8
REMARK VINA RESULT:      -6.3      2.636      8.583
REMARK  8 active torsions:
REMARK  status: ('A' for Active; 'I' for Inactive)
REMARK    1  A    between atoms: C2_2  and  C3_3 
REMARK    2  A    between atoms: C3_3  and  N1_4 
REMARK    3  A    between atoms: N1_4  and  C4_5 
REMARK    4  A    between atoms: C5_6  and  C6_7 
REMARK       I    between atoms: C6_7  and  N2_9 
REMARK    5  A    between atoms: N2_9  and  C7_10 
REMARK    6  A    between atoms: C10_13  and  N3_14 
REMARK    7  A    between atoms: N3_14  and  C11_15 
REMARK    8  A    between atoms: C11_15  and  C12_16 
ROOT
HETATM    1  C6  UNL     1      20.078   0.058  52.091  1.00  0.00     0.256 C 
HETATM    2  O1  UNL     1      20.700   0.128  51.004  1.00  0.00    -0.268 OA
HETATM    3  N2  UNL     1      20.973   0.204  53.185  1.00  0.00    -0.323 N 
HETATM    4  H9  UNL     1      20.654   0.177  54.184  1.00  0.00     0.169 HD
ENDROOT
BRANCH   1   5
HETATM    5  C5  UNL     1      18.651  -0.140  52.307  1.00  0.00     0.054 A 
HETATM    6  C4  UNL     1      17.829   0.702  51.703  1.00  0.00     0.042 A 
HETATM    7  C17 UNL     1      16.386   0.549  51.890  1.00  0.00     0.046 A 
HETATM    8  C16 UNL     1      15.846  -0.403  52.646  1.00  0.00     0.085 A 
HETATM    9  N4  UNL     1      16.788  -1.254  53.251  1.00  0.00    -0.394 N 
HETATM   10  C15 UNL     1      18.226  -1.257  53.171  1.00  0.00     0.165 A 
HETATM   11  H20 UNL     1      16.489  -2.047  53.882  1.00  0.00     0.159 HD
BRANCH   6  12
HETATM   12  N1  UNL     1      18.186   1.787  50.860  1.00  0.00    -0.389 N 
HETATM   13  H8  UNL     1      19.206   1.988  50.639  1.00  0.00     0.159 HD
BRANCH  12  14
HETATM   14  C3  UNL     1      17.218   2.654  50.267  1.00  0.00     0.119 C 
BRANCH  14  15
HETATM   15  C2  UNL     1      17.391   4.060  50.818  1.00  0.00     0.015 C 
HETATM   16  C1  UNL     1      16.327   4.272  51.893  1.00  0.00     0.006 C 
ENDBRANCH  14  15
ENDBRANCH  12  14
ENDBRANCH   6  12
ENDBRANCH   1   5
BRANCH   3  17
HETATM   17  C7  UNL     1      22.376   0.403  53.241  1.00  0.00     0.035 A 
HETATM   18  C8  UNL     1      22.999   1.591  52.922  1.00  0.00     0.032 A 
HETATM   19  C9  UNL     1      24.370   1.735  52.990  1.00  0.00     0.031 A 
HETATM   20  C10 UNL     1      25.192   0.698  53.379  1.00  0.00     0.028 A 
HETATM   21  C13 UNL     1      24.564  -0.488  53.696  1.00  0.00     0.031 A 
HETATM   22  C14 UNL     1      23.199  -0.638  53.631  1.00  0.00     0.032 A 
BRANCH  20  23
HETATM   23  N3  UNL     1      26.590   0.815  53.454  1.00  0.00    -0.384 N 
HETATM   24  H12 UNL     1      27.113   1.307  52.709  1.00  0.00     0.160 HD
BRANCH  23  25
HETATM   25  C11 UNL     1      27.331   0.260  54.558  1.00  0.00     0.189 C 
BRANCH  25  26
HETATM   26  C12 UNL     1      28.750   0.713  54.588  1.00  0.00     0.250 C 
HETATM   27  O2  UNL     1      29.253   1.793  54.888  1.00  0.00    -0.305 OA
ENDBRANCH  25  26
ENDBRANCH  23  25
ENDBRANCH  20  23
ENDBRANCH   3  17
TORSDOF 8
ENDMDL
MODEL 9
REMARK VINA RESULT:      -6.2      2.875      8.449
REMARK  8 active torsions:
REMARK  status: ('A' for Active; 'I' for Inactive)
REMARK    1  A    between atoms: C2_2  and  C3_3 
REMARK    2  A    between atoms: C3_3  and  N1_4 
REMARK    3  A    between atoms: N1_4  and  C4_5 
REMARK    4  A    between atoms: C5_6  and  C6_7 
REMARK       I    between atoms: C6_7  and  N2_9 
REMARK    5  A    between atoms: N2_9  and  C7_10 
REMARK    6  A    between atoms: C10_13  and  N3_14 
REMARK    7  A    between atoms: N3_14  and  C11_15 
REMARK    8  A    between atoms: C11_15  and  C12_16 
ROOT
HETATM    1  C6  UNL     1      23.491   1.462  51.629  1.00  0.00     0.256 C 
HETATM    2  O1  UNL     1      23.006   1.578  50.478  1.00  0.00    -0.268 OA
HETATM    3  N2  UNL     1      24.570   2.369  51.807  1.00  0.00    -0.323 N 
HETATM    4  H9  UNL     1      25.112   2.433  52.703  1.00  0.00     0.169 HD
ENDROOT
BRANCH   1   5
HETATM    5  C5  UNL     1      23.079   0.561  52.697  1.00  0.00     0.054 A 
HETATM    6  C4  UNL     1      21.780   0.417  52.896  1.00  0.00     0.042 A 
HETATM    7  C17 UNL     1      21.314  -0.473  53.959  1.00  0.00     0.046 A 
HETATM    8  C16 UNL     1      22.137  -1.156  54.750  1.00  0.00     0.085 A 
HETATM    9  N4  UNL     1      23.500  -0.947  54.473  1.00  0.00    -0.394 N 
HETATM   10  C15 UNL     1      24.130  -0.125  53.473  1.00  0.00     0.165 A 
HETATM   11  H20 UNL     1      24.256  -1.425  55.034  1.00  0.00     0.159 HD
BRANCH   6  12
HETATM   12  N1  UNL     1      20.731   1.049  52.176  1.00  0.00    -0.389 N 
HETATM   13  H8  UNL     1      20.603   2.103  52.221  1.00  0.00     0.159 HD
BRANCH  12  14
HETATM   14  C3  UNL     1      19.807   0.323  51.365  1.00  0.00     0.119 C 
BRANCH  14  15
HETATM   15  C2  UNL     1      18.388   0.627  51.816  1.00  0.00     0.015 C 
HETATM   16  C1  UNL     1      17.675  -0.704  52.038  1.00  0.00     0.006 C 
ENDBRANCH  14  15
ENDBRANCH  12  14
ENDBRANCH   6  12
ENDBRANCH   1   5
BRANCH   3  17
HETATM   17  C7  UNL     1      25.153   3.329  50.942  1.00  0.00     0.035 A 
HETATM   18  C8  UNL     1      24.664   4.606  50.765  1.00  0.00     0.032 A 
HETATM   19  C9  UNL     1      25.266   5.504  49.908  1.00  0.00     0.031 A 
HETATM   20  C10 UNL     1      26.390   5.174  49.181  1.00  0.00     0.028 A 
HETATM   21  C13 UNL     1      26.875   3.896  49.359  1.00  0.00     0.031 A 
HETATM   22  C14 UNL     1      26.280   2.996  50.212  1.00  0.00     0.032 A 
BRANCH  20  23
HETATM   23  N3  UNL     1      27.022   6.067  48.299  1.00  0.00    -0.384 N 
HETATM   24  H12 UNL     1      26.459   6.684  47.688  1.00  0.00     0.160 HD
BRANCH  23  25
HETATM   25  C11 UNL     1      28.459   6.150  48.217  1.00  0.00     0.189 C 
BRANCH  25  26
HETATM   26  C12 UNL     1      28.968   7.540  48.380  1.00  0.00     0.250 C 
HETATM   27  O2  UNL     1      30.041   7.970  48.797  1.00  0.00    -0.305 OA
ENDBRANCH  25  26
ENDBRANCH  23  25
ENDBRANCH  20  23
ENDBRANCH   3  17
TORSDOF 8
ENDMDL
