MODEL 1
REMARK VINA RESULT:      -8.0      0.000      0.000
REMARK  6 active torsions:
REMARK  status: ('A' for Active; 'I' for Inactive)
REMARK    1  A    between atoms: C2_2  and  C3_3 
REMARK    2  A    between atoms: C3_3  and  C4_4 
REMARK    3  A    between atoms: C4_4  and  C5_6 
REMARK    4  A    between atoms: C5_6  and  C6_7 
REMARK    5  A    between atoms: C6_7  and  N1_8 
REMARK    6  A    between atoms: N1_8  and  C7_9 
ROOT
HETATM    1  C7  UNL     1      26.289   1.855  52.782  1.00  0.00     0.156 A 
HETATM    2  N2  UNL     1      27.408   1.473  53.417  1.00  0.00    -0.222 NA
HETATM    3  C8  UNL     1      27.369   0.427  54.254  1.00  0.00     0.238 A 
HETATM    4  N3  UNL     1      26.274  -0.318  54.539  1.00  0.00    -0.215 NA
HETATM    5  C9  UNL     1      25.131   0.037  53.919  1.00  0.00     0.202 A 
HETATM    6  C10 UNL     1      25.134   1.114  53.046  1.00  0.00     0.128 A 
HETATM    7  N4  UNL     1      24.034   1.635  52.287  1.00  0.00    -0.379 N 
HETATM    8  C11 UNL     1      22.648   1.685  52.709  1.00  0.00     0.161 C 
HETATM    9  C12 UNL     1      22.165   0.446  53.320  1.00  0.00    -0.004 A 
HETATM   10  C13 UNL     1      20.778   0.388  53.150  1.00  0.00     0.054 A 
HETATM   11  C14 UNL     1      19.999  -0.654  53.609  1.00  0.00     0.117 A 
HETATM   12  F1  UNL     1      18.661  -0.650  53.411  1.00  0.00    -0.206 F 
HETATM   13  C15 UNL     1      20.594  -1.698  54.271  1.00  0.00     0.045 A 
HETATM   14  C16 UNL     1      21.960  -1.684  54.463  1.00  0.00     0.041 A 
HETATM   15  C17 UNL     1      22.705  -0.629  53.991  1.00  0.00     0.086 A 
HETATM   16  O1  UNL     1      24.052  -0.789  54.276  1.00  0.00    -0.289 OA
HETATM   17  H9  UNL     1      24.403   1.981  51.349  1.00  0.00     0.160 HD
ENDROOT
BRANCH   1  18
HETATM   18  N1  UNL     1      26.323   2.992  51.895  1.00  0.00    -0.369 N 
HETATM   19  H7  UNL     1      26.142   3.999  52.060  1.00  0.00     0.161 HD
BRANCH  18  20
HETATM   20  C6  UNL     1      26.686   2.705  50.511  1.00  0.00     0.150 C 
BRANCH  20  21
HETATM   21  C5  UNL     1      25.880   3.507  49.562  1.00  0.00     0.012 C 
BRANCH  21  22
HETATM   22  C4  UNL     1      26.096   4.783  49.355  1.00  0.00     0.015 C 
HETATM   23 BR1  UNL     1      25.105   6.176  50.195  1.00  0.00    -0.051 Br
BRANCH  22  24
HETATM   24  C3  UNL     1      26.906   5.708  48.634  1.00  0.00     0.069 C 
BRANCH  24  25
HETATM   25  C2  UNL     1      28.197   5.488  48.467  1.00  0.00    -0.154 C 
HETATM   26  C1  UNL     1      29.468   5.448  48.095  1.00  0.00     0.096 C 
ENDBRANCH  24  25
ENDBRANCH  22  24
ENDBRANCH  21  22
ENDBRANCH  20  21
ENDBRANCH  18  20
ENDBRANCH   1  18
TORSDOF 6
ENDMDL
MODEL 2
REMARK VINA RESULT:      -8.0      3.272      5.162
REMARK  6 active torsions:
REMARK  status: ('A' for Active; 'I' for Inactive)
REMARK    1  A    between atoms: C2_2  and  C3_3 
REMARK    2  A    between atoms: C3_3  and  C4_4 
REMARK    3  A    between atoms: C4_4  and  C5_6 
REMARK    4  A    between atoms: C5_6  and  C6_7 
REMARK    5  A    between atoms: C6_7  and  N1_8 
REMARK    6  A    between atoms: N1_8  and  C7_9 
ROOT
HETATM    1  C7  UNL     1      23.952   2.943  52.806  1.00  0.00     0.156 A 
HETATM    2  N2  UNL     1      22.768   2.520  52.337  1.00  0.00    -0.222 NA
HETATM    3  C8  UNL     1      22.599   1.224  52.040  1.00  0.00     0.238 A 
HETATM    4  N3  UNL     1      23.534   0.254  52.170  1.00  0.00    -0.215 NA
HETATM    5  C9  UNL     1      24.738   0.642  52.639  1.00  0.00     0.202 A 
HETATM    6  C10 UNL     1      24.948   1.975  52.957  1.00  0.00     0.128 A 
HETATM    7  N4  UNL     1      26.142   2.577  53.476  1.00  0.00    -0.379 N 
HETATM    8  C11 UNL     1      27.505   2.199  53.155  1.00  0.00     0.161 C 
HETATM    9  C12 UNL     1      27.742   0.755  53.171  1.00  0.00    -0.004 A 
HETATM   10  C13 UNL     1      29.099   0.539  53.429  1.00  0.00     0.054 A 
HETATM   11  C14 UNL     1      29.667  -0.715  53.512  1.00  0.00     0.117 A 
HETATM   12  F1  UNL     1      30.988  -0.855  53.765  1.00  0.00    -0.206 F 
HETATM   13  C15 UNL     1      28.879  -1.823  53.336  1.00  0.00     0.045 A 
HETATM   14  C16 UNL     1      27.534  -1.661  53.079  1.00  0.00     0.041 A 
HETATM   15  C17 UNL     1      27.001  -0.394  53.003  1.00  0.00     0.086 A 
HETATM   16  O1  UNL     1      25.641  -0.429  52.739  1.00  0.00    -0.289 OA
HETATM   17  H9  UNL     1      25.864   3.356  54.148  1.00  0.00     0.160 HD
ENDROOT
BRANCH   1  18
HETATM   18  N1  UNL     1      24.144   4.340  53.108  1.00  0.00    -0.369 N 
HETATM   19  H7  UNL     1      24.755   4.817  53.796  1.00  0.00     0.161 HD
BRANCH  18  20
HETATM   20  C6  UNL     1      23.359   5.275  52.308  1.00  0.00     0.150 C 
BRANCH  20  21
HETATM   21  C5  UNL     1      24.187   5.926  51.268  1.00  0.00     0.012 C 
BRANCH  21  22
HETATM   22  C4  UNL     1      24.559   5.311  50.172  1.00  0.00     0.015 C 
HETATM   23 BR1  UNL     1      23.703   5.541  48.486  1.00  0.00    -0.051 Br
BRANCH  22  24
HETATM   24  C3  UNL     1      25.500   4.383  49.640  1.00  0.00     0.069 C 
BRANCH  24  25
HETATM   25  C2  UNL     1      26.603   4.804  49.049  1.00  0.00    -0.154 C 
HETATM   26  C1  UNL     1      27.824   5.008  48.578  1.00  0.00     0.096 C 
ENDBRANCH  24  25
ENDBRANCH  22  24
ENDBRANCH  21  22
ENDBRANCH  20  21
ENDBRANCH  18  20
ENDBRANCH   1  18
TORSDOF 6
ENDMDL
MODEL 3
REMARK VINA RESULT:      -7.9      3.249      4.658
REMARK  6 active torsions:
REMARK  status: ('A' for Active; 'I' for Inactive)
REMARK    1  A    between atoms: C2_2  and  C3_3 
REMARK    2  A    between atoms: C3_3  and  C4_4 
REMARK    3  A    between atoms: C4_4  and  C5_6 
REMARK    4  A    between atoms: C5_6  and  C6_7 
REMARK    5  A    between atoms: C6_7  and  N1_8 
REMARK    6  A    between atoms: N1_8  and  C7_9 
ROOT
HETATM    1  C7  UNL     1      23.559  -0.217  53.385  1.00  0.00     0.156 A 
HETATM    2  N2  UNL     1      24.151  -0.709  54.484  1.00  0.00    -0.222 NA
HETATM    3  C8  UNL     1      23.433  -1.431  55.355  1.00  0.00     0.238 A 
HETATM    4  N3  UNL     1      22.117  -1.732  55.239  1.00  0.00    -0.215 NA
HETATM    5  C9  UNL     1      21.489  -1.255  54.146  1.00  0.00     0.202 A 
HETATM    6  C10 UNL     1      22.201  -0.504  53.223  1.00  0.00     0.128 A 
HETATM    7  N4  UNL     1      21.720   0.076  52.002  1.00  0.00    -0.379 N 
HETATM    8  C11 UNL     1      20.397   0.626  51.775  1.00  0.00     0.161 C 
HETATM    9  C12 UNL     1      19.309  -0.212  52.280  1.00  0.00    -0.004 A 
HETATM   10  C13 UNL     1      18.158   0.076  51.539  1.00  0.00     0.054 A 
HETATM   11  C14 UNL     1      16.942  -0.539  51.754  1.00  0.00     0.117 A 
HETATM   12  F1  UNL     1      15.866  -0.215  51.001  1.00  0.00    -0.206 F 
HETATM   13  C15 UNL     1      16.832  -1.485  52.741  1.00  0.00     0.045 A 
HETATM   14  C16 UNL     1      17.940  -1.802  53.498  1.00  0.00     0.041 A 
HETATM   15  C17 UNL     1      19.137  -1.169  53.256  1.00  0.00     0.086 A 
HETATM   16  O1  UNL     1      20.132  -1.616  54.111  1.00  0.00    -0.289 OA
HETATM   17  H9  UNL     1      22.499   0.035  51.277  1.00  0.00     0.160 HD
ENDROOT
BRANCH   1  18
HETATM   18  N1  UNL     1      24.323   0.577  52.455  1.00  0.00    -0.369 N 
HETATM   19  H7  UNL     1      24.504   0.465  51.441  1.00  0.00     0.161 HD
BRANCH  18  20
HETATM   20  C6  UNL     1      24.959   1.767  53.012  1.00  0.00     0.150 C 
BRANCH  20  21
HETATM   21  C5  UNL     1      26.348   1.919  52.521  1.00  0.00     0.012 C 
BRANCH  21  22
HETATM   22  C4  UNL     1      27.373   1.356  53.114  1.00  0.00     0.015 C 
HETATM   23 BR1  UNL     1      28.885   2.319  53.757  1.00  0.00    -0.051 Br
BRANCH  22  24
HETATM   24  C3  UNL     1      27.905   0.106  53.545  1.00  0.00     0.069 C 
BRANCH  24  25
HETATM   25  C2  UNL     1      27.462  -1.028  53.036  1.00  0.00    -0.154 C 
HETATM   26  C1  UNL     1      26.874  -2.003  52.359  1.00  0.00     0.096 C 
ENDBRANCH  24  25
ENDBRANCH  22  24
ENDBRANCH  21  22
ENDBRANCH  20  21
ENDBRANCH  18  20
ENDBRANCH   1  18
TORSDOF 6
ENDMDL
MODEL 4
REMARK VINA RESULT:      -7.8      1.285      2.285
REMARK  6 active torsions:
REMARK  status: ('A' for Active; 'I' for Inactive)
REMARK    1  A    between atoms: C2_2  and  C3_3 
REMARK    2  A    between atoms: C3_3  and  C4_4 
REMARK    3  A    between atoms: C4_4  and  C5_6 
REMARK    4  A    between atoms: C5_6  and  C6_7 
REMARK    5  A    between atoms: C6_7  and  N1_8 
REMARK    6  A    between atoms: N1_8  and  C7_9 
ROOT
HETATM    1  C7  UNL     1      26.559   1.691  52.987  1.00  0.00     0.156 A 
HETATM    2  N2  UNL     1      27.642   1.282  53.665  1.00  0.00    -0.222 NA
HETATM    3  C8  UNL     1      27.539   0.248  54.512  1.00  0.00     0.238 A 
HETATM    4  N3  UNL     1      26.412  -0.457  54.767  1.00  0.00    -0.215 NA
HETATM    5  C9  UNL     1      25.303  -0.074  54.102  1.00  0.00     0.202 A 
HETATM    6  C10 UNL     1      25.372   0.992  53.217  1.00  0.00     0.128 A 
HETATM    7  N4  UNL     1      24.317   1.538  52.414  1.00  0.00    -0.379 N 
HETATM    8  C11 UNL     1      22.918   1.638  52.786  1.00  0.00     0.161 C 
HETATM    9  C12 UNL     1      22.375   0.422  53.394  1.00  0.00    -0.004 A 
HETATM   10  C13 UNL     1      20.994   0.406  53.176  1.00  0.00     0.054 A 
HETATM   11  C14 UNL     1      20.166  -0.604  53.619  1.00  0.00     0.117 A 
HETATM   12  F1  UNL     1      18.836  -0.559  53.374  1.00  0.00    -0.206 F 
HETATM   13  C15 UNL     1      20.703  -1.658  54.313  1.00  0.00     0.045 A 
HETATM   14  C16 UNL     1      22.061  -1.686  54.553  1.00  0.00     0.041 A 
HETATM   15  C17 UNL     1      22.856  -0.661  54.095  1.00  0.00     0.086 A 
HETATM   16  O1  UNL     1      24.186  -0.861  54.430  1.00  0.00    -0.289 OA
HETATM   17  H9  UNL     1      24.729   1.860  51.486  1.00  0.00     0.160 HD
ENDROOT
BRANCH   1  18
HETATM   18  N1  UNL     1      26.660   2.816  52.089  1.00  0.00    -0.369 N 
HETATM   19  H7  UNL     1      26.755   3.832  52.267  1.00  0.00     0.161 HD
BRANCH  18  20
HETATM   20  C6  UNL     1      26.641   2.493  50.665  1.00  0.00     0.150 C 
BRANCH  20  21
HETATM   21  C5  UNL     1      26.163   3.638  49.857  1.00  0.00     0.012 C 
BRANCH  21  22
HETATM   22  C4  UNL     1      24.895   3.955  49.760  1.00  0.00     0.015 C 
HETATM   23 BR1  UNL     1      23.966   5.011  51.044  1.00  0.00    -0.051 Br
BRANCH  22  24
HETATM   24  C3  UNL     1      23.733   3.804  48.949  1.00  0.00     0.069 C 
BRANCH  24  25
HETATM   25  C2  UNL     1      22.878   2.823  49.169  1.00  0.00    -0.154 C 
HETATM   26  C1  UNL     1      22.185   1.696  49.225  1.00  0.00     0.096 C 
ENDBRANCH  24  25
ENDBRANCH  22  24
ENDBRANCH  21  22
ENDBRANCH  20  21
ENDBRANCH  18  20
ENDBRANCH   1  18
TORSDOF 6
ENDMDL
MODEL 5
REMARK VINA RESULT:      -7.8      1.281      2.014
REMARK  6 active torsions:
REMARK  status: ('A' for Active; 'I' for Inactive)
REMARK    1  A    between atoms: C2_2  and  C3_3 
REMARK    2  A    between atoms: C3_3  and  C4_4 
REMARK    3  A    between atoms: C4_4  and  C5_6 
REMARK    4  A    between atoms: C5_6  and  C6_7 
REMARK    5  A    between atoms: C6_7  and  N1_8 
REMARK    6  A    between atoms: N1_8  and  C7_9 
ROOT
HETATM    1  C7  UNL     1      26.356   2.462  51.846  1.00  0.00     0.156 A 
HETATM    2  N2  UNL     1      27.586   2.123  52.262  1.00  0.00    -0.222 NA
HETATM    3  C8  UNL     1      27.744   1.057  53.058  1.00  0.00     0.238 A 
HETATM    4  N3  UNL     1      26.753   0.250  53.506  1.00  0.00    -0.215 NA
HETATM    5  C9  UNL     1      25.503   0.560  53.108  1.00  0.00     0.202 A 
HETATM    6  C10 UNL     1      25.302   1.656  52.283  1.00  0.00     0.128 A 
HETATM    7  N4  UNL     1      24.062   2.138  51.746  1.00  0.00    -0.379 N 
HETATM    8  C11 UNL     1      22.771   2.105  52.405  1.00  0.00     0.161 C 
HETATM    9  C12 UNL     1      22.462   0.829  53.050  1.00  0.00    -0.004 A 
HETATM   10  C13 UNL     1      21.071   0.702  53.124  1.00  0.00     0.054 A 
HETATM   11  C14 UNL     1      20.435  -0.389  53.678  1.00  0.00     0.117 A 
HETATM   12  F1  UNL     1      19.085  -0.449  53.717  1.00  0.00    -0.206 F 
HETATM   13  C15 UNL     1      21.185  -1.416  54.190  1.00  0.00     0.045 A 
HETATM   14  C16 UNL     1      22.562  -1.336  54.141  1.00  0.00     0.041 A 
HETATM   15  C17 UNL     1      23.162  -0.233  53.580  1.00  0.00     0.086 A 
HETATM   16  O1  UNL     1      24.544  -0.330  53.620  1.00  0.00    -0.289 OA
HETATM   17  H9  UNL     1      24.242   2.525  50.770  1.00  0.00     0.160 HD
ENDROOT
BRANCH   1  18
HETATM   18  N1  UNL     1      26.180   3.620  51.005  1.00  0.00    -0.369 N 
HETATM   19  H7  UNL     1      25.708   4.527  51.173  1.00  0.00     0.161 HD
BRANCH  18  20
HETATM   20  C6  UNL     1      26.772   3.533  49.673  1.00  0.00     0.150 C 
BRANCH  20  21
HETATM   21  C5  UNL     1      26.682   4.824  48.955  1.00  0.00     0.012 C 
BRANCH  21  22
HETATM   22  C4  UNL     1      25.670   5.645  49.100  1.00  0.00     0.015 C 
HETATM   23 BR1  UNL     1      25.792   7.331  49.975  1.00  0.00    -0.051 Br
BRANCH  22  24
HETATM   24  C3  UNL     1      24.283   5.816  48.823  1.00  0.00     0.069 C 
BRANCH  24  25
HETATM   25  C2  UNL     1      23.498   4.772  48.632  1.00  0.00    -0.154 C 
HETATM   26  C1  UNL     1      22.913   3.586  48.563  1.00  0.00     0.096 C 
ENDBRANCH  24  25
ENDBRANCH  22  24
ENDBRANCH  21  22
ENDBRANCH  20  21
ENDBRANCH  18  20
ENDBRANCH   1  18
TORSDOF 6
ENDMDL
MODEL 6
REMARK VINA RESULT:      -7.6      4.055      7.822
REMARK  6 active torsions:
REMARK  status: ('A' for Active; 'I' for Inactive)
REMARK    1  A    between atoms: C2_2  and  C3_3 
REMARK    2  A    between atoms: C3_3  and  C4_4 
REMARK    3  A    between atoms: C4_4  and  C5_6 
REMARK    4  A    between atoms: C5_6  and  C6_7 
REMARK    5  A    between atoms: C6_7  and  N1_8 
REMARK    6  A    between atoms: N1_8  and  C7_9 
ROOT
HETATM    1  C7  UNL     1      22.878   2.968  51.300  1.00  0.00     0.156 A 
HETATM    2  N2  UNL     1      21.858   3.599  51.899  1.00  0.00    -0.222 NA
HETATM    3  C8  UNL     1      21.778   4.936  51.836  1.00  0.00     0.238 A 
HETATM    4  N3  UNL     1      22.655   5.751  51.205  1.00  0.00    -0.215 NA
HETATM    5  C9  UNL     1      23.695   5.151  50.590  1.00  0.00     0.202 A 
HETATM    6  C10 UNL     1      23.809   3.770  50.634  1.00  0.00     0.128 A 
HETATM    7  N4  UNL     1      24.825   2.952  50.039  1.00  0.00    -0.379 N 
HETATM    8  C11 UNL     1      26.227   3.294  49.893  1.00  0.00     0.161 C 
HETATM    9  C12 UNL     1      26.461   4.651  49.399  1.00  0.00    -0.004 A 
HETATM   10  C13 UNL     1      27.708   4.675  48.766  1.00  0.00     0.054 A 
HETATM   11  C14 UNL     1      28.243   5.805  48.183  1.00  0.00     0.117 A 
HETATM   12  F1  UNL     1      29.456   5.761  47.586  1.00  0.00    -0.206 F 
HETATM   13  C15 UNL     1      27.533   6.978  48.214  1.00  0.00     0.045 A 
HETATM   14  C16 UNL     1      26.298   7.004  48.828  1.00  0.00     0.041 A 
HETATM   15  C17 UNL     1      25.796   5.857  49.398  1.00  0.00     0.086 A 
HETATM   16  O1  UNL     1      24.549   6.074  49.964  1.00  0.00    -0.289 OA
HETATM   17  H9  UNL     1      24.379   2.040  49.713  1.00  0.00     0.160 HD
ENDROOT
BRANCH   1  18
HETATM   18  N1  UNL     1      22.978   1.531  51.382  1.00  0.00    -0.369 N 
HETATM   19  H7  UNL     1      23.276   0.821  50.688  1.00  0.00     0.161 HD
BRANCH  18  20
HETATM   20  C6  UNL     1      22.610   0.943  52.667  1.00  0.00     0.150 C 
BRANCH  20  21
HETATM   21  C5  UNL     1      23.762   0.258  53.298  1.00  0.00     0.012 C 
BRANCH  21  22
HETATM   22  C4  UNL     1      25.005   0.527  52.980  1.00  0.00     0.015 C 
HETATM   23 BR1  UNL     1      25.953   2.053  53.613  1.00  0.00    -0.051 Br
BRANCH  22  24
HETATM   24  C3  UNL     1      26.122   0.065  52.227  1.00  0.00     0.069 C 
BRANCH  24  25
HETATM   25  C2  UNL     1      26.676  -1.105  52.488  1.00  0.00    -0.154 C 
HETATM   26  C1  UNL     1      27.272  -2.288  52.479  1.00  0.00     0.096 C 
ENDBRANCH  24  25
ENDBRANCH  22  24
ENDBRANCH  21  22
ENDBRANCH  20  21
ENDBRANCH  18  20
ENDBRANCH   1  18
TORSDOF 6
ENDMDL
MODEL 7
REMARK VINA RESULT:      -7.6      1.669      1.980
REMARK  6 active torsions:
REMARK  status: ('A' for Active; 'I' for Inactive)
REMARK    1  A    between atoms: C2_2  and  C3_3 
REMARK    2  A    between atoms: C3_3  and  C4_4 
REMARK    3  A    between atoms: C4_4  and  C5_6 
REMARK    4  A    between atoms: C5_6  and  C6_7 
REMARK    5  A    between atoms: C6_7  and  N1_8 
REMARK    6  A    between atoms: N1_8  and  C7_9 
ROOT
HETATM    1  C7  UNL     1      25.982   2.442  51.167  1.00  0.00     0.156 A 
HETATM    2  N2  UNL     1      27.208   2.504  51.711  1.00  0.00    -0.222 NA
HETATM    3  C8  UNL     1      27.473   1.807  52.824  1.00  0.00     0.238 A 
HETATM    4  N3  UNL     1      26.600   1.012  53.487  1.00  0.00    -0.215 NA
HETATM    5  C9  UNL     1      25.358   0.925  52.970  1.00  0.00     0.202 A 
HETATM    6  C10 UNL     1      25.048   1.632  51.818  1.00  0.00     0.128 A 
HETATM    7  N4  UNL     1      23.799   1.661  51.113  1.00  0.00    -0.379 N 
HETATM    8  C11 UNL     1      22.477   1.593  51.704  1.00  0.00     0.161 C 
HETATM    9  C12 UNL     1      22.336   0.561  52.732  1.00  0.00    -0.004 A 
HETATM   10  C13 UNL     1      20.987   0.197  52.802  1.00  0.00     0.054 A 
HETATM   11  C14 UNL     1      20.502  -0.757  53.671  1.00  0.00     0.117 A 
HETATM   12  F1  UNL     1      19.184  -1.064  53.687  1.00  0.00    -0.206 F 
HETATM   13  C15 UNL     1      21.367  -1.394  54.523  1.00  0.00     0.045 A 
HETATM   14  C16 UNL     1      22.707  -1.068  54.492  1.00  0.00     0.041 A 
HETATM   15  C17 UNL     1      23.156  -0.112  53.610  1.00  0.00     0.086 A 
HETATM   16  O1  UNL     1      24.524   0.081  53.723  1.00  0.00    -0.289 OA
HETATM   17  H9  UNL     1      24.001   1.737  50.069  1.00  0.00     0.160 HD
ENDROOT
BRANCH   1  18
HETATM   18  N1  UNL     1      25.687   3.205  49.980  1.00  0.00    -0.369 N 
HETATM   19  H7  UNL     1      24.801   3.362  49.465  1.00  0.00     0.161 HD
BRANCH  18  20
HETATM   20  C6  UNL     1      26.819   3.904  49.378  1.00  0.00     0.150 C 
BRANCH  20  21
HETATM   21  C5  UNL     1      26.449   5.275  48.960  1.00  0.00     0.012 C 
BRANCH  21  22
HETATM   22  C4  UNL     1      27.323   6.131  48.489  1.00  0.00     0.015 C 
HETATM   23 BR1  UNL     1      29.160   5.719  48.201  1.00  0.00    -0.051 Br
BRANCH  22  24
HETATM   24  C3  UNL     1      27.485   7.470  48.030  1.00  0.00     0.069 C 
BRANCH  24  25
HETATM   25  C2  UNL     1      27.718   8.453  48.880  1.00  0.00    -0.154 C 
HETATM   26  C1  UNL     1      27.807   9.284  49.908  1.00  0.00     0.096 C 
ENDBRANCH  24  25
ENDBRANCH  22  24
ENDBRANCH  21  22
ENDBRANCH  20  21
ENDBRANCH  18  20
ENDBRANCH   1  18
TORSDOF 6
ENDMDL
MODEL 8
REMARK VINA RESULT:      -7.4      3.173      4.683
REMARK  6 active torsions:
REMARK  status: ('A' for Active; 'I' for Inactive)
REMARK    1  A    between atoms: C2_2  and  C3_3 
REMARK    2  A    between atoms: C3_3  and  C4_4 
REMARK    3  A    between atoms: C4_4  and  C5_6 
REMARK    4  A    between atoms: C5_6  and  C6_7 
REMARK    5  A    between atoms: C6_7  and  N1_8 
REMARK    6  A    between atoms: N1_8  and  C7_9 
ROOT
HETATM    1  C7  UNL     1      24.022   5.212  51.150  1.00  0.00     0.156 A 
HETATM    2  N2  UNL     1      22.754   5.630  51.282  1.00  0.00    -0.222 NA
HETATM    3  C8  UNL     1      21.852   4.828  51.864  1.00  0.00     0.238 A 
HETATM    4  N3  UNL     1      22.093   3.590  52.355  1.00  0.00    -0.215 NA
HETATM    5  C9  UNL     1      23.358   3.137  52.240  1.00  0.00     0.202 A 
HETATM    6  C10 UNL     1      24.318   3.939  51.643  1.00  0.00     0.128 A 
HETATM    7  N4  UNL     1      25.707   3.646  51.440  1.00  0.00    -0.379 N 
HETATM    8  C11 UNL     1      26.275   2.345  51.140  1.00  0.00     0.161 C 
HETATM    9  C12 UNL     1      25.751   1.260  51.970  1.00  0.00    -0.004 A 
HETATM   10  C13 UNL     1      26.714   0.247  52.022  1.00  0.00     0.054 A 
HETATM   11  C14 UNL     1      26.543  -0.929  52.723  1.00  0.00     0.117 A 
HETATM   12  F1  UNL     1      27.515  -1.869  52.733  1.00  0.00    -0.206 F 
HETATM   13  C15 UNL     1      25.376  -1.137  53.412  1.00  0.00     0.045 A 
HETATM   14  C16 UNL     1      24.397  -0.166  53.390  1.00  0.00     0.041 A 
HETATM   15  C17 UNL     1      24.601   0.994  52.681  1.00  0.00     0.086 A 
HETATM   16  O1  UNL     1      23.513   1.847  52.775  1.00  0.00    -0.289 OA
HETATM   17  H9  UNL     1      26.265   4.547  51.550  1.00  0.00     0.160 HD
ENDROOT
BRANCH   1  18
HETATM   18  N1  UNL     1      24.992   6.064  50.506  1.00  0.00    -0.369 N 
HETATM   19  H7  UNL     1      25.865   5.846  49.992  1.00  0.00     0.161 HD
BRANCH  18  20
HETATM   20  C6  UNL     1      24.714   7.496  50.562  1.00  0.00     0.150 C 
BRANCH  20  21
HETATM   21  C5  UNL     1      25.808   8.284  49.950  1.00  0.00     0.012 C 
BRANCH  21  22
HETATM   22  C4  UNL     1      26.347   7.969  48.797  1.00  0.00     0.015 C 
HETATM   23 BR1  UNL     1      25.474   8.205  47.121  1.00  0.00    -0.051 Br
BRANCH  22  24
HETATM   24  C3  UNL     1      27.515   7.431  48.185  1.00  0.00     0.069 C 
BRANCH  24  25
HETATM   25  C2  UNL     1      27.840   6.162  48.349  1.00  0.00    -0.154 C 
HETATM   26  C1  UNL     1      27.897   4.856  48.563  1.00  0.00     0.096 C 
ENDBRANCH  24  25
ENDBRANCH  22  24
ENDBRANCH  21  22
ENDBRANCH  20  21
ENDBRANCH  18  20
ENDBRANCH   1  18
TORSDOF 6
ENDMDL
MODEL 9
REMARK VINA RESULT:      -7.3      2.996      4.989
REMARK  6 active torsions:
REMARK  status: ('A' for Active; 'I' for Inactive)
REMARK    1  A    between atoms: C2_2  and  C3_3 
REMARK    2  A    between atoms: C3_3  and  C4_4 
REMARK    3  A    between atoms: C4_4  and  C5_6 
REMARK    4  A    between atoms: C5_6  and  C6_7 
REMARK    5  A    between atoms: C6_7  and  N1_8 
REMARK    6  A    between atoms: N1_8  and  C7_9 
ROOT
HETATM    1  C7  UNL     1      22.475   1.763  51.782  1.00  0.00     0.156 A 
HETATM    2  N2  UNL     1      21.542   0.799  51.814  1.00  0.00    -0.222 NA
HETATM    3  C8  UNL     1      21.788  -0.337  52.480  1.00  0.00     0.238 A 
HETATM    4  N3  UNL     1      22.926  -0.630  53.154  1.00  0.00    -0.215 NA
HETATM    5  C9  UNL     1      23.887   0.316  53.144  1.00  0.00     0.202 A 
HETATM    6  C10 UNL     1      23.667   1.505  52.465  1.00  0.00     0.128 A 
HETATM    7  N4  UNL     1      24.551   2.628  52.348  1.00  0.00    -0.379 N 
HETATM    8  C11 UNL     1      25.998   2.576  52.259  1.00  0.00     0.161 C 
HETATM    9  C12 UNL     1      26.623   1.669  53.222  1.00  0.00    -0.004 A 
HETATM   10  C13 UNL     1      27.931   2.109  53.450  1.00  0.00     0.054 A 
HETATM   11  C14 UNL     1      28.806   1.479  54.310  1.00  0.00     0.117 A 
HETATM   12  F1  UNL     1      30.059   1.957  54.486  1.00  0.00    -0.206 F 
HETATM   13  C15 UNL     1      28.394   0.360  54.987  1.00  0.00     0.045 A 
HETATM   14  C16 UNL     1      27.113  -0.112  54.795  1.00  0.00     0.041 A 
HETATM   15  C17 UNL     1      26.267   0.542  53.930  1.00  0.00     0.086 A 
HETATM   16  O1  UNL     1      25.027  -0.074  53.866  1.00  0.00    -0.289 OA
HETATM   17  H9  UNL     1      23.968   3.520  52.342  1.00  0.00     0.160 HD
ENDROOT
BRANCH   1  18
HETATM   18  N1  UNL     1      22.223   2.980  51.050  1.00  0.00    -0.369 N 
HETATM   19  H7  UNL     1      22.117   3.962  51.364  1.00  0.00     0.161 HD
BRANCH  18  20
HETATM   20  C6  UNL     1      22.099   2.834  49.603  1.00  0.00     0.150 C 
BRANCH  20  21
HETATM   21  C5  UNL     1      23.379   3.127  48.919  1.00  0.00     0.012 C 
BRANCH  21  22
HETATM   22  C4  UNL     1      24.014   4.265  49.062  1.00  0.00     0.015 C 
HETATM   23 BR1  UNL     1      23.479   5.889  48.224  1.00  0.00    -0.051 Br
BRANCH  22  24
HETATM   24  C3  UNL     1      25.129   4.885  49.696  1.00  0.00     0.069 C 
BRANCH  24  25
HETATM   25  C2  UNL     1      26.350   4.733  49.216  1.00  0.00    -0.154 C 
HETATM   26  C1  UNL     1      27.550   4.847  48.668  1.00  0.00     0.096 C 
ENDBRANCH  24  25
ENDBRANCH  22  24
ENDBRANCH  21  22
ENDBRANCH  20  21
ENDBRANCH  18  20
ENDBRANCH   1  18
TORSDOF 6
ENDMDL
