MODEL 1
REMARK VINA RESULT:      -8.8      0.000      0.000
REMARK  5 active torsions:
REMARK  status: ('A' for Active; 'I' for Inactive)
REMARK    1  A    between atoms: O1_2  and  C2_3 
REMARK    2  A    between atoms: C2_3  and  C3_4 
REMARK    3  A    between atoms: C3_4  and  C4_5 
REMARK    4  A    between atoms: C8_11  and  N3_12 
REMARK    5  A    between atoms: N3_12  and  C9_13 
ROOT
HETATM    1  C4  UNL     1      19.627  -0.067  52.395  1.00  0.00    -0.018 A 
HETATM    2  C5  UNL     1      20.045  -0.682  53.556  1.00  0.00     0.042 A 
HETATM    3  C6  UNL     1      21.373  -0.740  53.924  1.00  0.00     0.075 A 
HETATM    4  N1  UNL     1      21.768  -1.345  55.057  1.00  0.00    -0.241 NA
HETATM    5  C7  UNL     1      23.071  -1.383  55.385  1.00  0.00     0.236 A 
HETATM    6  N2  UNL     1      24.002  -0.827  54.596  1.00  0.00    -0.223 NA
HETATM    7  C8  UNL     1      23.698  -0.214  53.464  1.00  0.00     0.144 A 
HETATM    8  C15 UNL     1      22.368  -0.185  53.148  1.00  0.00     0.075 A 
HETATM    9  C16 UNL     1      21.958   0.428  51.994  1.00  0.00     0.119 A 
HETATM   10  C17 UNL     1      20.628   0.492  51.617  1.00  0.00     0.109 A 
HETATM   11  O2  UNL     1      20.337   1.151  50.408  1.00  0.00    -0.346 OA
HETATM   12  C18 UNL     1      21.042   2.327  50.057  1.00  0.00     0.202 C 
HETATM   13  C19 UNL     1      22.502   2.244  50.420  1.00  0.00     0.202 C 
HETATM   14  O3  UNL     1      22.810   1.039  51.093  1.00  0.00    -0.345 OA
ENDROOT
BRANCH   7  15
HETATM   15  N3  UNL     1      24.729   0.353  52.676  1.00  0.00    -0.340 N 
HETATM   16  H10 UNL     1      24.833   1.009  51.884  1.00  0.00     0.167 HD
BRANCH  15  17
HETATM   17  C9  UNL     1      26.092   0.020  52.919  1.00  0.00     0.035 A 
HETATM   18  C10 UNL     1      26.729  -1.197  52.688  1.00  0.00     0.032 A 
HETATM   19  C11 UNL     1      28.045  -1.475  52.959  1.00  0.00     0.046 A 
HETATM   20  C12 UNL     1      28.826  -0.482  53.508  1.00  0.00     0.138 A 
HETATM   21  F1  UNL     1      30.114  -0.826  53.748  1.00  0.00    -0.204 F 
HETATM   22  C13 UNL     1      28.266   0.744  53.764  1.00  0.00     0.074 A 
HETATM   23 CL1  UNL     1      29.367   1.912  54.459  1.00  0.00    -0.081 Cl
HETATM   24  C14 UNL     1      26.939   0.970  53.473  1.00  0.00     0.056 A 
ENDBRANCH  15  17
ENDBRANCH   7  15
BRANCH   1  25
HETATM   25  C3  UNL     1      18.218   0.003  51.980  1.00  0.00     0.068 C 
BRANCH  25  26
HETATM   26  C2  UNL     1      17.368  -1.086  52.590  1.00  0.00     0.171 C 
BRANCH  26  27
HETATM   27  O1  UNL     1      16.245  -0.481  53.152  1.00  0.00    -0.396 OA
HETATM   28  C1  UNL     1      15.609   0.366  52.247  1.00  0.00     0.201 C 
ENDBRANCH  26  27
ENDBRANCH  25  26
ENDBRANCH   1  25
TORSDOF 5
ENDMDL
MODEL 2
REMARK VINA RESULT:      -8.4      2.599      4.068
REMARK  5 active torsions:
REMARK  status: ('A' for Active; 'I' for Inactive)
REMARK    1  A    between atoms: O1_2  and  C2_3 
REMARK    2  A    between atoms: C2_3  and  C3_4 
REMARK    3  A    between atoms: C3_4  and  C4_5 
REMARK    4  A    between atoms: C8_11  and  N3_12 
REMARK    5  A    between atoms: N3_12  and  C9_13 
ROOT
HETATM    1  C4  UNL     1      21.739   1.386  50.262  1.00  0.00    -0.018 A 
HETATM    2  C5  UNL     1      22.629   2.156  49.544  1.00  0.00     0.042 A 
HETATM    3  C6  UNL     1      23.856   2.531  50.049  1.00  0.00     0.075 A 
HETATM    4  N1  UNL     1      24.714   3.284  49.340  1.00  0.00    -0.241 NA
HETATM    5  C7  UNL     1      25.903   3.631  49.864  1.00  0.00     0.236 A 
HETATM    6  N2  UNL     1      26.259   3.241  51.096  1.00  0.00    -0.223 NA
HETATM    7  C8  UNL     1      25.473   2.499  51.860  1.00  0.00     0.144 A 
HETATM    8  C15 UNL     1      24.270   2.156  51.310  1.00  0.00     0.075 A 
HETATM    9  C16 UNL     1      23.390   1.389  52.027  1.00  0.00     0.119 A 
HETATM   10  C17 UNL     1      22.157   1.008  51.528  1.00  0.00     0.109 A 
HETATM   11  O2  UNL     1      21.344   0.220  52.364  1.00  0.00    -0.346 OA
HETATM   12  C18 UNL     1      21.927  -0.794  53.162  1.00  0.00     0.202 C 
HETATM   13  C19 UNL     1      23.247  -0.367  53.749  1.00  0.00     0.202 C 
HETATM   14  O3  UNL     1      23.630   0.920  53.304  1.00  0.00    -0.345 OA
ENDROOT
BRANCH   7  15
HETATM   15  N3  UNL     1      25.909   2.119  53.153  1.00  0.00    -0.340 N 
HETATM   16  H10 UNL     1      25.631   2.252  54.139  1.00  0.00     0.167 HD
BRANCH  15  17
HETATM   17  C9  UNL     1      27.070   1.309  53.316  1.00  0.00     0.035 A 
HETATM   18  C10 UNL     1      28.342   1.709  53.719  1.00  0.00     0.032 A 
HETATM   19  C11 UNL     1      29.436   0.890  53.842  1.00  0.00     0.046 A 
HETATM   20  C12 UNL     1      29.291  -0.448  53.547  1.00  0.00     0.138 A 
HETATM   21  F1  UNL     1      30.410  -1.196  53.691  1.00  0.00    -0.204 F 
HETATM   22  C13 UNL     1      28.066  -0.914  53.143  1.00  0.00     0.074 A 
HETATM   23 CL1  UNL     1      28.020  -2.629  52.803  1.00  0.00    -0.081 Cl
HETATM   24  C14 UNL     1      26.999  -0.048  53.035  1.00  0.00     0.056 A 
ENDBRANCH  15  17
ENDBRANCH   7  15
BRANCH   1  25
HETATM   25  C3  UNL     1      20.424   0.979  49.746  1.00  0.00     0.068 C 
BRANCH  25  26
HETATM   26  C2  UNL     1      19.432   2.116  49.696  1.00  0.00     0.171 C 
BRANCH  26  27
HETATM   27  O1  UNL     1      18.810   2.190  50.942  1.00  0.00    -0.396 OA
HETATM   28  C1  UNL     1      18.974   3.444  51.526  1.00  0.00     0.201 C 
ENDBRANCH  26  27
ENDBRANCH  25  26
ENDBRANCH   1  25
TORSDOF 5
ENDMDL
MODEL 3
REMARK VINA RESULT:      -8.3      4.362      5.738
REMARK  5 active torsions:
REMARK  status: ('A' for Active; 'I' for Inactive)
REMARK    1  A    between atoms: O1_2  and  C2_3 
REMARK    2  A    between atoms: C2_3  and  C3_4 
REMARK    3  A    between atoms: C3_4  and  C4_5 
REMARK    4  A    between atoms: C8_11  and  N3_12 
REMARK    5  A    between atoms: N3_12  and  C9_13 
ROOT
HETATM    1  C4  UNL     1      22.977   0.766  52.980  1.00  0.00    -0.018 A 
HETATM    2  C5  UNL     1      24.259   0.849  53.481  1.00  0.00     0.042 A 
HETATM    3  C6  UNL     1      25.283   1.466  52.794  1.00  0.00     0.075 A 
HETATM    4  N1  UNL     1      26.529   1.538  53.293  1.00  0.00    -0.241 NA
HETATM    5  C7  UNL     1      27.503   2.148  52.595  1.00  0.00     0.236 A 
HETATM    6  N2  UNL     1      27.260   2.692  51.394  1.00  0.00    -0.223 NA
HETATM    7  C8  UNL     1      26.063   2.664  50.832  1.00  0.00     0.144 A 
HETATM    8  C15 UNL     1      25.086   2.041  51.556  1.00  0.00     0.075 A 
HETATM    9  C16 UNL     1      23.814   1.963  51.054  1.00  0.00     0.119 A 
HETATM   10  C17 UNL     1      22.780   1.346  51.737  1.00  0.00     0.109 A 
HETATM   11  O2  UNL     1      21.519   1.332  51.112  1.00  0.00    -0.346 OA
HETATM   12  C18 UNL     1      21.074   2.469  50.396  1.00  0.00     0.202 C 
HETATM   13  C19 UNL     1      22.185   3.117  49.611  1.00  0.00     0.202 C 
HETATM   14  O3  UNL     1      23.428   2.480  49.832  1.00  0.00    -0.345 OA
ENDROOT
BRANCH   7  15
HETATM   15  N3  UNL     1      25.872   3.258  49.560  1.00  0.00    -0.340 N 
HETATM   16  H10 UNL     1      25.449   3.026  48.647  1.00  0.00     0.167 HD
BRANCH  15  17
HETATM   17  C9  UNL     1      26.353   4.574  49.297  1.00  0.00     0.035 A 
HETATM   18  C10 UNL     1      27.513   4.940  48.618  1.00  0.00     0.032 A 
HETATM   19  C11 UNL     1      27.944   6.226  48.407  1.00  0.00     0.046 A 
HETATM   20  C12 UNL     1      27.182   7.263  48.900  1.00  0.00     0.138 A 
HETATM   21  F1  UNL     1      27.666   8.503  48.655  1.00  0.00    -0.204 F 
HETATM   22  C13 UNL     1      26.025   6.977  49.581  1.00  0.00     0.074 A 
HETATM   23 CL1  UNL     1      25.155   8.383  50.150  1.00  0.00    -0.081 Cl
HETATM   24  C14 UNL     1      25.638   5.668  49.765  1.00  0.00     0.056 A 
ENDBRANCH  15  17
ENDBRANCH   7  15
BRANCH   1  25
HETATM   25  C3  UNL     1      21.872   0.109  53.692  1.00  0.00     0.068 C 
BRANCH  25  26
HETATM   26  C2  UNL     1      22.344  -0.897  54.714  1.00  0.00     0.171 C 
BRANCH  26  27
HETATM   27  O1  UNL     1      21.281  -1.759  54.981  1.00  0.00    -0.396 OA
HETATM   28  C1  UNL     1      20.236  -1.583  54.078  1.00  0.00     0.201 C 
ENDBRANCH  26  27
ENDBRANCH  25  26
ENDBRANCH   1  25
TORSDOF 5
ENDMDL
MODEL 4
REMARK VINA RESULT:      -8.2      1.813      3.190
REMARK  5 active torsions:
REMARK  status: ('A' for Active; 'I' for Inactive)
REMARK    1  A    between atoms: O1_2  and  C2_3 
REMARK    2  A    between atoms: C2_3  and  C3_4 
REMARK    3  A    between atoms: C3_4  and  C4_5 
REMARK    4  A    between atoms: C8_11  and  N3_12 
REMARK    5  A    between atoms: N3_12  and  C9_13 
ROOT
HETATM    1  C4  UNL     1      19.834   0.422  51.269  1.00  0.00    -0.018 A 
HETATM    2  C5  UNL     1      20.528   1.156  50.331  1.00  0.00     0.042 A 
HETATM    3  C6  UNL     1      21.808   1.617  50.554  1.00  0.00     0.075 A 
HETATM    4  N1  UNL     1      22.474   2.334  49.632  1.00  0.00    -0.241 NA
HETATM    5  C7  UNL     1      23.721   2.768  49.883  1.00  0.00     0.236 A 
HETATM    6  N2  UNL     1      24.327   2.502  51.048  1.00  0.00    -0.223 NA
HETATM    7  C8  UNL     1      23.743   1.804  52.009  1.00  0.00     0.144 A 
HETATM    8  C15 UNL     1      22.475   1.371  51.735  1.00  0.00     0.075 A 
HETATM    9  C16 UNL     1      21.791   0.642  52.670  1.00  0.00     0.119 A 
HETATM   10  C17 UNL     1      20.506   0.174  52.455  1.00  0.00     0.109 A 
HETATM   11  O2  UNL     1      19.912  -0.564  53.496  1.00  0.00    -0.346 OA
HETATM   12  C18 UNL     1      20.688  -1.481  54.244  1.00  0.00     0.202 C 
HETATM   13  C19 UNL     1      22.073  -0.957  54.524  1.00  0.00     0.202 C 
HETATM   14  O3  UNL     1      22.295   0.298  53.910  1.00  0.00    -0.345 OA
ENDROOT
BRANCH   7  15
HETATM   15  N3  UNL     1      24.438   1.558  53.218  1.00  0.00    -0.340 N 
HETATM   16  H10 UNL     1      24.326   1.730  54.230  1.00  0.00     0.167 HD
BRANCH  15  17
HETATM   17  C9  UNL     1      25.689   0.876  53.207  1.00  0.00     0.035 A 
HETATM   18  C10 UNL     1      25.965  -0.399  52.719  1.00  0.00     0.032 A 
HETATM   19  C11 UNL     1      27.188  -1.020  52.751  1.00  0.00     0.046 A 
HETATM   20  C12 UNL     1      28.252  -0.346  53.309  1.00  0.00     0.138 A 
HETATM   21  F1  UNL     1      29.427  -1.019  53.305  1.00  0.00    -0.204 F 
HETATM   22  C13 UNL     1      28.055   0.915  53.811  1.00  0.00     0.074 A 
HETATM   23 CL1  UNL     1      29.488   1.656  54.487  1.00  0.00    -0.081 Cl
HETATM   24  C14 UNL     1      26.806   1.493  53.754  1.00  0.00     0.056 A 
ENDBRANCH  15  17
ENDBRANCH   7  15
BRANCH   1  25
HETATM   25  C3  UNL     1      18.467  -0.075  51.056  1.00  0.00     0.068 C 
BRANCH  25  26
HETATM   26  C2  UNL     1      17.538   0.974  50.494  1.00  0.00     0.171 C 
BRANCH  26  27
HETATM   27  O1  UNL     1      16.978   1.663  51.569  1.00  0.00    -0.396 OA
HETATM   28  C1  UNL     1      17.224   3.031  51.487  1.00  0.00     0.201 C 
ENDBRANCH  26  27
ENDBRANCH  25  26
ENDBRANCH   1  25
TORSDOF 5
ENDMDL
MODEL 5
REMARK VINA RESULT:      -7.9      4.503      7.845
REMARK  5 active torsions:
REMARK  status: ('A' for Active; 'I' for Inactive)
REMARK    1  A    between atoms: O1_2  and  C2_3 
REMARK    2  A    between atoms: C2_3  and  C3_4 
REMARK    3  A    between atoms: C3_4  and  C4_5 
REMARK    4  A    between atoms: C8_11  and  N3_12 
REMARK    5  A    between atoms: N3_12  and  C9_13 
ROOT
HETATM    1  C4  UNL     1      26.528   0.154  53.138  1.00  0.00    -0.018 A 
HETATM    2  C5  UNL     1      25.586  -0.617  53.786  1.00  0.00     0.042 A 
HETATM    3  C6  UNL     1      24.243  -0.306  53.777  1.00  0.00     0.075 A 
HETATM    4  N1  UNL     1      23.335  -1.064  54.415  1.00  0.00    -0.241 NA
HETATM    5  C7  UNL     1      22.033  -0.730  54.385  1.00  0.00     0.236 A 
HETATM    6  N2  UNL     1      21.610   0.358  53.727  1.00  0.00    -0.223 NA
HETATM    7  C8  UNL     1      22.438   1.158  53.074  1.00  0.00     0.144 A 
HETATM    8  C15 UNL     1      23.757   0.802  53.116  1.00  0.00     0.075 A 
HETATM    9  C16 UNL     1      24.688   1.571  52.469  1.00  0.00     0.119 A 
HETATM   10  C17 UNL     1      26.038   1.266  52.472  1.00  0.00     0.109 A 
HETATM   11  O2  UNL     1      26.892   2.137  51.769  1.00  0.00    -0.346 OA
HETATM   12  C18 UNL     1      26.478   2.685  50.532  1.00  0.00     0.202 C 
HETATM   13  C19 UNL     1      25.020   3.065  50.538  1.00  0.00     0.202 C 
HETATM   14  O3  UNL     1      24.390   2.716  51.755  1.00  0.00    -0.345 OA
ENDROOT
BRANCH   7  15
HETATM   15  N3  UNL     1      21.927   2.292  52.398  1.00  0.00    -0.340 N 
HETATM   16  H10 UNL     1      22.160   3.290  52.263  1.00  0.00     0.167 HD
BRANCH  15  17
HETATM   17  C9  UNL     1      20.734   2.198  51.624  1.00  0.00     0.035 A 
HETATM   18  C10 UNL     1      20.497   1.391  50.513  1.00  0.00     0.032 A 
HETATM   19  C11 UNL     1      19.334   1.352  49.787  1.00  0.00     0.046 A 
HETATM   20  C12 UNL     1      18.294   2.171  50.169  1.00  0.00     0.138 A 
HETATM   21  F1  UNL     1      17.177   2.079  49.409  1.00  0.00    -0.204 F 
HETATM   22  C13 UNL     1      18.456   2.994  51.254  1.00  0.00     0.074 A 
HETATM   23 CL1  UNL     1      17.060   3.978  51.630  1.00  0.00    -0.081 Cl
HETATM   24  C14 UNL     1      19.646   2.995  51.948  1.00  0.00     0.056 A 
ENDBRANCH  15  17
ENDBRANCH   7  15
BRANCH   1  25
HETATM   25  C3  UNL     1      27.965  -0.155  53.139  1.00  0.00     0.068 C 
BRANCH  25  26
HETATM   26  C2  UNL     1      28.569  -0.150  54.523  1.00  0.00     0.171 C 
BRANCH  26  27
HETATM   27  O1  UNL     1      28.513   1.157  55.004  1.00  0.00    -0.396 OA
HETATM   28  C1  UNL     1      29.409   1.990  54.339  1.00  0.00     0.201 C 
ENDBRANCH  26  27
ENDBRANCH  25  26
ENDBRANCH   1  25
TORSDOF 5
ENDMDL
MODEL 6
REMARK VINA RESULT:      -7.9      4.535      7.635
REMARK  5 active torsions:
REMARK  status: ('A' for Active; 'I' for Inactive)
REMARK    1  A    between atoms: O1_2  and  C2_3 
REMARK    2  A    between atoms: C2_3  and  C3_4 
REMARK    3  A    between atoms: C3_4  and  C4_5 
REMARK    4  A    between atoms: C8_11  and  N3_12 
REMARK    5  A    between atoms: N3_12  and  C9_13 
ROOT
HETATM    1  C4  UNL     1      26.566   0.237  53.024  1.00  0.00    -0.018 A 
HETATM    2  C5  UNL     1      25.569  -0.530  53.589  1.00  0.00     0.042 A 
HETATM    3  C6  UNL     1      24.240  -0.166  53.541  1.00  0.00     0.075 A 
HETATM    4  N1  UNL     1      23.277  -0.920  54.097  1.00  0.00    -0.241 NA
HETATM    5  C7  UNL     1      21.991  -0.534  54.030  1.00  0.00     0.236 A 
HETATM    6  N2  UNL     1      21.639   0.604  53.416  1.00  0.00    -0.223 NA
HETATM    7  C8  UNL     1      22.524   1.404  52.844  1.00  0.00     0.144 A 
HETATM    8  C15 UNL     1      23.826   0.995  52.921  1.00  0.00     0.075 A 
HETATM    9  C16 UNL     1      24.812   1.760  52.358  1.00  0.00     0.119 A 
HETATM   10  C17 UNL     1      26.148   1.402  52.401  1.00  0.00     0.109 A 
HETATM   11  O2  UNL     1      27.064   2.274  51.784  1.00  0.00    -0.346 OA
HETATM   12  C18 UNL     1      26.727   2.903  50.563  1.00  0.00     0.202 C 
HETATM   13  C19 UNL     1      25.285   3.340  50.528  1.00  0.00     0.202 C 
HETATM   14  O3  UNL     1      24.589   2.952  51.697  1.00  0.00    -0.345 OA
ENDROOT
BRANCH   7  15
HETATM   15  N3  UNL     1      22.086   2.593  52.211  1.00  0.00    -0.340 N 
HETATM   16  H10 UNL     1      22.056   3.609  52.395  1.00  0.00     0.167 HD
BRANCH  15  17
HETATM   17  C9  UNL     1      21.479   2.545  50.922  1.00  0.00     0.035 A 
HETATM   18  C10 UNL     1      21.738   1.650  49.887  1.00  0.00     0.032 A 
HETATM   19  C11 UNL     1      21.138   1.659  48.653  1.00  0.00     0.046 A 
HETATM   20  C12 UNL     1      20.194   2.627  48.389  1.00  0.00     0.138 A 
HETATM   21  F1  UNL     1      19.643   2.575  47.154  1.00  0.00    -0.204 F 
HETATM   22  C13 UNL     1      19.887   3.544  49.362  1.00  0.00     0.074 A 
HETATM   23 CL1  UNL     1      18.674   4.714  48.897  1.00  0.00    -0.081 Cl
HETATM   24  C14 UNL     1      20.520   3.491  50.585  1.00  0.00     0.056 A 
ENDBRANCH  15  17
ENDBRANCH   7  15
BRANCH   1  25
HETATM   25  C3  UNL     1      27.989  -0.129  53.069  1.00  0.00     0.068 C 
BRANCH  25  26
HETATM   26  C2  UNL     1      28.545  -0.173  54.472  1.00  0.00     0.171 C 
BRANCH  26  27
HETATM   27  O1  UNL     1      28.480   1.119  54.993  1.00  0.00    -0.396 OA
HETATM   28  C1  UNL     1      29.445   1.950  54.431  1.00  0.00     0.201 C 
ENDBRANCH  26  27
ENDBRANCH  25  26
ENDBRANCH   1  25
TORSDOF 5
ENDMDL
MODEL 7
REMARK VINA RESULT:      -7.8      5.119      8.360
REMARK  5 active torsions:
REMARK  status: ('A' for Active; 'I' for Inactive)
REMARK    1  A    between atoms: O1_2  and  C2_3 
REMARK    2  A    between atoms: C2_3  and  C3_4 
REMARK    3  A    between atoms: C3_4  and  C4_5 
REMARK    4  A    between atoms: C8_11  and  N3_12 
REMARK    5  A    between atoms: N3_12  and  C9_13 
ROOT
HETATM    1  C4  UNL     1      25.628   0.826  52.255  1.00  0.00    -0.018 A 
HETATM    2  C5  UNL     1      26.558   1.621  51.619  1.00  0.00     0.042 A 
HETATM    3  C6  UNL     1      26.197   2.651  50.777  1.00  0.00     0.075 A 
HETATM    4  N1  UNL     1      27.114   3.418  50.162  1.00  0.00    -0.241 NA
HETATM    5  C7  UNL     1      26.725   4.414  49.347  1.00  0.00     0.236 A 
HETATM    6  N2  UNL     1      25.427   4.667  49.129  1.00  0.00    -0.223 NA
HETATM    7  C8  UNL     1      24.463   3.960  49.695  1.00  0.00     0.144 A 
HETATM    8  C15 UNL     1      24.876   2.951  50.519  1.00  0.00     0.075 A 
HETATM    9  C16 UNL     1      23.948   2.166  51.149  1.00  0.00     0.119 A 
HETATM   10  C17 UNL     1      24.301   1.129  51.995  1.00  0.00     0.109 A 
HETATM   11  O2  UNL     1      23.252   0.396  52.581  1.00  0.00    -0.346 OA
HETATM   12  C18 UNL     1      22.086   1.064  53.024  1.00  0.00     0.202 C 
HETATM   13  C19 UNL     1      21.667   2.163  52.081  1.00  0.00     0.202 C 
HETATM   14  O3  UNL     1      22.581   2.316  51.012  1.00  0.00    -0.345 OA
ENDROOT
BRANCH   7  15
HETATM   15  N3  UNL     1      23.110   4.278  49.422  1.00  0.00    -0.340 N 
HETATM   16  H10 UNL     1      22.238   4.481  49.938  1.00  0.00     0.167 HD
BRANCH  15  17
HETATM   17  C9  UNL     1      22.648   4.387  48.078  1.00  0.00     0.035 A 
HETATM   18  C10 UNL     1      22.239   3.362  47.229  1.00  0.00     0.032 A 
HETATM   19  C11 UNL     1      21.821   3.517  45.931  1.00  0.00     0.046 A 
HETATM   20  C12 UNL     1      21.794   4.787  45.398  1.00  0.00     0.138 A 
HETATM   21  F1  UNL     1      21.370   4.866  44.114  1.00  0.00    -0.204 F 
HETATM   22  C13 UNL     1      22.184   5.847  46.177  1.00  0.00     0.074 A 
HETATM   23 CL1  UNL     1      22.099   7.401  45.379  1.00  0.00    -0.081 Cl
HETATM   24  C14 UNL     1      22.596   5.636  47.475  1.00  0.00     0.056 A 
ENDBRANCH  15  17
ENDBRANCH   7  15
BRANCH   1  25
HETATM   25  C3  UNL     1      25.990  -0.282  53.151  1.00  0.00     0.068 C 
BRANCH  25  26
HETATM   26  C2  UNL     1      26.304   0.173  54.556  1.00  0.00     0.171 C 
BRANCH  26  27
HETATM   27  O1  UNL     1      27.496  -0.438  54.942  1.00  0.00    -0.396 OA
HETATM   28  C1  UNL     1      28.592   0.395  54.736  1.00  0.00     0.201 C 
ENDBRANCH  26  27
ENDBRANCH  25  26
ENDBRANCH   1  25
TORSDOF 5
ENDMDL
MODEL 8
REMARK VINA RESULT:      -7.8      4.237      7.693
REMARK  5 active torsions:
REMARK  status: ('A' for Active; 'I' for Inactive)
REMARK    1  A    between atoms: O1_2  and  C2_3 
REMARK    2  A    between atoms: C2_3  and  C3_4 
REMARK    3  A    between atoms: C3_4  and  C4_5 
REMARK    4  A    between atoms: C8_11  and  N3_12 
REMARK    5  A    between atoms: N3_12  and  C9_13 
ROOT
HETATM    1  C4  UNL     1      25.555   0.627  52.491  1.00  0.00    -0.018 A 
HETATM    2  C5  UNL     1      25.031  -0.294  53.372  1.00  0.00     0.042 A 
HETATM    3  C6  UNL     1      23.697  -0.309  53.719  1.00  0.00     0.075 A 
HETATM    4  N1  UNL     1      23.198  -1.211  54.581  1.00  0.00    -0.241 NA
HETATM    5  C7  UNL     1      21.891  -1.195  54.897  1.00  0.00     0.236 A 
HETATM    6  N2  UNL     1      21.060  -0.288  54.367  1.00  0.00    -0.223 NA
HETATM    7  C8  UNL     1      21.469   0.634  53.511  1.00  0.00     0.144 A 
HETATM    8  C15 UNL     1      22.801   0.603  53.202  1.00  0.00     0.075 A 
HETATM    9  C16 UNL     1      23.315   1.520  52.325  1.00  0.00     0.119 A 
HETATM   10  C17 UNL     1      24.653   1.542  51.971  1.00  0.00     0.109 A 
HETATM   11  O2  UNL     1      25.058   2.535  51.059  1.00  0.00    -0.346 OA
HETATM   12  C18 UNL     1      24.219   2.878  49.972  1.00  0.00     0.202 C 
HETATM   13  C19 UNL     1      22.764   2.905  50.363  1.00  0.00     0.202 C 
HETATM   14  O3  UNL     1      22.573   2.507  51.707  1.00  0.00    -0.345 OA
ENDROOT
BRANCH   7  15
HETATM   15  N3  UNL     1      20.540   1.565  52.986  1.00  0.00    -0.340 N 
HETATM   16  H10 UNL     1      20.324   2.573  53.052  1.00  0.00     0.167 HD
BRANCH  15  17
HETATM   17  C9  UNL     1      19.527   1.142  52.076  1.00  0.00     0.035 A 
HETATM   18  C10 UNL     1      18.766  -0.024  52.125  1.00  0.00     0.032 A 
HETATM   19  C11 UNL     1      17.814  -0.396  51.210  1.00  0.00     0.046 A 
HETATM   20  C12 UNL     1      17.570   0.437  50.141  1.00  0.00     0.138 A 
HETATM   21  F1  UNL     1      16.618   0.008  49.279  1.00  0.00    -0.204 F 
HETATM   22  C13 UNL     1      18.282   1.604  50.027  1.00  0.00     0.074 A 
HETATM   23 CL1  UNL     1      17.873   2.568  48.626  1.00  0.00    -0.081 Cl
HETATM   24  C14 UNL     1      19.229   1.930  50.973  1.00  0.00     0.056 A 
ENDBRANCH  15  17
ENDBRANCH   7  15
BRANCH   1  25
HETATM   25  C3  UNL     1      26.975   0.665  52.111  1.00  0.00     0.068 C 
BRANCH  25  26
HETATM   26  C2  UNL     1      27.823   1.458  53.076  1.00  0.00     0.171 C 
BRANCH  26  27
HETATM   27  O1  UNL     1      28.809   0.606  53.572  1.00  0.00    -0.396 OA
HETATM   28  C1  UNL     1      28.527   0.194  54.872  1.00  0.00     0.201 C 
ENDBRANCH  26  27
ENDBRANCH  25  26
ENDBRANCH   1  25
TORSDOF 5
ENDMDL
MODEL 9
REMARK VINA RESULT:      -7.8      4.524      8.326
REMARK  5 active torsions:
REMARK  status: ('A' for Active; 'I' for Inactive)
REMARK    1  A    between atoms: O1_2  and  C2_3 
REMARK    2  A    between atoms: C2_3  and  C3_4 
REMARK    3  A    between atoms: C3_4  and  C4_5 
REMARK    4  A    between atoms: C8_11  and  N3_12 
REMARK    5  A    between atoms: N3_12  and  C9_13 
ROOT
HETATM    1  C4  UNL     1      25.316   0.835  52.423  1.00  0.00    -0.018 A 
HETATM    2  C5  UNL     1      24.559   1.718  51.683  1.00  0.00     0.042 A 
HETATM    3  C6  UNL     1      23.183   1.763  51.765  1.00  0.00     0.075 A 
HETATM    4  N1  UNL     1      22.457   2.628  51.037  1.00  0.00    -0.241 NA
HETATM    5  C7  UNL     1      21.117   2.643  51.143  1.00  0.00     0.236 A 
HETATM    6  N2  UNL     1      20.476   1.804  51.968  1.00  0.00    -0.223 NA
HETATM    7  C8  UNL     1      21.115   0.923  52.720  1.00  0.00     0.144 A 
HETATM    8  C15 UNL     1      22.477   0.922  52.598  1.00  0.00     0.075 A 
HETATM    9  C16 UNL     1      23.223   0.043  53.337  1.00  0.00     0.119 A 
HETATM   10  C17 UNL     1      24.604  -0.009  53.261  1.00  0.00     0.109 A 
HETATM   11  O2  UNL     1      25.255  -0.958  54.072  1.00  0.00    -0.346 OA
HETATM   12  C18 UNL     1      24.790  -1.199  55.387  1.00  0.00     0.202 C 
HETATM   13  C19 UNL     1      23.285  -1.193  55.468  1.00  0.00     0.202 C 
HETATM   14  O3  UNL     1      22.692  -0.874  54.224  1.00  0.00    -0.345 OA
ENDROOT
BRANCH   7  15
HETATM   15  N3  UNL     1      20.379   0.064  53.572  1.00  0.00    -0.340 N 
HETATM   16  H10 UNL     1      20.438  -0.324  54.528  1.00  0.00     0.167 HD
BRANCH  15  17
HETATM   17  C9  UNL     1      19.163  -0.530  53.126  1.00  0.00     0.035 A 
HETATM   18  C10 UNL     1      18.251  -0.022  52.203  1.00  0.00     0.032 A 
HETATM   19  C11 UNL     1      17.080  -0.625  51.821  1.00  0.00     0.046 A 
HETATM   20  C12 UNL     1      16.753  -1.840  52.384  1.00  0.00     0.138 A 
HETATM   21  F1  UNL     1      15.584  -2.377  51.961  1.00  0.00    -0.204 F 
HETATM   22  C13 UNL     1      17.604  -2.401  53.302  1.00  0.00     0.074 A 
HETATM   23 CL1  UNL     1      17.070  -3.941  53.936  1.00  0.00    -0.081 Cl
HETATM   24  C14 UNL     1      18.768  -1.752  53.652  1.00  0.00     0.056 A 
ENDBRANCH  15  17
ENDBRANCH   7  15
BRANCH   1  25
HETATM   25  C3  UNL     1      26.782   0.765  52.347  1.00  0.00     0.068 C 
BRANCH  25  26
HETATM   26  C2  UNL     1      27.468   1.825  53.175  1.00  0.00     0.171 C 
BRANCH  26  27
HETATM   27  O1  UNL     1      27.673   1.299  54.450  1.00  0.00    -0.396 OA
HETATM   28  C1  UNL     1      28.957   0.778  54.591  1.00  0.00     0.201 C 
ENDBRANCH  26  27
ENDBRANCH  25  26
ENDBRANCH   1  25
TORSDOF 5
ENDMDL
