MODEL 1
REMARK VINA RESULT:      -9.3      0.000      0.000
REMARK  4 active torsions:
REMARK  status: ('A' for Active; 'I' for Inactive)
REMARK    1  A    between atoms: C1_2  and  O2_3 
REMARK    2  A    between atoms: C1_2  and  C2_4 
REMARK    3  A    between atoms: C10_13  and  N2_14 
REMARK    4  A    between atoms: N2_14  and  C11_15 
ROOT
HETATM    1  C2  UNL     1      20.052  -0.519  53.130  1.00  0.00     0.038 A 
HETATM    2  C3  UNL     1      20.727  -0.916  54.263  1.00  0.00     0.021 A 
HETATM    3  C4  UNL     1      22.059  -0.592  54.399  1.00  0.00     0.039 A 
HETATM    4  C5  UNL     1      22.703   0.117  53.415  1.00  0.00     0.086 A 
HETATM    5  C6  UNL     1      22.060   0.531  52.268  1.00  0.00    -0.006 A 
HETATM    6  C7  UNL     1      20.709   0.185  52.162  1.00  0.00     0.029 A 
HETATM    7  C8  UNL     1      22.393   1.280  51.032  1.00  0.00     0.161 C 
HETATM    8  N1  UNL     1      23.706   1.882  51.050  1.00  0.00    -0.379 N 
HETATM    9  C9  UNL     1      24.896   1.729  51.769  1.00  0.00     0.129 A 
HETATM   10  C10 UNL     1      25.972   2.356  51.150  1.00  0.00     0.160 A 
HETATM   11  N3  UNL     1      27.189   2.275  51.764  1.00  0.00    -0.222 NA
HETATM   12  C17 UNL     1      27.274   1.597  52.923  1.00  0.00     0.238 A 
HETATM   13  N4  UNL     1      26.229   0.977  53.541  1.00  0.00    -0.215 NA
HETATM   14  C18 UNL     1      25.002   1.039  52.957  1.00  0.00     0.202 A 
HETATM   15  O3  UNL     1      24.038   0.367  53.693  1.00  0.00    -0.289 OA
HETATM   16  H7  UNL     1      23.710   2.622  50.307  1.00  0.00     0.160 HD
ENDROOT
BRANCH  10  17
HETATM   17  N2  UNL     1      25.747   3.039  49.927  1.00  0.00    -0.339 N 
HETATM   18  H8  UNL     1      25.237   2.418  49.263  1.00  0.00     0.167 HD
BRANCH  17  19
HETATM   19  C11 UNL     1      26.127   4.365  49.582  1.00  0.00     0.035 A 
HETATM   20  C12 UNL     1      27.266   4.541  48.825  1.00  0.00     0.029 A 
HETATM   21  C13 UNL     1      27.669   5.806  48.467  1.00  0.00     0.004 A 
HETATM   22  C14 UNL     1      26.910   6.893  48.883  1.00  0.00     0.019 A 
HETATM   23  C15 UNL     1      25.796   6.655  49.629  1.00  0.00     0.013 A 
HETATM   24 BR1  UNL     1      24.765   8.176  50.192  1.00  0.00    -0.051 Br
HETATM   25  C16 UNL     1      25.339   5.410  50.021  1.00  0.00     0.048 A 
ENDBRANCH  17  19
ENDBRANCH  10  17
BRANCH   1  26
HETATM   26  C1  UNL     1      18.642  -0.860  52.984  1.00  0.00     0.176 C 
HETATM   27  O1  UNL     1      18.037  -0.804  51.902  1.00  0.00    -0.646 OA
BRANCH  26  28
HETATM   28  O2  UNL     1      17.911  -1.272  54.087  1.00  0.00    -0.773 OA
HETATM   29  H1  UNL     1      17.324  -0.631  54.643  1.00  0.00     0.167 HD
ENDBRANCH  26  28
ENDBRANCH   1  26
TORSDOF 4
ENDMDL
MODEL 2
REMARK VINA RESULT:      -8.8      5.558      9.644
REMARK  4 active torsions:
REMARK  status: ('A' for Active; 'I' for Inactive)
REMARK    1  A    between atoms: C1_2  and  O2_3 
REMARK    2  A    between atoms: C1_2  and  C2_4 
REMARK    3  A    between atoms: C10_13  and  N2_14 
REMARK    4  A    between atoms: N2_14  and  C11_15 
ROOT
HETATM    1  C2  UNL     1      24.392  -0.378  54.214  1.00  0.00     0.038 A 
HETATM    2  C3  UNL     1      24.605   0.432  53.120  1.00  0.00     0.021 A 
HETATM    3  C4  UNL     1      23.545   0.741  52.298  1.00  0.00     0.039 A 
HETATM    4  C5  UNL     1      22.292   0.246  52.566  1.00  0.00     0.086 A 
HETATM    5  C6  UNL     1      22.042  -0.567  53.650  1.00  0.00    -0.006 A 
HETATM    6  C7  UNL     1      23.141  -0.861  54.465  1.00  0.00     0.029 A 
HETATM    7  C8  UNL     1      20.882  -1.269  54.251  1.00  0.00     0.161 C 
HETATM    8  N1  UNL     1      19.615  -0.927  53.647  1.00  0.00    -0.379 N 
HETATM    9  C9  UNL     1      19.169  -0.347  52.455  1.00  0.00     0.129 A 
HETATM   10  C10 UNL     1      17.810  -0.553  52.242  1.00  0.00     0.160 A 
HETATM   11  N3  UNL     1      17.263  -0.028  51.107  1.00  0.00    -0.222 NA
HETATM   12  C17 UNL     1      18.064   0.652  50.267  1.00  0.00     0.238 A 
HETATM   13  N4  UNL     1      19.397   0.862  50.462  1.00  0.00    -0.215 NA
HETATM   14  C18 UNL     1      19.975   0.353  51.583  1.00  0.00     0.202 A 
HETATM   15  O3  UNL     1      21.330   0.643  51.651  1.00  0.00    -0.289 OA
HETATM   16  H7  UNL     1      18.869  -1.213  54.326  1.00  0.00     0.160 HD
ENDROOT
BRANCH  10  17
HETATM   17  N2  UNL     1      17.078  -1.291  53.207  1.00  0.00    -0.339 N 
HETATM   18  H8  UNL     1      16.984  -0.733  54.083  1.00  0.00     0.167 HD
BRANCH  17  19
HETATM   19  C11 UNL     1      16.523  -2.594  53.077  1.00  0.00     0.035 A 
HETATM   20  C12 UNL     1      17.181  -3.645  53.681  1.00  0.00     0.029 A 
HETATM   21  C13 UNL     1      16.679  -4.922  53.582  1.00  0.00     0.004 A 
HETATM   22  C14 UNL     1      15.507  -5.126  52.865  1.00  0.00     0.019 A 
HETATM   23  C15 UNL     1      14.905  -4.049  52.291  1.00  0.00     0.013 A 
HETATM   24 BR1  UNL     1      13.285  -4.360  51.305  1.00  0.00    -0.051 Br
HETATM   25  C16 UNL     1      15.358  -2.743  52.354  1.00  0.00     0.048 A 
ENDBRANCH  17  19
ENDBRANCH  10  17
BRANCH   1  26
HETATM   26  C1  UNL     1      25.513  -0.706  55.087  1.00  0.00     0.176 C 
HETATM   27  O1  UNL     1      26.698  -0.522  54.770  1.00  0.00    -0.646 OA
BRANCH  26  28
HETATM   28  O2  UNL     1      25.279  -1.253  56.339  1.00  0.00    -0.773 OA
HETATM   29  H1  UNL     1      26.011  -1.725  56.891  1.00  0.00     0.167 HD
ENDBRANCH  26  28
ENDBRANCH   1  26
TORSDOF 4
ENDMDL
MODEL 3
REMARK VINA RESULT:      -8.6      3.382      5.081
REMARK  4 active torsions:
REMARK  status: ('A' for Active; 'I' for Inactive)
REMARK    1  A    between atoms: C1_2  and  O2_3 
REMARK    2  A    between atoms: C1_2  and  C2_4 
REMARK    3  A    between atoms: C10_13  and  N2_14 
REMARK    4  A    between atoms: N2_14  and  C11_15 
ROOT
HETATM    1  C2  UNL     1      26.532  -0.537  52.817  1.00  0.00     0.038 A 
HETATM    2  C3  UNL     1      25.402  -0.527  53.604  1.00  0.00     0.021 A 
HETATM    3  C4  UNL     1      24.508   0.513  53.480  1.00  0.00     0.039 A 
HETATM    4  C5  UNL     1      24.743   1.526  52.584  1.00  0.00     0.086 A 
HETATM    5  C6  UNL     1      25.863   1.549  51.780  1.00  0.00    -0.006 A 
HETATM    6  C7  UNL     1      26.750   0.478  51.931  1.00  0.00     0.029 A 
HETATM    7  C8  UNL     1      26.447   2.425  50.736  1.00  0.00     0.161 C 
HETATM    8  N1  UNL     1      25.571   3.492  50.312  1.00  0.00    -0.379 N 
HETATM    9  C9  UNL     1      24.431   4.141  50.799  1.00  0.00     0.129 A 
HETATM   10  C10 UNL     1      24.178   5.336  50.135  1.00  0.00     0.160 A 
HETATM   11  N3  UNL     1      23.086   6.057  50.527  1.00  0.00    -0.222 NA
HETATM   12  C17 UNL     1      22.327   5.571  51.525  1.00  0.00     0.238 A 
HETATM   13  N4  UNL     1      22.562   4.402  52.186  1.00  0.00    -0.215 NA
HETATM   14  C18 UNL     1      23.641   3.659  51.820  1.00  0.00     0.202 A 
HETATM   15  O3  UNL     1      23.757   2.500  52.573  1.00  0.00    -0.289 OA
HETATM   16  H7  UNL     1      25.933   3.833  49.388  1.00  0.00     0.160 HD
ENDROOT
BRANCH  10  17
HETATM   17  N2  UNL     1      25.060   5.735  49.098  1.00  0.00    -0.339 N 
HETATM   18  H8  UNL     1      24.851   5.200  48.229  1.00  0.00     0.167 HD
BRANCH  17  19
HETATM   19  C11 UNL     1      26.096   6.708  49.157  1.00  0.00     0.035 A 
HETATM   20  C12 UNL     1      25.939   7.778  50.012  1.00  0.00     0.029 A 
HETATM   21  C13 UNL     1      26.916   8.741  50.101  1.00  0.00     0.004 A 
HETATM   22  C14 UNL     1      28.054   8.613  49.315  1.00  0.00     0.019 A 
HETATM   23  C15 UNL     1      28.152   7.535  48.489  1.00  0.00     0.013 A 
HETATM   24 BR1  UNL     1      29.737   7.383  47.413  1.00  0.00    -0.051 Br
HETATM   25  C16 UNL     1      27.205   6.535  48.354  1.00  0.00     0.048 A 
ENDBRANCH  17  19
ENDBRANCH  10  17
BRANCH   1  26
HETATM   26  C1  UNL     1      27.480  -1.638  52.945  1.00  0.00     0.176 C 
HETATM   27  O1  UNL     1      28.529  -1.560  53.604  1.00  0.00    -0.646 OA
BRANCH  26  28
HETATM   28  O2  UNL     1      27.230  -2.846  52.313  1.00  0.00    -0.773 OA
HETATM   29  H1  UNL     1      27.941  -3.587  52.215  1.00  0.00     0.167 HD
ENDBRANCH  26  28
ENDBRANCH   1  26
TORSDOF 4
ENDMDL
MODEL 4
REMARK VINA RESULT:      -8.5      2.997      5.603
REMARK  4 active torsions:
REMARK  status: ('A' for Active; 'I' for Inactive)
REMARK    1  A    between atoms: C1_2  and  O2_3 
REMARK    2  A    between atoms: C1_2  and  C2_4 
REMARK    3  A    between atoms: C10_13  and  N2_14 
REMARK    4  A    between atoms: N2_14  and  C11_15 
ROOT
HETATM    1  C2  UNL     1      27.782  -0.843  53.138  1.00  0.00     0.038 A 
HETATM    2  C3  UNL     1      26.706  -1.697  53.036  1.00  0.00     0.021 A 
HETATM    3  C4  UNL     1      25.447  -1.170  52.852  1.00  0.00     0.039 A 
HETATM    4  C5  UNL     1      25.269   0.189  52.774  1.00  0.00     0.086 A 
HETATM    5  C6  UNL     1      26.321   1.073  52.873  1.00  0.00    -0.006 A 
HETATM    6  C7  UNL     1      27.586   0.506  53.059  1.00  0.00     0.029 A 
HETATM    7  C8  UNL     1      26.528   2.542  52.839  1.00  0.00     0.161 C 
HETATM    8  N1  UNL     1      25.350   3.289  52.466  1.00  0.00    -0.379 N 
HETATM    9  C9  UNL     1      23.970   3.069  52.408  1.00  0.00     0.129 A 
HETATM   10  C10 UNL     1      23.250   4.253  52.283  1.00  0.00     0.160 A 
HETATM   11  N3  UNL     1      21.890   4.160  52.215  1.00  0.00    -0.222 NA
HETATM   12  C17 UNL     1      21.330   2.939  52.274  1.00  0.00     0.238 A 
HETATM   13  N4  UNL     1      22.022   1.770  52.396  1.00  0.00    -0.215 NA
HETATM   14  C18 UNL     1      23.379   1.826  52.466  1.00  0.00     0.202 A 
HETATM   15  O3  UNL     1      23.948   0.567  52.589  1.00  0.00    -0.289 OA
HETATM   16  H7  UNL     1      25.676   4.241  52.169  1.00  0.00     0.160 HD
ENDROOT
BRANCH  10  17
HETATM   17  N2  UNL     1      23.964   5.478  52.233  1.00  0.00    -0.339 N 
HETATM   18  H8  UNL     1      24.409   5.667  53.157  1.00  0.00     0.167 HD
BRANCH  17  19
HETATM   19  C11 UNL     1      24.101   6.368  51.132  1.00  0.00     0.035 A 
HETATM   20  C12 UNL     1      23.115   7.310  50.929  1.00  0.00     0.029 A 
HETATM   21  C13 UNL     1      23.207   8.191  49.878  1.00  0.00     0.004 A 
HETATM   22  C14 UNL     1      24.305   8.110  49.031  1.00  0.00     0.019 A 
HETATM   23  C15 UNL     1      25.245   7.157  49.282  1.00  0.00     0.013 A 
HETATM   24 BR1  UNL     1      26.754   7.066  48.095  1.00  0.00    -0.051 Br
HETATM   25  C16 UNL     1      25.210   6.244  50.321  1.00  0.00     0.048 A 
ENDBRANCH  17  19
ENDBRANCH  10  17
BRANCH   1  26
HETATM   26  C1  UNL     1      29.116  -1.398  53.332  1.00  0.00     0.176 C 
HETATM   27  O1  UNL     1      30.134  -0.697  53.445  1.00  0.00    -0.646 OA
BRANCH  26  28
HETATM   28  O2  UNL     1      29.294  -2.771  53.397  1.00  0.00    -0.773 OA
HETATM   29  H1  UNL     1      30.205  -3.211  53.597  1.00  0.00     0.167 HD
ENDBRANCH  26  28
ENDBRANCH   1  26
TORSDOF 4
ENDMDL
MODEL 5
REMARK VINA RESULT:      -8.4      4.642      7.764
REMARK  4 active torsions:
REMARK  status: ('A' for Active; 'I' for Inactive)
REMARK    1  A    between atoms: C1_2  and  O2_3 
REMARK    2  A    between atoms: C1_2  and  C2_4 
REMARK    3  A    between atoms: C10_13  and  N2_14 
REMARK    4  A    between atoms: N2_14  and  C11_15 
ROOT
HETATM    1  C2  UNL     1      28.029  -0.622  53.238  1.00  0.00     0.038 A 
HETATM    2  C3  UNL     1      28.458   0.679  53.099  1.00  0.00     0.021 A 
HETATM    3  C4  UNL     1      27.525   1.678  52.929  1.00  0.00     0.039 A 
HETATM    4  C5  UNL     1      26.186   1.378  52.899  1.00  0.00     0.086 A 
HETATM    5  C6  UNL     1      25.720   0.088  53.035  1.00  0.00    -0.006 A 
HETATM    6  C7  UNL     1      26.694  -0.903  53.205  1.00  0.00     0.029 A 
HETATM    7  C8  UNL     1      24.412  -0.611  53.055  1.00  0.00     0.161 C 
HETATM    8  N1  UNL     1      23.275   0.279  53.079  1.00  0.00    -0.379 N 
HETATM    9  C9  UNL     1      23.016   1.623  52.791  1.00  0.00     0.129 A 
HETATM   10  C10 UNL     1      21.656   1.887  52.674  1.00  0.00     0.160 A 
HETATM   11  N3  UNL     1      21.283   3.170  52.395  1.00  0.00    -0.222 NA
HETATM   12  C17 UNL     1      22.248   4.096  52.248  1.00  0.00     0.238 A 
HETATM   13  N4  UNL     1      23.585   3.853  52.359  1.00  0.00    -0.215 NA
HETATM   14  C18 UNL     1      23.991   2.585  52.638  1.00  0.00     0.202 A 
HETATM   15  O3  UNL     1      25.372   2.485  52.722  1.00  0.00    -0.289 OA
HETATM   16  H7  UNL     1      22.455  -0.286  53.408  1.00  0.00     0.160 HD
ENDROOT
BRANCH  10  17
HETATM   17  N2  UNL     1      20.741   0.817  52.851  1.00  0.00    -0.339 N 
HETATM   18  H8  UNL     1      21.011   0.253  53.685  1.00  0.00     0.167 HD
BRANCH  17  19
HETATM   19  C11 UNL     1      19.605   0.496  52.057  1.00  0.00     0.035 A 
HETATM   20  C12 UNL     1      19.530   1.021  50.784  1.00  0.00     0.029 A 
HETATM   21  C13 UNL     1      18.451   0.736  49.982  1.00  0.00     0.004 A 
HETATM   22  C14 UNL     1      17.446  -0.085  50.479  1.00  0.00     0.019 A 
HETATM   23  C15 UNL     1      17.576  -0.572  51.744  1.00  0.00     0.013 A 
HETATM   24 BR1  UNL     1      16.172  -1.704  52.408  1.00  0.00    -0.051 Br
HETATM   25  C16 UNL     1      18.635  -0.322  52.599  1.00  0.00     0.048 A 
ENDBRANCH  17  19
ENDBRANCH  10  17
BRANCH   1  26
HETATM   26  C1  UNL     1      29.015  -1.682  53.418  1.00  0.00     0.176 C 
HETATM   27  O1  UNL     1      30.177  -1.472  53.799  1.00  0.00    -0.646 OA
BRANCH  26  28
HETATM   28  O2  UNL     1      28.671  -3.000  53.161  1.00  0.00    -0.773 OA
HETATM   29  H1  UNL     1      28.730  -3.423  52.222  1.00  0.00     0.167 HD
ENDBRANCH  26  28
ENDBRANCH   1  26
TORSDOF 4
ENDMDL
MODEL 6
REMARK VINA RESULT:      -8.4      4.362      8.125
REMARK  4 active torsions:
REMARK  status: ('A' for Active; 'I' for Inactive)
REMARK    1  A    between atoms: C1_2  and  O2_3 
REMARK    2  A    between atoms: C1_2  and  C2_4 
REMARK    3  A    between atoms: C10_13  and  N2_14 
REMARK    4  A    between atoms: N2_14  and  C11_15 
ROOT
HETATM    1  C2  UNL     1      27.666  -0.343  53.191  1.00  0.00     0.038 A 
HETATM    2  C3  UNL     1      27.899   0.971  52.849  1.00  0.00     0.021 A 
HETATM    3  C4  UNL     1      26.827   1.814  52.653  1.00  0.00     0.039 A 
HETATM    4  C5  UNL     1      25.544   1.347  52.797  1.00  0.00     0.086 A 
HETATM    5  C6  UNL     1      25.273   0.039  53.138  1.00  0.00    -0.006 A 
HETATM    6  C7  UNL     1      26.384  -0.790  53.329  1.00  0.00     0.029 A 
HETATM    7  C8  UNL     1      24.079  -0.809  53.377  1.00  0.00     0.161 C 
HETATM    8  N1  UNL     1      22.837  -0.073  53.407  1.00  0.00    -0.379 N 
HETATM    9  C9  UNL     1      22.373   1.177  52.983  1.00  0.00     0.129 A 
HETATM   10  C10 UNL     1      20.984   1.250  52.974  1.00  0.00     0.160 A 
HETATM   11  N3  UNL     1      20.416   2.427  52.577  1.00  0.00    -0.222 NA
HETATM   12  C17 UNL     1      21.229   3.438  52.220  1.00  0.00     0.238 A 
HETATM   13  N4  UNL     1      22.591   3.381  52.224  1.00  0.00    -0.215 NA
HETATM   14  C18 UNL     1      23.190   2.224  52.614  1.00  0.00     0.202 A 
HETATM   15  O3  UNL     1      24.573   2.309  52.568  1.00  0.00    -0.289 OA
HETATM   16  H7  UNL     1      22.133  -0.686  53.884  1.00  0.00     0.160 HD
ENDROOT
BRANCH  10  17
HETATM   17  N2  UNL     1      20.243   0.109  53.374  1.00  0.00    -0.339 N 
HETATM   18  H8  UNL     1      20.733  -0.378  54.154  1.00  0.00     0.167 HD
BRANCH  17  19
HETATM   19  C11 UNL     1      19.012  -0.366  52.842  1.00  0.00     0.035 A 
HETATM   20  C12 UNL     1      18.354  -1.372  53.519  1.00  0.00     0.029 A 
HETATM   21  C13 UNL     1      17.161  -1.860  53.041  1.00  0.00     0.004 A 
HETATM   22  C14 UNL     1      16.639  -1.323  51.871  1.00  0.00     0.019 A 
HETATM   23  C15 UNL     1      17.335  -0.333  51.248  1.00  0.00     0.013 A 
HETATM   24 BR1  UNL     1      16.591   0.392  49.631  1.00  0.00    -0.051 Br
HETATM   25  C16 UNL     1      18.538   0.200  51.677  1.00  0.00     0.048 A 
ENDBRANCH  17  19
ENDBRANCH  10  17
BRANCH   1  26
HETATM   26  C1  UNL     1      28.799  -1.236  53.399  1.00  0.00     0.176 C 
HETATM   27  O1  UNL     1      29.926  -0.839  53.734  1.00  0.00    -0.646 OA
BRANCH  26  28
HETATM   28  O2  UNL     1      28.646  -2.603  53.223  1.00  0.00    -0.773 OA
HETATM   29  H1  UNL     1      28.958  -3.297  53.919  1.00  0.00     0.167 HD
ENDBRANCH  26  28
ENDBRANCH   1  26
TORSDOF 4
ENDMDL
MODEL 7
REMARK VINA RESULT:      -8.3      4.706      8.742
REMARK  4 active torsions:
REMARK  status: ('A' for Active; 'I' for Inactive)
REMARK    1  A    between atoms: C1_2  and  O2_3 
REMARK    2  A    between atoms: C1_2  and  C2_4 
REMARK    3  A    between atoms: C10_13  and  N2_14 
REMARK    4  A    between atoms: N2_14  and  C11_15 
ROOT
HETATM    1  C2  UNL     1      26.918   0.388  53.510  1.00  0.00     0.038 A 
HETATM    2  C3  UNL     1      27.087   1.210  52.418  1.00  0.00     0.021 A 
HETATM    3  C4  UNL     1      25.989   1.559  51.665  1.00  0.00     0.039 A 
HETATM    4  C5  UNL     1      24.742   1.091  51.999  1.00  0.00     0.086 A 
HETATM    5  C6  UNL     1      24.535   0.266  53.085  1.00  0.00    -0.006 A 
HETATM    6  C7  UNL     1      25.672  -0.069  53.828  1.00  0.00     0.029 A 
HETATM    7  C8  UNL     1      23.395  -0.417  53.743  1.00  0.00     0.161 C 
HETATM    8  N1  UNL     1      22.104  -0.034  53.221  1.00  0.00    -0.379 N 
HETATM    9  C9  UNL     1      21.603   0.578  52.066  1.00  0.00     0.129 A 
HETATM   10  C10 UNL     1      20.229   0.409  51.932  1.00  0.00     0.160 A 
HETATM   11  N3  UNL     1      19.629   0.965  50.839  1.00  0.00    -0.222 NA
HETATM   12  C17 UNL     1      20.397   1.639  49.964  1.00  0.00     0.238 A 
HETATM   13  N4  UNL     1      21.744   1.813  50.082  1.00  0.00    -0.215 NA
HETATM   14  C18 UNL     1      22.374   1.272  51.159  1.00  0.00     0.202 A 
HETATM   15  O3  UNL     1      23.738   1.527  51.150  1.00  0.00    -0.289 OA
HETATM   16  H7  UNL     1      21.392  -0.312  53.939  1.00  0.00     0.160 HD
ENDROOT
BRANCH  10  17
HETATM   17  N2  UNL     1      19.536  -0.326  52.928  1.00  0.00    -0.339 N 
HETATM   18  H8  UNL     1      20.081  -0.320  53.817  1.00  0.00     0.167 HD
BRANCH  17  19
HETATM   19  C11 UNL     1      18.288  -0.997  52.811  1.00  0.00     0.035 A 
HETATM   20  C12 UNL     1      17.252  -0.341  52.180  1.00  0.00     0.029 A 
HETATM   21  C13 UNL     1      16.028  -0.953  52.044  1.00  0.00     0.004 A 
HETATM   22  C14 UNL     1      15.860  -2.234  52.553  1.00  0.00     0.019 A 
HETATM   23  C15 UNL     1      16.920  -2.830  53.166  1.00  0.00     0.013 A 
HETATM   24 BR1  UNL     1      16.661  -4.602  53.863  1.00  0.00    -0.051 Br
HETATM   25  C16 UNL     1      18.174  -2.269  53.335  1.00  0.00     0.048 A 
ENDBRANCH  17  19
ENDBRANCH  10  17
BRANCH   1  26
HETATM   26  C1  UNL     1      28.080   0.017  54.309  1.00  0.00     0.176 C 
HETATM   27  O1  UNL     1      28.640  -1.087  54.225  1.00  0.00    -0.646 OA
BRANCH  26  28
HETATM   28  O2  UNL     1      28.612   0.918  55.219  1.00  0.00    -0.773 OA
HETATM   29  H1  UNL     1      29.282   1.655  54.954  1.00  0.00     0.167 HD
ENDBRANCH  26  28
ENDBRANCH   1  26
TORSDOF 4
ENDMDL
MODEL 8
REMARK VINA RESULT:      -8.3      2.560      4.123
REMARK  4 active torsions:
REMARK  status: ('A' for Active; 'I' for Inactive)
REMARK    1  A    between atoms: C1_2  and  O2_3 
REMARK    2  A    between atoms: C1_2  and  C2_4 
REMARK    3  A    between atoms: C10_13  and  N2_14 
REMARK    4  A    between atoms: N2_14  and  C11_15 
ROOT
HETATM    1  C2  UNL     1      23.756  -0.461  54.156  1.00  0.00     0.038 A 
HETATM    2  C3  UNL     1      22.611  -0.747  53.446  1.00  0.00     0.021 A 
HETATM    3  C4  UNL     1      22.286   0.029  52.356  1.00  0.00     0.039 A 
HETATM    4  C5  UNL     1      23.095   1.075  51.984  1.00  0.00     0.086 A 
HETATM    5  C6  UNL     1      24.248   1.391  52.671  1.00  0.00    -0.006 A 
HETATM    6  C7  UNL     1      24.548   0.583  53.773  1.00  0.00     0.029 A 
HETATM    7  C8  UNL     1      25.335   2.396  52.587  1.00  0.00     0.161 C 
HETATM    8  N1  UNL     1      25.291   3.205  51.391  1.00  0.00    -0.379 N 
HETATM    9  C9  UNL     1      24.353   3.535  50.408  1.00  0.00     0.129 A 
HETATM   10  C10 UNL     1      24.747   4.630  49.646  1.00  0.00     0.160 A 
HETATM   11  N3  UNL     1      23.907   5.043  48.653  1.00  0.00    -0.222 NA
HETATM   12  C17 UNL     1      22.756   4.371  48.470  1.00  0.00     0.238 A 
HETATM   13  N4  UNL     1      22.356   3.296  49.208  1.00  0.00    -0.215 NA
HETATM   14  C18 UNL     1      23.169   2.858  50.207  1.00  0.00     0.202 A 
HETATM   15  O3  UNL     1      22.638   1.763  50.871  1.00  0.00    -0.289 OA
HETATM   16  H7  UNL     1      26.242   3.634  51.281  1.00  0.00     0.160 HD
ENDROOT
BRANCH  10  17
HETATM   17  N2  UNL     1      25.988   5.250  49.943  1.00  0.00    -0.339 N 
HETATM   18  H8  UNL     1      26.545   4.642  50.582  1.00  0.00     0.167 HD
BRANCH  17  19
HETATM   19  C11 UNL     1      26.472   6.505  49.481  1.00  0.00     0.035 A 
HETATM   20  C12 UNL     1      26.044   7.647  50.126  1.00  0.00     0.029 A 
HETATM   21  C13 UNL     1      26.487   8.881  49.713  1.00  0.00     0.004 A 
HETATM   22  C14 UNL     1      27.368   8.951  48.641  1.00  0.00     0.019 A 
HETATM   23  C15 UNL     1      27.755   7.789  48.045  1.00  0.00     0.013 A 
HETATM   24 BR1  UNL     1      28.974   7.914  46.565  1.00  0.00    -0.051 Br
HETATM   25  C16 UNL     1      27.345   6.519  48.412  1.00  0.00     0.048 A 
ENDBRANCH  17  19
ENDBRANCH  10  17
BRANCH   1  26
HETATM   26  C1  UNL     1      24.103  -1.282  55.310  1.00  0.00     0.176 C 
HETATM   27  O1  UNL     1      25.255  -1.370  55.760  1.00  0.00    -0.646 OA
BRANCH  26  28
HETATM   28  O2  UNL     1      23.121  -2.014  55.960  1.00  0.00    -0.773 OA
HETATM   29  H1  UNL     1      23.078  -3.044  55.934  1.00  0.00     0.167 HD
ENDBRANCH  26  28
ENDBRANCH   1  26
TORSDOF 4
ENDMDL
MODEL 9
REMARK VINA RESULT:      -8.2      4.077      8.362
REMARK  4 active torsions:
REMARK  status: ('A' for Active; 'I' for Inactive)
REMARK    1  A    between atoms: C1_2  and  O2_3 
REMARK    2  A    between atoms: C1_2  and  C2_4 
REMARK    3  A    between atoms: C10_13  and  N2_14 
REMARK    4  A    between atoms: N2_14  and  C11_15 
ROOT
HETATM    1  C2  UNL     1      25.855   3.255  50.455  1.00  0.00     0.038 A 
HETATM    2  C3  UNL     1      26.792   2.423  51.027  1.00  0.00     0.021 A 
HETATM    3  C4  UNL     1      26.376   1.450  51.908  1.00  0.00     0.039 A 
HETATM    4  C5  UNL     1      25.044   1.313  52.212  1.00  0.00     0.086 A 
HETATM    5  C6  UNL     1      24.079   2.127  51.659  1.00  0.00    -0.006 A 
HETATM    6  C7  UNL     1      24.535   3.106  50.769  1.00  0.00     0.029 A 
HETATM    7  C8  UNL     1      22.606   2.289  51.730  1.00  0.00     0.161 C 
HETATM    8  N1  UNL     1      21.939   1.238  52.463  1.00  0.00    -0.379 N 
HETATM    9  C9  UNL     1      22.288   0.252  53.392  1.00  0.00     0.129 A 
HETATM   10  C10 UNL     1      21.177  -0.292  54.029  1.00  0.00     0.160 A 
HETATM   11  N3  UNL     1      21.397  -1.268  54.957  1.00  0.00    -0.222 NA
HETATM   12  C17 UNL     1      22.666  -1.643  55.200  1.00  0.00     0.238 A 
HETATM   13  N4  UNL     1      23.765  -1.119  54.585  1.00  0.00    -0.215 NA
HETATM   14  C18 UNL     1      23.581  -0.145  53.653  1.00  0.00     0.202 A 
HETATM   15  O3  UNL     1      24.781   0.293  53.112  1.00  0.00    -0.289 OA
HETATM   16  H7  UNL     1      20.928   1.271  52.187  1.00  0.00     0.160 HD
ENDROOT
BRANCH  10  17
HETATM   17  N2  UNL     1      19.891   0.194  53.680  1.00  0.00    -0.339 N 
HETATM   18  H8  UNL     1      19.834   1.218  53.870  1.00  0.00     0.167 HD
BRANCH  17  19
HETATM   19  C11 UNL     1      18.793  -0.538  53.148  1.00  0.00     0.035 A 
HETATM   20  C12 UNL     1      18.055   0.038  52.136  1.00  0.00     0.029 A 
HETATM   21  C13 UNL     1      16.986  -0.634  51.592  1.00  0.00     0.004 A 
HETATM   22  C14 UNL     1      16.669  -1.894  52.081  1.00  0.00     0.019 A 
HETATM   23  C15 UNL     1      17.435  -2.410  53.082  1.00  0.00     0.013 A 
HETATM   24 BR1  UNL     1      16.974  -4.155  53.742  1.00  0.00    -0.051 Br
HETATM   25  C16 UNL     1      18.520  -1.785  53.671  1.00  0.00     0.048 A 
ENDBRANCH  17  19
ENDBRANCH  10  17
BRANCH   1  26
HETATM   26  C1  UNL     1      26.293   4.286  49.521  1.00  0.00     0.176 C 
HETATM   27  O1  UNL     1      25.513   5.071  48.960  1.00  0.00    -0.646 OA
BRANCH  26  28
HETATM   28  O2  UNL     1      27.639   4.424  49.222  1.00  0.00    -0.773 OA
HETATM   29  H1  UNL     1      28.391   4.105  49.852  1.00  0.00     0.167 HD
ENDBRANCH  26  28
ENDBRANCH   1  26
TORSDOF 4
ENDMDL
