MODEL 1
REMARK VINA RESULT:      -8.1      0.000      0.000
REMARK  9 active torsions:
REMARK  status: ('A' for Active; 'I' for Inactive)
REMARK    1  A    between atoms: C2_2  and  C3_3 
REMARK    2  A    between atoms: C4_4  and  O1_5 
REMARK    3  A    between atoms: O1_5  and  C5_6 
REMARK    4  A    between atoms: C5_6  and  C6_7 
REMARK    5  A    between atoms: C6_7  and  C7_8 
REMARK    6  A    between atoms: C7_8  and  N1_9 
REMARK    7  A    between atoms: C14_19  and  N4_20 
REMARK    8  A    between atoms: N4_20  and  C15_21 
REMARK    9  A    between atoms: C19_25  and  C20_26 
ROOT
HETATM    1  C3  UNL     1      26.054   5.714  49.248  1.00  0.00    -0.025 C 
HETATM    2  C4  UNL     1      25.458   6.326  50.243  1.00  0.00     0.078 C 
HETATM    3  C12 UNL     1      24.384   5.651  51.068  1.00  0.00     0.202 A 
HETATM    4  N2  UNL     1      23.093   6.142  50.722  1.00  0.00    -0.268 NA
HETATM    5  C13 UNL     1      22.091   5.394  50.462  1.00  0.00     0.229 A 
HETATM    6  N3  UNL     1      22.160   3.977  50.489  1.00  0.00    -0.226 NA
HETATM    7  C14 UNL     1      23.295   3.419  50.790  1.00  0.00     0.137 A 
HETATM    8  C22 UNL     1      24.534   4.177  51.100  1.00  0.00     0.222 A 
HETATM    9  O3  UNL     1      25.603   3.728  50.309  1.00  0.00    -0.371 OA
HETATM   10  C23 UNL     1      25.554   4.313  49.042  1.00  0.00     0.205 C 
ENDROOT
BRANCH   7  11
HETATM   11  N4  UNL     1      23.282   2.016  50.797  1.00  0.00    -0.342 N 
HETATM   12  H22 UNL     1      22.957   1.517  49.913  1.00  0.00     0.167 HD
BRANCH  11  13
HETATM   13  C15 UNL     1      23.660   1.176  51.877  1.00  0.00     0.034 A 
HETATM   14  C16 UNL     1      25.009   0.897  52.127  1.00  0.00     0.029 A 
HETATM   15  C17 UNL     1      25.446   0.090  53.149  1.00  0.00     0.003 A 
HETATM   16  C18 UNL     1      24.542  -0.494  53.996  1.00  0.00     0.016 A 
HETATM   17  C19 UNL     1      23.201  -0.251  53.791  1.00  0.00     0.050 A 
HETATM   18  C21 UNL     1      22.817   0.566  52.750  1.00  0.00     0.045 A 
BRANCH  17  19
HETATM   19  C20 UNL     1      22.246  -0.894  54.719  1.00  0.00     0.417 C 
HETATM   20  F1  UNL     1      21.438  -1.838  54.105  1.00  0.00    -0.166 F 
HETATM   21  F2  UNL     1      21.378   0.087  55.180  1.00  0.00    -0.166 F 
HETATM   22  F3  UNL     1      22.833  -1.494  55.800  1.00  0.00    -0.166 F 
ENDBRANCH  17  19
ENDBRANCH  11  13
ENDBRANCH   7  11
BRANCH   2  23
HETATM   23  O1  UNL     1      25.861   7.637  50.511  1.00  0.00    -0.353 OA
BRANCH  23  24
HETATM   24  C5  UNL     1      25.082   8.665  49.982  1.00  0.00     0.177 C 
BRANCH  24  25
HETATM   25  C6  UNL     1      25.898   9.679  49.168  1.00  0.00     0.057 C 
BRANCH  25  26
HETATM   26  C7  UNL     1      27.303   9.567  49.739  1.00  0.00     0.274 C 
BRANCH  26  27
HETATM   27  N1  UNL     1      28.341   9.788  48.784  1.00  0.00     0.092 N 
HETATM   28  C8  UNL     1      29.560   9.223  49.378  1.00  0.00     0.298 C 
HETATM   29  C9  UNL     1      30.772   9.529  48.562  1.00  0.00     0.198 C 
HETATM   30  O2  UNL     1      30.973  10.871  48.319  1.00  0.00    -0.388 OA
HETATM   31  C10 UNL     1      29.980  11.593  48.961  1.00  0.00     0.198 C 
HETATM   32  C11 UNL     1      28.596  11.160  48.462  1.00  0.00     0.298 C 
ENDBRANCH  26  27
ENDBRANCH  25  26
ENDBRANCH  24  25
ENDBRANCH  23  24
ENDBRANCH   2  23
BRANCH   1  33
HETATM   33  C2  UNL     1      27.100   6.208  48.356  1.00  0.00     0.034 C 
HETATM   34  C1  UNL     1      28.378   5.446  48.414  1.00  0.00     0.010 C 
ENDBRANCH   1  33
TORSDOF 9
ENDMDL
MODEL 2
REMARK VINA RESULT:      -8.1      1.341      2.003
REMARK  9 active torsions:
REMARK  status: ('A' for Active; 'I' for Inactive)
REMARK    1  A    between atoms: C2_2  and  C3_3 
REMARK    2  A    between atoms: C4_4  and  O1_5 
REMARK    3  A    between atoms: O1_5  and  C5_6 
REMARK    4  A    between atoms: C5_6  and  C6_7 
REMARK    5  A    between atoms: C6_7  and  C7_8 
REMARK    6  A    between atoms: C7_8  and  N1_9 
REMARK    7  A    between atoms: C14_19  and  N4_20 
REMARK    8  A    between atoms: N4_20  and  C15_21 
REMARK    9  A    between atoms: C19_25  and  C20_26 
ROOT
HETATM    1  C3  UNL     1      25.614   5.467  49.450  1.00  0.00    -0.025 C 
HETATM    2  C4  UNL     1      25.033   6.087  50.448  1.00  0.00     0.078 C 
HETATM    3  C12 UNL     1      23.901   5.457  51.231  1.00  0.00     0.202 A 
HETATM    4  N2  UNL     1      22.650   6.033  50.870  1.00  0.00    -0.268 NA
HETATM    5  C13 UNL     1      21.611   5.354  50.567  1.00  0.00     0.229 A 
HETATM    6  N3  UNL     1      21.595   3.935  50.556  1.00  0.00    -0.226 NA
HETATM    7  C14 UNL     1      22.688   3.303  50.867  1.00  0.00     0.137 A 
HETATM    8  C22 UNL     1      23.961   3.976  51.225  1.00  0.00     0.222 A 
HETATM    9  O3  UNL     1      25.020   3.484  50.445  1.00  0.00    -0.371 OA
HETATM   10  C23 UNL     1      25.036   4.104  49.195  1.00  0.00     0.205 C 
ENDROOT
BRANCH   7  11
HETATM   11  N4  UNL     1      22.591   1.903  50.835  1.00  0.00    -0.342 N 
HETATM   12  H22 UNL     1      22.415   1.438  49.892  1.00  0.00     0.167 HD
BRANCH  11  13
HETATM   13  C15 UNL     1      22.701   1.026  51.945  1.00  0.00     0.034 A 
HETATM   14  C16 UNL     1      21.562   0.439  52.508  1.00  0.00     0.029 A 
HETATM   15  C17 UNL     1      21.595  -0.413  53.585  1.00  0.00     0.003 A 
HETATM   16  C18 UNL     1      22.790  -0.733  54.171  1.00  0.00     0.016 A 
HETATM   17  C19 UNL     1      23.942  -0.181  53.653  1.00  0.00     0.050 A 
HETATM   18  C21 UNL     1      23.852   0.669  52.571  1.00  0.00     0.045 A 
BRANCH  17  19
HETATM   19  C20 UNL     1      25.220  -0.542  54.303  1.00  0.00     0.417 C 
HETATM   20  F1  UNL     1      25.052  -1.178  55.523  1.00  0.00    -0.166 F 
HETATM   21  F2  UNL     1      25.895   0.636  54.592  1.00  0.00    -0.166 F 
HETATM   22  F3  UNL     1      26.035  -1.330  53.536  1.00  0.00    -0.166 F 
ENDBRANCH  17  19
ENDBRANCH  11  13
ENDBRANCH   7  11
BRANCH   2  23
HETATM   23  O1  UNL     1      25.506   7.364  50.762  1.00  0.00    -0.353 OA
BRANCH  23  24
HETATM   24  C5  UNL     1      24.903   8.444  50.119  1.00  0.00     0.177 C 
BRANCH  24  25
HETATM   25  C6  UNL     1      25.913   9.377  49.436  1.00  0.00     0.057 C 
BRANCH  25  26
HETATM   26  C7  UNL     1      27.193   9.183  50.233  1.00  0.00     0.274 C 
BRANCH  26  27
HETATM   27  N1  UNL     1      28.360   9.714  49.603  1.00  0.00     0.092 N 
HETATM   28  C8  UNL     1      27.872  10.626  48.559  1.00  0.00     0.298 C 
HETATM   29  C9  UNL     1      28.981  11.133  47.699  1.00  0.00     0.198 C 
HETATM   30  O2  UNL     1      29.746  10.147  47.112  1.00  0.00    -0.388 OA
HETATM   31  C10 UNL     1      29.225   8.913  47.461  1.00  0.00     0.198 C 
HETATM   32  C11 UNL     1      29.218   8.748  48.986  1.00  0.00     0.298 C 
ENDBRANCH  26  27
ENDBRANCH  25  26
ENDBRANCH  24  25
ENDBRANCH  23  24
ENDBRANCH   2  23
BRANCH   1  33
HETATM   33  C2  UNL     1      26.709   5.920  48.595  1.00  0.00     0.034 C 
HETATM   34  C1  UNL     1      27.896   5.022  48.576  1.00  0.00     0.010 C 
ENDBRANCH   1  33
TORSDOF 9
ENDMDL
MODEL 3
REMARK VINA RESULT:      -8.0      5.777      9.581
REMARK  9 active torsions:
REMARK  status: ('A' for Active; 'I' for Inactive)
REMARK    1  A    between atoms: C2_2  and  C3_3 
REMARK    2  A    between atoms: C4_4  and  O1_5 
REMARK    3  A    between atoms: O1_5  and  C5_6 
REMARK    4  A    between atoms: C5_6  and  C6_7 
REMARK    5  A    between atoms: C6_7  and  C7_8 
REMARK    6  A    between atoms: C7_8  and  N1_9 
REMARK    7  A    between atoms: C14_19  and  N4_20 
REMARK    8  A    between atoms: N4_20  and  C15_21 
REMARK    9  A    between atoms: C19_25  and  C20_26 
ROOT
HETATM    1  C3  UNL     1      21.006   1.216  52.891  1.00  0.00    -0.025 C 
HETATM    2  C4  UNL     1      20.710   2.368  52.338  1.00  0.00     0.078 C 
HETATM    3  C12 UNL     1      21.759   3.226  51.665  1.00  0.00     0.202 A 
HETATM    4  N2  UNL     1      22.109   4.338  52.482  1.00  0.00    -0.268 NA
HETATM    5  C13 UNL     1      23.311   4.674  52.755  1.00  0.00     0.229 A 
HETATM    6  N3  UNL     1      24.438   3.965  52.266  1.00  0.00    -0.226 NA
HETATM    7  C14 UNL     1      24.235   2.927  51.510  1.00  0.00     0.137 A 
HETATM    8  C22 UNL     1      22.889   2.428  51.131  1.00  0.00     0.222 A 
HETATM    9  O3  UNL     1      22.765   1.060  51.422  1.00  0.00    -0.371 OA
HETATM   10  C23 UNL     1      22.463   0.872  52.772  1.00  0.00     0.205 C 
ENDROOT
BRANCH   7  11
HETATM   11  N4  UNL     1      25.399   2.281  51.065  1.00  0.00    -0.342 N 
HETATM   12  H22 UNL     1      25.729   2.479  50.071  1.00  0.00     0.167 HD
BRANCH  11  13
HETATM   13  C15 UNL     1      26.196   1.373  51.811  1.00  0.00     0.034 A 
HETATM   14  C16 UNL     1      25.908   0.004  51.811  1.00  0.00     0.029 A 
HETATM   15  C17 UNL     1      26.632  -0.929  52.513  1.00  0.00     0.003 A 
HETATM   16  C18 UNL     1      27.704  -0.538  53.269  1.00  0.00     0.016 A 
HETATM   17  C19 UNL     1      28.028   0.801  53.303  1.00  0.00     0.050 A 
HETATM   18  C21 UNL     1      27.268   1.695  52.580  1.00  0.00     0.045 A 
BRANCH  17  19
HETATM   19  C20 UNL     1      29.190   1.198  54.127  1.00  0.00     0.417 C 
HETATM   20  F1  UNL     1      29.033   0.906  55.472  1.00  0.00    -0.166 F 
HETATM   21  F2  UNL     1      29.303   2.581  54.062  1.00  0.00    -0.166 F 
HETATM   22  F3  UNL     1      30.377   0.649  53.721  1.00  0.00    -0.166 F 
ENDBRANCH  17  19
ENDBRANCH  11  13
ENDBRANCH   7  11
BRANCH   2  23
HETATM   23  O1  UNL     1      19.374   2.773  52.398  1.00  0.00    -0.353 OA
BRANCH  23  24
HETATM   24  C5  UNL     1      18.807   3.281  51.229  1.00  0.00     0.177 C 
BRANCH  24  25
HETATM   25  C6  UNL     1      17.314   2.955  51.093  1.00  0.00     0.057 C 
BRANCH  25  26
HETATM   26  C7  UNL     1      16.615   4.198  51.621  1.00  0.00     0.274 C 
BRANCH  26  27
HETATM   27  N1  UNL     1      15.213   4.031  51.841  1.00  0.00     0.092 N 
HETATM   28  C8  UNL     1      14.985   4.364  53.253  1.00  0.00     0.298 C 
HETATM   29  C9  UNL     1      13.584   4.074  53.676  1.00  0.00     0.198 C 
HETATM   30  O2  UNL     1      13.176   2.776  53.450  1.00  0.00    -0.388 OA
HETATM   31  C10 UNL     1      14.235   2.064  52.912  1.00  0.00     0.198 C 
HETATM   32  C11 UNL     1      14.708   2.713  51.606  1.00  0.00     0.298 C 
ENDBRANCH  26  27
ENDBRANCH  25  26
ENDBRANCH  24  25
ENDBRANCH  23  24
ENDBRANCH   2  23
BRANCH   1  33
HETATM   33  C2  UNL     1      20.129   0.270  53.575  1.00  0.00     0.034 C 
HETATM   34  C1  UNL     1      20.825  -0.907  54.165  1.00  0.00     0.010 C 
ENDBRANCH   1  33
TORSDOF 9
ENDMDL
MODEL 4
REMARK VINA RESULT:      -7.9      2.248      2.802
REMARK  9 active torsions:
REMARK  status: ('A' for Active; 'I' for Inactive)
REMARK    1  A    between atoms: C2_2  and  C3_3 
REMARK    2  A    between atoms: C4_4  and  O1_5 
REMARK    3  A    between atoms: O1_5  and  C5_6 
REMARK    4  A    between atoms: C5_6  and  C6_7 
REMARK    5  A    between atoms: C6_7  and  C7_8 
REMARK    6  A    between atoms: C7_8  and  N1_9 
REMARK    7  A    between atoms: C14_19  and  N4_20 
REMARK    8  A    between atoms: N4_20  and  C15_21 
REMARK    9  A    between atoms: C19_25  and  C20_26 
ROOT
HETATM    1  C3  UNL     1      25.556   5.625  49.008  1.00  0.00    -0.025 C 
HETATM    2  C4  UNL     1      24.401   6.051  48.556  1.00  0.00     0.078 C 
HETATM    3  C12 UNL     1      23.089   5.546  49.116  1.00  0.00     0.202 A 
HETATM    4  N2  UNL     1      22.473   4.627  48.219  1.00  0.00    -0.268 NA
HETATM    5  C13 UNL     1      22.019   3.485  48.567  1.00  0.00     0.229 A 
HETATM    6  N3  UNL     1      22.084   3.005  49.901  1.00  0.00    -0.226 NA
HETATM    7  C14 UNL     1      22.631   3.763  50.805  1.00  0.00     0.137 A 
HETATM    8  C22 UNL     1      23.204   5.103  50.526  1.00  0.00     0.222 A 
HETATM    9  O3  UNL     1      24.519   5.193  51.011  1.00  0.00    -0.371 OA
HETATM   10  C23 UNL     1      25.414   4.614  50.110  1.00  0.00     0.205 C 
ENDROOT
BRANCH   7  11
HETATM   11  N4  UNL     1      22.654   3.219  52.099  1.00  0.00    -0.342 N 
HETATM   12  H22 UNL     1      22.161   3.759  52.875  1.00  0.00     0.167 HD
BRANCH  11  13
HETATM   13  C15 UNL     1      23.279   2.007  52.491  1.00  0.00     0.034 A 
HETATM   14  C16 UNL     1      22.542   0.993  53.114  1.00  0.00     0.029 A 
HETATM   15  C17 UNL     1      23.081  -0.202  53.525  1.00  0.00     0.003 A 
HETATM   16  C18 UNL     1      24.412  -0.456  53.331  1.00  0.00     0.016 A 
HETATM   17  C19 UNL     1      25.182   0.511  52.721  1.00  0.00     0.050 A 
HETATM   18  C21 UNL     1      24.590   1.693  52.330  1.00  0.00     0.045 A 
BRANCH  17  19
HETATM   19  C20 UNL     1      26.617   0.213  52.524  1.00  0.00     0.417 C 
HETATM   20  F1  UNL     1      27.306   1.233  51.887  1.00  0.00    -0.166 F 
HETATM   21  F2  UNL     1      26.708  -0.880  51.672  1.00  0.00    -0.166 F 
HETATM   22  F3  UNL     1      27.291  -0.082  53.678  1.00  0.00    -0.166 F 
ENDBRANCH  17  19
ENDBRANCH  11  13
ENDBRANCH   7  11
BRANCH   2  23
HETATM   23  O1  UNL     1      24.434   6.997  47.529  1.00  0.00    -0.353 OA
BRANCH  23  24
HETATM   24  C5  UNL     1      24.247   8.332  47.883  1.00  0.00     0.177 C 
BRANCH  24  25
HETATM   25  C6  UNL     1      25.456   9.218  47.551  1.00  0.00     0.057 C 
BRANCH  25  26
HETATM   26  C7  UNL     1      25.838   9.838  48.886  1.00  0.00     0.274 C 
BRANCH  26  27
HETATM   27  N1  UNL     1      27.192  10.289  48.954  1.00  0.00     0.092 N 
HETATM   28  C8  UNL     1      27.710  10.213  47.582  1.00  0.00     0.298 C 
HETATM   29  C9  UNL     1      29.174  10.496  47.521  1.00  0.00     0.198 C 
HETATM   30  O2  UNL     1      29.945   9.695  48.337  1.00  0.00    -0.388 OA
HETATM   31  C10 UNL     1      29.120   8.786  48.977  1.00  0.00     0.198 C 
HETATM   32  C11 UNL     1      28.053   9.519  49.800  1.00  0.00     0.298 C 
ENDBRANCH  26  27
ENDBRANCH  25  26
ENDBRANCH  24  25
ENDBRANCH  23  24
ENDBRANCH   2  23
BRANCH   1  33
HETATM   33  C2  UNL     1      26.905   6.000  48.589  1.00  0.00     0.034 C 
HETATM   34  C1  UNL     1      27.885   4.880  48.572  1.00  0.00     0.010 C 
ENDBRANCH   1  33
TORSDOF 9
ENDMDL
MODEL 5
REMARK VINA RESULT:      -7.9      4.654      8.037
REMARK  9 active torsions:
REMARK  status: ('A' for Active; 'I' for Inactive)
REMARK    1  A    between atoms: C2_2  and  C3_3 
REMARK    2  A    between atoms: C4_4  and  O1_5 
REMARK    3  A    between atoms: O1_5  and  C5_6 
REMARK    4  A    between atoms: C5_6  and  C6_7 
REMARK    5  A    between atoms: C6_7  and  C7_8 
REMARK    6  A    between atoms: C7_8  and  N1_9 
REMARK    7  A    between atoms: C14_19  and  N4_20 
REMARK    8  A    between atoms: N4_20  and  C15_21 
REMARK    9  A    between atoms: C19_25  and  C20_26 
ROOT
HETATM    1  C3  UNL     1      22.076   4.007  51.130  1.00  0.00    -0.025 C 
HETATM    2  C4  UNL     1      22.414   3.301  50.078  1.00  0.00     0.078 C 
HETATM    3  C12 UNL     1      23.794   2.696  49.931  1.00  0.00     0.202 A 
HETATM    4  N2  UNL     1      24.576   3.434  48.997  1.00  0.00    -0.268 NA
HETATM    5  C13 UNL     1      25.767   3.837  49.223  1.00  0.00     0.229 A 
HETATM    6  N3  UNL     1      26.444   3.590  50.445  1.00  0.00    -0.226 NA
HETATM    7  C14 UNL     1      25.821   2.926  51.374  1.00  0.00     0.137 A 
HETATM    8  C22 UNL     1      24.434   2.415  51.238  1.00  0.00     0.222 A 
HETATM    9  O3  UNL     1      23.644   2.827  52.323  1.00  0.00    -0.371 OA
HETATM   10  C23 UNL     1      23.190   4.133  52.130  1.00  0.00     0.205 C 
ENDROOT
BRANCH   7  11
HETATM   11  N4  UNL     1      26.558   2.721  52.551  1.00  0.00    -0.342 N 
HETATM   12  H22 UNL     1      26.544   3.491  53.287  1.00  0.00     0.167 HD
BRANCH  11  13
HETATM   13  C15 UNL     1      27.335   1.576  52.869  1.00  0.00     0.034 A 
HETATM   14  C16 UNL     1      28.599   1.712  53.454  1.00  0.00     0.029 A 
HETATM   15  C17 UNL     1      29.406   0.650  53.782  1.00  0.00     0.003 A 
HETATM   16  C18 UNL     1      28.988  -0.631  53.541  1.00  0.00     0.016 A 
HETATM   17  C19 UNL     1      27.749  -0.817  52.966  1.00  0.00     0.050 A 
HETATM   18  C21 UNL     1      26.980   0.283  52.655  1.00  0.00     0.045 A 
BRANCH  17  19
HETATM   19  C20 UNL     1      27.320  -2.210  52.716  1.00  0.00     0.417 C 
HETATM   20  F1  UNL     1      26.735  -2.388  51.472  1.00  0.00    -0.166 F 
HETATM   21  F2  UNL     1      26.326  -2.519  53.637  1.00  0.00    -0.166 F 
HETATM   22  F3  UNL     1      28.322  -3.135  52.836  1.00  0.00    -0.166 F 
ENDBRANCH  17  19
ENDBRANCH  11  13
ENDBRANCH   7  11
BRANCH   2  23
HETATM   23  O1  UNL     1      21.440   3.128  49.092  1.00  0.00    -0.353 OA
BRANCH  23  24
HETATM   24  C5  UNL     1      20.773   1.903  49.060  1.00  0.00     0.177 C 
BRANCH  24  25
HETATM   25  C6  UNL     1      21.502   0.801  49.841  1.00  0.00     0.057 C 
BRANCH  25  26
HETATM   26  C7  UNL     1      20.493   0.365  50.892  1.00  0.00     0.274 C 
BRANCH  26  27
HETATM   27  N1  UNL     1      20.954   0.501  52.237  1.00  0.00     0.092 N 
HETATM   28  C8  UNL     1      22.171  -0.317  52.328  1.00  0.00     0.298 C 
HETATM   29  C9  UNL     1      22.678  -0.408  53.729  1.00  0.00     0.198 C 
HETATM   30  O2  UNL     1      21.755  -0.873  54.642  1.00  0.00    -0.388 OA
HETATM   31  C10 UNL     1      20.583  -1.180  53.972  1.00  0.00     0.198 C 
HETATM   32  C11 UNL     1      20.041   0.057  53.246  1.00  0.00     0.298 C 
ENDBRANCH  26  27
ENDBRANCH  25  26
ENDBRANCH  24  25
ENDBRANCH  23  24
ENDBRANCH   2  23
BRANCH   1  33
HETATM   33  C2  UNL     1      20.803   4.657  51.433  1.00  0.00     0.034 C 
HETATM   34  C1  UNL     1      19.749   3.744  51.955  1.00  0.00     0.010 C 
ENDBRANCH   1  33
TORSDOF 9
ENDMDL
MODEL 6
REMARK VINA RESULT:      -7.8      2.691      3.610
REMARK  9 active torsions:
REMARK  status: ('A' for Active; 'I' for Inactive)
REMARK    1  A    between atoms: C2_2  and  C3_3 
REMARK    2  A    between atoms: C4_4  and  O1_5 
REMARK    3  A    between atoms: O1_5  and  C5_6 
REMARK    4  A    between atoms: C5_6  and  C6_7 
REMARK    5  A    between atoms: C6_7  and  C7_8 
REMARK    6  A    between atoms: C7_8  and  N1_9 
REMARK    7  A    between atoms: C14_19  and  N4_20 
REMARK    8  A    between atoms: N4_20  and  C15_21 
REMARK    9  A    between atoms: C19_25  and  C20_26 
ROOT
HETATM    1  C3  UNL     1      24.207   4.023  49.590  1.00  0.00    -0.025 C 
HETATM    2  C4  UNL     1      23.104   4.207  48.905  1.00  0.00     0.078 C 
HETATM    3  C12 UNL     1      21.791   3.580  49.320  1.00  0.00     0.202 A 
HETATM    4  N2  UNL     1      21.468   2.474  48.483  1.00  0.00    -0.268 NA
HETATM    5  C13 UNL     1      21.113   1.328  48.920  1.00  0.00     0.229 A 
HETATM    6  N3  UNL     1      21.003   1.031  50.304  1.00  0.00    -0.226 NA
HETATM    7  C14 UNL     1      21.279   1.970  51.161  1.00  0.00     0.137 A 
HETATM    8  C22 UNL     1      21.713   3.337  50.780  1.00  0.00     0.222 A 
HETATM    9  O3  UNL     1      22.898   3.686  51.447  1.00  0.00    -0.371 OA
HETATM   10  C23 UNL     1      24.006   3.146  50.792  1.00  0.00     0.205 C 
ENDROOT
BRANCH   7  11
HETATM   11  N4  UNL     1      21.145   1.600  52.508  1.00  0.00    -0.342 N 
HETATM   12  H22 UNL     1      20.337   2.020  53.062  1.00  0.00     0.167 HD
BRANCH  11  13
HETATM   13  C15 UNL     1      21.989   0.711  53.225  1.00  0.00     0.034 A 
HETATM   14  C16 UNL     1      21.461  -0.147  54.197  1.00  0.00     0.029 A 
HETATM   15  C17 UNL     1      22.218  -1.026  54.931  1.00  0.00     0.003 A 
HETATM   16  C18 UNL     1      23.570  -1.100  54.731  1.00  0.00     0.016 A 
HETATM   17  C19 UNL     1      24.139  -0.276  53.784  1.00  0.00     0.050 A 
HETATM   18  C21 UNL     1      23.333   0.590  53.076  1.00  0.00     0.045 A 
BRANCH  17  19
HETATM   19  C20 UNL     1      25.601  -0.375  53.588  1.00  0.00     0.417 C 
HETATM   20  F1  UNL     1      25.998  -1.579  53.028  1.00  0.00    -0.166 F 
HETATM   21  F2  UNL     1      26.200  -0.336  54.840  1.00  0.00    -0.166 F 
HETATM   22  F3  UNL     1      26.132   0.630  52.825  1.00  0.00    -0.166 F 
ENDBRANCH  17  19
ENDBRANCH  11  13
ENDBRANCH   7  11
BRANCH   2  23
HETATM   23  O1  UNL     1      23.193   5.013  47.767  1.00  0.00    -0.353 OA
BRANCH  23  24
HETATM   24  C5  UNL     1      22.475   6.208  47.773  1.00  0.00     0.177 C 
BRANCH  24  25
HETATM   25  C6  UNL     1      23.262   7.381  48.374  1.00  0.00     0.057 C 
BRANCH  25  26
HETATM   26  C7  UNL     1      24.369   7.639  47.364  1.00  0.00     0.274 C 
BRANCH  26  27
HETATM   27  N1  UNL     1      25.564   8.179  47.932  1.00  0.00     0.092 N 
HETATM   28  C8  UNL     1      25.286   8.347  49.364  1.00  0.00     0.298 C 
HETATM   29  C9  UNL     1      26.391   9.063  50.067  1.00  0.00     0.198 C 
HETATM   30  O2  UNL     1      26.713  10.289  49.524  1.00  0.00    -0.388 OA
HETATM   31  C10 UNL     1      25.859  10.546  48.465  1.00  0.00     0.198 C 
HETATM   32  C11 UNL     1      25.976   9.444  47.405  1.00  0.00     0.298 C 
ENDBRANCH  26  27
ENDBRANCH  25  26
ENDBRANCH  24  25
ENDBRANCH  23  24
ENDBRANCH   2  23
BRANCH   1  33
HETATM   33  C2  UNL     1      25.547   4.546  49.337  1.00  0.00     0.034 C 
HETATM   34  C1  UNL     1      26.655   3.629  49.723  1.00  0.00     0.010 C 
ENDBRANCH   1  33
TORSDOF 9
ENDMDL
MODEL 7
REMARK VINA RESULT:      -7.8      6.208      8.603
REMARK  9 active torsions:
REMARK  status: ('A' for Active; 'I' for Inactive)
REMARK    1  A    between atoms: C2_2  and  C3_3 
REMARK    2  A    between atoms: C4_4  and  O1_5 
REMARK    3  A    between atoms: O1_5  and  C5_6 
REMARK    4  A    between atoms: C5_6  and  C6_7 
REMARK    5  A    between atoms: C6_7  and  C7_8 
REMARK    6  A    between atoms: C7_8  and  N1_9 
REMARK    7  A    between atoms: C14_19  and  N4_20 
REMARK    8  A    between atoms: N4_20  and  C15_21 
REMARK    9  A    between atoms: C19_25  and  C20_26 
ROOT
HETATM    1  C3  UNL     1      21.439   0.955  52.511  1.00  0.00    -0.025 C 
HETATM    2  C4  UNL     1      22.199   1.712  51.757  1.00  0.00     0.078 C 
HETATM    3  C12 UNL     1      21.645   2.903  51.004  1.00  0.00     0.202 A 
HETATM    4  N2  UNL     1      21.513   2.610  49.617  1.00  0.00    -0.268 NA
HETATM    5  C13 UNL     1      20.455   2.836  48.936  1.00  0.00     0.229 A 
HETATM    6  N3  UNL     1      19.285   3.407  49.500  1.00  0.00    -0.226 NA
HETATM    7  C14 UNL     1      19.292   3.711  50.764  1.00  0.00     0.137 A 
HETATM    8  C22 UNL     1      20.453   3.488  51.662  1.00  0.00     0.222 A 
HETATM    9  O3  UNL     1      20.065   2.772  52.807  1.00  0.00    -0.371 OA
HETATM   10  C23 UNL     1      20.006   1.405  52.532  1.00  0.00     0.205 C 
ENDROOT
BRANCH   7  11
HETATM   11  N4  UNL     1      18.100   4.273  51.245  1.00  0.00    -0.342 N 
HETATM   12  H22 UNL     1      18.038   5.336  51.302  1.00  0.00     0.167 HD
BRANCH  11  13
HETATM   13  C15 UNL     1      16.948   3.563  51.675  1.00  0.00     0.034 A 
HETATM   14  C16 UNL     1      16.818   2.193  51.422  1.00  0.00     0.029 A 
HETATM   15  C17 UNL     1      15.730   1.446  51.803  1.00  0.00     0.003 A 
HETATM   16  C18 UNL     1      14.692   2.037  52.472  1.00  0.00     0.016 A 
HETATM   17  C19 UNL     1      14.773   3.386  52.746  1.00  0.00     0.050 A 
HETATM   18  C21 UNL     1      15.887   4.088  52.340  1.00  0.00     0.045 A 
BRANCH  17  19
HETATM   19  C20 UNL     1      13.639   4.000  53.469  1.00  0.00     0.417 C 
HETATM   20  F1  UNL     1      12.751   3.070  53.987  1.00  0.00    -0.166 F 
HETATM   21  F2  UNL     1      12.904   4.740  52.553  1.00  0.00    -0.166 F 
HETATM   22  F3  UNL     1      14.012   4.829  54.493  1.00  0.00    -0.166 F 
ENDBRANCH  17  19
ENDBRANCH  11  13
ENDBRANCH   7  11
BRANCH   2  23
HETATM   23  O1  UNL     1      23.551   1.372  51.677  1.00  0.00    -0.353 OA
BRANCH  23  24
HETATM   24  C5  UNL     1      24.444   2.113  52.451  1.00  0.00     0.177 C 
BRANCH  24  25
HETATM   25  C6  UNL     1      25.678   2.579  51.666  1.00  0.00     0.057 C 
BRANCH  25  26
HETATM   26  C7  UNL     1      26.569   1.348  51.615  1.00  0.00     0.274 C 
BRANCH  26  27
HETATM   27  N1  UNL     1      26.847   0.774  52.894  1.00  0.00     0.092 N 
HETATM   28  C8  UNL     1      28.139   1.335  53.313  1.00  0.00     0.298 C 
HETATM   29  C9  UNL     1      28.644   0.697  54.564  1.00  0.00     0.198 C 
HETATM   30  O2  UNL     1      28.749  -0.677  54.502  1.00  0.00    -0.388 OA
HETATM   31  C10 UNL     1      28.385  -1.095  53.234  1.00  0.00     0.198 C 
HETATM   32  C11 UNL     1      26.951  -0.653  52.916  1.00  0.00     0.298 C 
ENDBRANCH  26  27
ENDBRANCH  25  26
ENDBRANCH  24  25
ENDBRANCH  23  24
ENDBRANCH   2  23
BRANCH   1  33
HETATM   33  C2  UNL     1      21.803  -0.219  53.300  1.00  0.00     0.034 C 
HETATM   34  C1  UNL     1      21.328  -0.192  54.711  1.00  0.00     0.010 C 
ENDBRANCH   1  33
TORSDOF 9
ENDMDL
MODEL 8
REMARK VINA RESULT:      -7.6      2.508      3.169
REMARK  9 active torsions:
REMARK  status: ('A' for Active; 'I' for Inactive)
REMARK    1  A    between atoms: C2_2  and  C3_3 
REMARK    2  A    between atoms: C4_4  and  O1_5 
REMARK    3  A    between atoms: O1_5  and  C5_6 
REMARK    4  A    between atoms: C5_6  and  C6_7 
REMARK    5  A    between atoms: C6_7  and  C7_8 
REMARK    6  A    between atoms: C7_8  and  N1_9 
REMARK    7  A    between atoms: C14_19  and  N4_20 
REMARK    8  A    between atoms: N4_20  and  C15_21 
REMARK    9  A    between atoms: C19_25  and  C20_26 
ROOT
HETATM    1  C3  UNL     1      23.302   5.476  48.247  1.00  0.00    -0.025 C 
HETATM    2  C4  UNL     1      24.082   6.090  49.103  1.00  0.00     0.078 C 
HETATM    3  C12 UNL     1      24.578   5.412  50.362  1.00  0.00     0.202 A 
HETATM    4  N2  UNL     1      23.877   5.887  51.507  1.00  0.00    -0.268 NA
HETATM    5  C13 UNL     1      23.352   5.128  52.390  1.00  0.00     0.229 A 
HETATM    6  N3  UNL     1      23.412   3.712  52.322  1.00  0.00    -0.226 NA
HETATM    7  C14 UNL     1      24.027   3.168  51.314  1.00  0.00     0.137 A 
HETATM    8  C22 UNL     1      24.666   3.939  50.218  1.00  0.00     0.222 A 
HETATM    9  O3  UNL     1      24.213   3.494  48.966  1.00  0.00    -0.371 OA
HETATM   10  C23 UNL     1      22.978   4.068  48.660  1.00  0.00     0.205 C 
ENDROOT
BRANCH   7  11
HETATM   11  N4  UNL     1      24.045   1.764  51.319  1.00  0.00    -0.342 N 
HETATM   12  H22 UNL     1      23.544   1.257  50.526  1.00  0.00     0.167 HD
BRANCH  11  13
HETATM   13  C15 UNL     1      24.668   0.934  52.286  1.00  0.00     0.034 A 
HETATM   14  C16 UNL     1      23.900   0.171  53.174  1.00  0.00     0.029 A 
HETATM   15  C17 UNL     1      24.435  -0.649  54.137  1.00  0.00     0.003 A 
HETATM   16  C18 UNL     1      25.794  -0.755  54.270  1.00  0.00     0.016 A 
HETATM   17  C19 UNL     1      26.594  -0.023  53.419  1.00  0.00     0.050 A 
HETATM   18  C21 UNL     1      26.005   0.785  52.471  1.00  0.00     0.045 A 
BRANCH  17  19
HETATM   19  C20 UNL     1      28.058  -0.155  53.583  1.00  0.00     0.417 C 
HETATM   20  F1  UNL     1      28.570  -1.314  53.020  1.00  0.00    -0.166 F 
HETATM   21  F2  UNL     1      28.323  -0.259  54.942  1.00  0.00    -0.166 F 
HETATM   22  F3  UNL     1      28.774   0.898  53.082  1.00  0.00    -0.166 F 
ENDBRANCH  17  19
ENDBRANCH  11  13
ENDBRANCH   7  11
BRANCH   2  23
HETATM   23  O1  UNL     1      24.440   7.406  48.802  1.00  0.00    -0.353 OA
BRANCH  23  24
HETATM   24  C5  UNL     1      25.753   7.789  49.071  1.00  0.00     0.177 C 
BRANCH  24  25
HETATM   25  C6  UNL     1      25.847   9.071  49.909  1.00  0.00     0.057 C 
BRANCH  25  26
HETATM   26  C7  UNL     1      27.337   9.236  50.166  1.00  0.00     0.274 C 
BRANCH  26  27
HETATM   27  N1  UNL     1      28.083   9.661  49.024  1.00  0.00     0.092 N 
HETATM   28  C8  UNL     1      29.497   9.551  49.406  1.00  0.00     0.298 C 
HETATM   29  C9  UNL     1      30.402  10.123  48.365  1.00  0.00     0.198 C 
HETATM   30  O2  UNL     1      30.129  11.431  48.026  1.00  0.00    -0.388 OA
HETATM   31  C10 UNL     1      29.079  11.883  48.808  1.00  0.00     0.198 C 
HETATM   32  C11 UNL     1      27.839  11.005  48.597  1.00  0.00     0.298 C 
ENDBRANCH  26  27
ENDBRANCH  25  26
ENDBRANCH  24  25
ENDBRANCH  23  24
ENDBRANCH   2  23
BRANCH   1  33
HETATM   33  C2  UNL     1      22.736   5.973  46.995  1.00  0.00     0.034 C 
HETATM   34  C1  UNL     1      21.964   4.964  46.218  1.00  0.00     0.010 C 
ENDBRANCH   1  33
TORSDOF 9
ENDMDL
MODEL 9
REMARK VINA RESULT:      -7.6      3.436      5.082
REMARK  9 active torsions:
REMARK  status: ('A' for Active; 'I' for Inactive)
REMARK    1  A    between atoms: C2_2  and  C3_3 
REMARK    2  A    between atoms: C4_4  and  O1_5 
REMARK    3  A    between atoms: O1_5  and  C5_6 
REMARK    4  A    between atoms: C5_6  and  C6_7 
REMARK    5  A    between atoms: C6_7  and  C7_8 
REMARK    6  A    between atoms: C7_8  and  N1_9 
REMARK    7  A    between atoms: C14_19  and  N4_20 
REMARK    8  A    between atoms: N4_20  and  C15_21 
REMARK    9  A    between atoms: C19_25  and  C20_26 
ROOT
HETATM    1  C3  UNL     1      25.300   5.486  49.164  1.00  0.00    -0.025 C 
HETATM    2  C4  UNL     1      24.158   5.762  48.581  1.00  0.00     0.078 C 
HETATM    3  C12 UNL     1      22.856   5.139  49.037  1.00  0.00     0.202 A 
HETATM    4  N2  UNL     1      22.436   4.122  48.135  1.00  0.00    -0.268 NA
HETATM    5  C13 UNL     1      22.073   2.951  48.496  1.00  0.00     0.229 A 
HETATM    6  N3  UNL     1      22.053   2.536  49.853  1.00  0.00    -0.226 NA
HETATM    7  C14 UNL     1      22.422   3.386  50.765  1.00  0.00     0.137 A 
HETATM    8  C22 UNL     1      22.875   4.769  50.473  1.00  0.00     0.222 A 
HETATM    9  O3  UNL     1      24.117   5.024  51.077  1.00  0.00    -0.371 OA
HETATM   10  C23 UNL     1      25.155   4.512  50.297  1.00  0.00     0.205 C 
ENDROOT
BRANCH   7  11
HETATM   11  N4  UNL     1      22.372   2.902  52.081  1.00  0.00    -0.342 N 
HETATM   12  H22 UNL     1      21.849   3.483  52.806  1.00  0.00     0.167 HD
BRANCH  11  13
HETATM   13  C15 UNL     1      22.958   1.700  52.558  1.00  0.00     0.034 A 
HETATM   14  C16 UNL     1      22.191   0.761  53.258  1.00  0.00     0.029 A 
HETATM   15  C17 UNL     1      22.693  -0.418  53.753  1.00  0.00     0.003 A 
HETATM   16  C18 UNL     1      24.013  -0.731  53.572  1.00  0.00     0.016 A 
HETATM   17  C19 UNL     1      24.811   0.162  52.889  1.00  0.00     0.050 A 
HETATM   18  C21 UNL     1      24.257   1.331  52.415  1.00  0.00     0.045 A 
BRANCH  17  19
HETATM   19  C20 UNL     1      26.233  -0.200  52.708  1.00  0.00     0.417 C 
HETATM   20  F1  UNL     1      26.498  -1.533  52.977  1.00  0.00    -0.166 F 
HETATM   21  F2  UNL     1      26.974   0.517  53.638  1.00  0.00    -0.166 F 
HETATM   22  F3  UNL     1      26.725   0.075  51.460  1.00  0.00    -0.166 F 
ENDBRANCH  17  19
ENDBRANCH  11  13
ENDBRANCH   7  11
BRANCH   2  23
HETATM   23  O1  UNL     1      24.193   6.664  47.514  1.00  0.00    -0.353 OA
BRANCH  23  24
HETATM   24  C5  UNL     1      23.278   7.715  47.535  1.00  0.00     0.177 C 
BRANCH  24  25
HETATM   25  C6  UNL     1      23.663   8.829  48.517  1.00  0.00     0.057 C 
BRANCH  25  26
HETATM   26  C7  UNL     1      22.530   8.836  49.531  1.00  0.00     0.274 C 
BRANCH  26  27
HETATM   27  N1  UNL     1      21.234   9.023  48.960  1.00  0.00     0.092 N 
HETATM   28  C8  UNL     1      21.030  10.476  48.897  1.00  0.00     0.298 C 
HETATM   29  C9  UNL     1      19.642  10.827  48.473  1.00  0.00     0.198 C 
HETATM   30  O2  UNL     1      18.649  10.267  49.249  1.00  0.00    -0.388 OA
HETATM   31  C10 UNL     1      19.238   9.543  50.271  1.00  0.00     0.198 C 
HETATM   32  C11 UNL     1      20.149   8.451  49.698  1.00  0.00     0.298 C 
ENDBRANCH  26  27
ENDBRANCH  25  26
ENDBRANCH  24  25
ENDBRANCH  23  24
ENDBRANCH   2  23
BRANCH   1  33
HETATM   33  C2  UNL     1      26.636   5.991  48.857  1.00  0.00     0.034 C 
HETATM   34  C1  UNL     1      27.655   4.936  48.598  1.00  0.00     0.010 C 
ENDBRANCH   1  33
TORSDOF 9
ENDMDL
