MODEL 1
REMARK VINA RESULT:      -7.8      0.000      0.000
REMARK  5 active torsions:
REMARK  status: ('A' for Active; 'I' for Inactive)
REMARK    1  A    between atoms: N1_1  and  C1_2 
REMARK    2  A    between atoms: C1_2  and  C2_3 
REMARK    3  A    between atoms: C16_19  and  C17_20 
REMARK    4  A    between atoms: C17_20  and  N3_21 
REMARK    5  A    between atoms: N3_21  and  N4_22 
ROOT
HETATM    1  C2  UNL     1      22.723   3.445  49.492  1.00  0.00    -0.019 C 
HETATM    2  C3  UNL     1      23.958   3.913  49.266  1.00  0.00     0.097 C 
HETATM    3  N2  UNL     1      25.250   4.413  49.638  1.00  0.00    -0.366 N 
HETATM    4  C4  UNL     1      26.368   3.609  50.103  1.00  0.00     0.090 C 
HETATM    5  C5  UNL     1      26.521   2.580  50.889  1.00  0.00     0.017 C 
HETATM    6  C6  UNL     1      26.894   1.453  51.720  1.00  0.00     0.001 C 
HETATM    7  C7  UNL     1      26.496   0.482  52.513  1.00  0.00    -0.000 C 
HETATM    8  C8  UNL     1      25.214   0.012  52.995  1.00  0.00    -0.004 C 
HETATM    9  C9  UNL     1      24.105  -0.482  53.481  1.00  0.00    -0.025 C 
HETATM   10  C10 UNL     1      22.841   0.294  52.946  1.00  0.00     0.053 C 
HETATM   11  C11 UNL     1      23.466   1.411  52.162  1.00  0.00     0.172 C 
HETATM   12  O1  UNL     1      22.959   2.305  51.552  1.00  0.00    -0.381 OA
HETATM   13  C12 UNL     1      22.402   3.278  50.894  1.00  0.00     0.153 C 
HETATM   14  C13 UNL     1      23.050   4.553  51.690  1.00  0.00     0.036 C 
HETATM   15  C14 UNL     1      22.632   5.840  51.273  1.00  0.00     0.003 C 
HETATM   16  C15 UNL     1      23.381   6.618  50.229  1.00  0.00     0.008 C 
HETATM   17  C16 UNL     1      24.843   6.712  50.547  1.00  0.00     0.023 C 
HETATM   18  C18 UNL     1      25.556   5.787  49.573  1.00  0.00     0.134 C 
ENDROOT
BRANCH  17  19
HETATM   19  C17 UNL     1      25.343   8.103  50.129  1.00  0.00     0.150 C 
BRANCH  19  20
HETATM   20  N3  UNL     1      26.771   8.189  50.536  1.00  0.00    -0.289 N 
HETATM   21  H26 UNL     1      27.687   7.816  50.862  1.00  0.00     0.184 HD
BRANCH  20  22
HETATM   22  N4  UNL     1      27.177   9.526  50.459  1.00  0.00    -0.019 NA
HETATM   23  O2  UNL     1      26.551  10.248  49.635  1.00  0.00    -0.042 OA
ENDBRANCH  20  22
ENDBRANCH  19  20
ENDBRANCH  17  19
BRANCH   1  24
HETATM   24  C1  UNL     1      21.935   3.130  48.242  1.00  0.00     0.149 C 
BRANCH  24  25
HETATM   25  N1  UNL     1      22.499   2.037  47.543  1.00  0.00    -0.426 N 
HETATM   26  H1  UNL     1      23.504   1.930  47.483  1.00  0.00     0.150 HD
HETATM   27  H2  UNL     1      21.907   1.200  47.640  1.00  0.00     0.150 HD
ENDBRANCH  24  25
ENDBRANCH   1  24
TORSDOF 5
ENDMDL
MODEL 2
REMARK VINA RESULT:      -7.3      6.851      9.186
REMARK  5 active torsions:
REMARK  status: ('A' for Active; 'I' for Inactive)
REMARK    1  A    between atoms: N1_1  and  C1_2 
REMARK    2  A    between atoms: C1_2  and  C2_3 
REMARK    3  A    between atoms: C16_19  and  C17_20 
REMARK    4  A    between atoms: C17_20  and  N3_21 
REMARK    5  A    between atoms: N3_21  and  N4_22 
ROOT
HETATM    1  C2  UNL     1      30.285   6.034  48.100  1.00  0.00    -0.019 C 
HETATM    2  C3  UNL     1      30.289   7.033  47.207  1.00  0.00     0.097 C 
HETATM    3  N2  UNL     1      30.883   8.084  46.431  1.00  0.00    -0.366 N 
HETATM    4  C4  UNL     1      31.680   7.904  45.230  1.00  0.00     0.090 C 
HETATM    5  C5  UNL     1      32.596   7.068  44.828  1.00  0.00     0.017 C 
HETATM    6  C6  UNL     1      33.617   6.250  44.205  1.00  0.00     0.001 C 
HETATM    7  C7  UNL     1      34.409   5.203  44.300  1.00  0.00    -0.000 C 
HETATM    8  C8  UNL     1      34.640   4.180  45.298  1.00  0.00    -0.004 C 
HETATM    9  C9  UNL     1      34.918   3.218  46.140  1.00  0.00    -0.025 C 
HETATM   10  C10 UNL     1      34.023   3.304  47.435  1.00  0.00     0.053 C 
HETATM   11  C11 UNL     1      33.275   4.587  47.216  1.00  0.00     0.172 C 
HETATM   12  O1  UNL     1      32.464   5.136  47.902  1.00  0.00    -0.381 OA
HETATM   13  C12 UNL     1      31.587   5.731  48.654  1.00  0.00     0.153 C 
HETATM   14  C13 UNL     1      32.352   7.158  48.892  1.00  0.00     0.036 C 
HETATM   15  C14 UNL     1      31.703   8.095  49.731  1.00  0.00     0.003 C 
HETATM   16  C15 UNL     1      30.771   9.137  49.184  1.00  0.00     0.008 C 
HETATM   17  C16 UNL     1      31.398   9.912  48.065  1.00  0.00     0.023 C 
HETATM   18  C18 UNL     1      30.727   9.439  46.784  1.00  0.00     0.134 C 
ENDROOT
BRANCH  17  19
HETATM   19  C17 UNL     1      30.942  11.376  48.171  1.00  0.00     0.150 C 
BRANCH  19  20
HETATM   20  N3  UNL     1      29.958  11.441  49.284  1.00  0.00    -0.289 N 
HETATM   21  H26 UNL     1      29.612  11.283  50.255  1.00  0.00     0.184 HD
BRANCH  20  22
HETATM   22  N4  UNL     1      28.798  12.070  48.818  1.00  0.00    -0.019 NA
HETATM   23  O2  UNL     1      28.403  13.067  49.484  1.00  0.00    -0.042 OA
ENDBRANCH  20  22
ENDBRANCH  19  20
ENDBRANCH  17  19
BRANCH   1  24
HETATM   24  C1  UNL     1      28.935   5.388  48.307  1.00  0.00     0.149 C 
BRANCH  24  25
HETATM   25  N1  UNL     1      28.044   6.263  48.972  1.00  0.00    -0.426 N 
HETATM   26  H1  UNL     1      27.780   7.144  48.548  1.00  0.00     0.150 HD
HETATM   27  H2  UNL     1      27.345   5.731  49.508  1.00  0.00     0.150 HD
ENDBRANCH  24  25
ENDBRANCH   1  24
TORSDOF 5
ENDMDL
MODEL 3
REMARK VINA RESULT:      -7.2      3.867      7.322
REMARK  5 active torsions:
REMARK  status: ('A' for Active; 'I' for Inactive)
REMARK    1  A    between atoms: N1_1  and  C1_2 
REMARK    2  A    between atoms: C1_2  and  C2_3 
REMARK    3  A    between atoms: C16_19  and  C17_20 
REMARK    4  A    between atoms: C17_20  and  N3_21 
REMARK    5  A    between atoms: N3_21  and  N4_22 
ROOT
HETATM    1  C2  UNL     1      21.800   3.080  51.864  1.00  0.00    -0.019 C 
HETATM    2  C3  UNL     1      21.077   2.257  52.636  1.00  0.00     0.097 C 
HETATM    3  N2  UNL     1      20.610   0.982  53.101  1.00  0.00    -0.366 N 
HETATM    4  C4  UNL     1      21.334   0.086  53.987  1.00  0.00     0.090 C 
HETATM    5  C5  UNL     1      22.571  -0.298  54.126  1.00  0.00     0.017 C 
HETATM    6  C6  UNL     1      23.877  -0.843  54.438  1.00  0.00     0.001 C 
HETATM    7  C7  UNL     1      25.164  -0.862  54.163  1.00  0.00    -0.000 C 
HETATM    8  C8  UNL     1      26.021  -0.177  53.218  1.00  0.00    -0.004 C 
HETATM    9  C9  UNL     1      26.871   0.389  52.402  1.00  0.00    -0.025 C 
HETATM   10  C10 UNL     1      26.162   1.442  51.465  1.00  0.00     0.053 C 
HETATM   11  C11 UNL     1      24.717   1.260  51.826  1.00  0.00     0.172 C 
HETATM   12  O1  UNL     1      23.741   1.807  51.404  1.00  0.00    -0.381 OA
HETATM   13  C12 UNL     1      22.682   2.401  50.939  1.00  0.00     0.153 C 
HETATM   14  C13 UNL     1      21.868   1.101  50.367  1.00  0.00     0.036 C 
HETATM   15  C14 UNL     1      20.635   1.358  49.721  1.00  0.00     0.003 C 
HETATM   16  C15 UNL     1      19.332   1.349  50.467  1.00  0.00     0.008 C 
HETATM   17  C16 UNL     1      19.156   0.092  51.265  1.00  0.00     0.023 C 
HETATM   18  C18 UNL     1      19.350   0.477  52.724  1.00  0.00     0.134 C 
ENDROOT
BRANCH  17  19
HETATM   19  C17 UNL     1      17.675  -0.315  51.211  1.00  0.00     0.150 C 
BRANCH  19  20
HETATM   20  N3  UNL     1      17.305  -0.777  52.575  1.00  0.00    -0.289 N 
HETATM   21  H26 UNL     1      17.488  -1.128  53.540  1.00  0.00     0.184 HD
BRANCH  20  22
HETATM   22  N4  UNL     1      15.911  -0.751  52.693  1.00  0.00    -0.019 NA
HETATM   23  O2  UNL     1      15.412   0.326  53.122  1.00  0.00    -0.042 OA
ENDBRANCH  20  22
ENDBRANCH  19  20
ENDBRANCH  17  19
BRANCH   1  24
HETATM   24  C1  UNL     1      21.595   4.549  52.153  1.00  0.00     0.149 C 
BRANCH  24  25
HETATM   25  N1  UNL     1      22.797   5.159  52.582  1.00  0.00    -0.426 N 
HETATM   26  H1  UNL     1      23.058   6.075  52.237  1.00  0.00     0.150 HD
HETATM   27  H2  UNL     1      23.001   4.911  53.560  1.00  0.00     0.150 HD
ENDBRANCH  24  25
ENDBRANCH   1  24
TORSDOF 5
ENDMDL
MODEL 4
REMARK VINA RESULT:      -6.9      3.222      7.291
REMARK  5 active torsions:
REMARK  status: ('A' for Active; 'I' for Inactive)
REMARK    1  A    between atoms: N1_1  and  C1_2 
REMARK    2  A    between atoms: C1_2  and  C2_3 
REMARK    3  A    between atoms: C16_19  and  C17_20 
REMARK    4  A    between atoms: C17_20  and  N3_21 
REMARK    5  A    between atoms: N3_21  and  N4_22 
ROOT
HETATM    1  C2  UNL     1      24.637   3.782  50.312  1.00  0.00    -0.019 C 
HETATM    2  C3  UNL     1      23.749   2.785  50.196  1.00  0.00     0.097 C 
HETATM    3  N2  UNL     1      22.531   2.085  50.489  1.00  0.00    -0.366 N 
HETATM    4  C4  UNL     1      21.217   2.416  49.965  1.00  0.00     0.090 C 
HETATM    5  C5  UNL     1      20.549   3.511  49.727  1.00  0.00     0.017 C 
HETATM    6  C6  UNL     1      19.655   4.602  49.398  1.00  0.00     0.001 C 
HETATM    7  C7  UNL     1      19.471   5.904  49.337  1.00  0.00    -0.000 C 
HETATM    8  C8  UNL     1      20.278   7.068  49.633  1.00  0.00    -0.004 C 
HETATM    9  C9  UNL     1      20.930   8.176  49.874  1.00  0.00    -0.025 C 
HETATM   10  C10 UNL     1      22.401   7.889  50.366  1.00  0.00     0.053 C 
HETATM   11  C11 UNL     1      22.407   6.392  50.482  1.00  0.00     0.172 C 
HETATM   12  O1  UNL     1      23.276   5.647  50.827  1.00  0.00    -0.381 OA
HETATM   13  C12 UNL     1      24.223   4.842  51.206  1.00  0.00     0.153 C 
HETATM   14  C13 UNL     1      23.483   4.132  52.483  1.00  0.00     0.036 C 
HETATM   15  C14 UNL     1      24.244   3.187  53.212  1.00  0.00     0.003 C 
HETATM   16  C15 UNL     1      24.214   1.722  52.884  1.00  0.00     0.008 C 
HETATM   17  C16 UNL     1      22.812   1.196  52.814  1.00  0.00     0.023 C 
HETATM   18  C18 UNL     1      22.512   0.964  51.341  1.00  0.00     0.134 C 
ENDROOT
BRANCH  17  19
HETATM   19  C17 UNL     1      22.795  -0.226  53.397  1.00  0.00     0.150 C 
BRANCH  19  20
HETATM   20  N3  UNL     1      21.812  -0.223  54.513  1.00  0.00    -0.289 N 
HETATM   21  H26 UNL     1      21.124   0.204  55.169  1.00  0.00     0.184 HD
BRANCH  20  22
HETATM   22  N4  UNL     1      21.707  -1.524  55.018  1.00  0.00    -0.019 NA
HETATM   23  O2  UNL     1      22.680  -1.928  55.712  1.00  0.00    -0.042 OA
ENDBRANCH  20  22
ENDBRANCH  19  20
ENDBRANCH  17  19
BRANCH   1  24
HETATM   24  C1  UNL     1      25.864   3.629  49.443  1.00  0.00     0.149 C 
BRANCH  24  25
HETATM   25  N1  UNL     1      26.739   4.731  49.595  1.00  0.00    -0.426 N 
HETATM   26  H1  UNL     1      26.776   5.456  48.889  1.00  0.00     0.150 HD
HETATM   27  H2  UNL     1      26.831   4.987  50.587  1.00  0.00     0.150 HD
ENDBRANCH  24  25
ENDBRANCH   1  24
TORSDOF 5
ENDMDL
MODEL 5
REMARK VINA RESULT:      -6.7      1.853      2.340
REMARK  5 active torsions:
REMARK  status: ('A' for Active; 'I' for Inactive)
REMARK    1  A    between atoms: N1_1  and  C1_2 
REMARK    2  A    between atoms: C1_2  and  C2_3 
REMARK    3  A    between atoms: C16_19  and  C17_20 
REMARK    4  A    between atoms: C17_20  and  N3_21 
REMARK    5  A    between atoms: N3_21  and  N4_22 
ROOT
HETATM    1  C2  UNL     1      21.485   2.579  50.054  1.00  0.00    -0.019 C 
HETATM    2  C3  UNL     1      22.805   2.808  50.009  1.00  0.00     0.097 C 
HETATM    3  N2  UNL     1      24.090   3.136  50.556  1.00  0.00    -0.366 N 
HETATM    4  C4  UNL     1      24.952   2.230  51.295  1.00  0.00     0.090 C 
HETATM    5  C5  UNL     1      24.787   1.302  52.196  1.00  0.00     0.017 C 
HETATM    6  C6  UNL     1      24.811   0.249  53.191  1.00  0.00     0.001 C 
HETATM    7  C7  UNL     1      24.120  -0.533  53.993  1.00  0.00    -0.000 C 
HETATM    8  C8  UNL     1      22.714  -0.721  54.280  1.00  0.00    -0.004 C 
HETATM    9  C9  UNL     1      21.470  -0.961  54.605  1.00  0.00    -0.025 C 
HETATM   10  C10 UNL     1      20.470  -0.068  53.774  1.00  0.00     0.053 C 
HETATM   11  C11 UNL     1      21.407   0.821  53.007  1.00  0.00     0.172 C 
HETATM   12  O1  UNL     1      21.175   1.697  52.228  1.00  0.00    -0.381 OA
HETATM   13  C12 UNL     1      20.918   2.652  51.384  1.00  0.00     0.153 C 
HETATM   14  C13 UNL     1      21.651   3.899  52.151  1.00  0.00     0.036 C 
HETATM   15  C14 UNL     1      21.547   5.170  51.537  1.00  0.00     0.003 C 
HETATM   16  C15 UNL     1      22.583   5.672  50.572  1.00  0.00     0.008 C 
HETATM   17  C16 UNL     1      23.967   5.570  51.139  1.00  0.00     0.023 C 
HETATM   18  C18 UNL     1      24.647   4.421  50.409  1.00  0.00     0.134 C 
ENDROOT
BRANCH  17  19
HETATM   19  C17 UNL     1      24.773   6.795  50.679  1.00  0.00     0.150 C 
BRANCH  19  20
HETATM   20  N3  UNL     1      24.781   6.772  49.191  1.00  0.00    -0.289 N 
HETATM   21  H26 UNL     1      24.418   6.528  48.245  1.00  0.00     0.184 HD
BRANCH  20  22
HETATM   22  N4  UNL     1      25.911   7.463  48.741  1.00  0.00    -0.019 NA
HETATM   23  O2  UNL     1      26.620   6.866  47.884  1.00  0.00    -0.042 OA
ENDBRANCH  20  22
ENDBRANCH  19  20
ENDBRANCH  17  19
BRANCH   1  24
HETATM   24  C1  UNL     1      20.864   2.234  48.721  1.00  0.00     0.149 C 
BRANCH  24  25
HETATM   25  N1  UNL     1      19.559   1.714  48.883  1.00  0.00    -0.426 N 
HETATM   26  H1  UNL     1      18.773   2.144  48.410  1.00  0.00     0.150 HD
HETATM   27  H2  UNL     1      19.586   0.690  48.988  1.00  0.00     0.150 HD
ENDBRANCH  24  25
ENDBRANCH   1  24
TORSDOF 5
ENDMDL
MODEL 6
REMARK VINA RESULT:      -6.5      5.555      8.281
REMARK  5 active torsions:
REMARK  status: ('A' for Active; 'I' for Inactive)
REMARK    1  A    between atoms: N1_1  and  C1_2 
REMARK    2  A    between atoms: C1_2  and  C2_3 
REMARK    3  A    between atoms: C16_19  and  C17_20 
REMARK    4  A    between atoms: C17_20  and  N3_21 
REMARK    5  A    between atoms: N3_21  and  N4_22 
ROOT
HETATM    1  C2  UNL     1      29.427   8.680  46.700  1.00  0.00    -0.019 C 
HETATM    2  C3  UNL     1      29.816   7.407  46.854  1.00  0.00     0.097 C 
HETATM    3  N2  UNL     1      30.081   6.206  47.594  1.00  0.00    -0.366 N 
HETATM    4  C4  UNL     1      29.082   5.250  48.042  1.00  0.00     0.090 C 
HETATM    5  C5  UNL     1      27.880   5.313  48.543  1.00  0.00     0.017 C 
HETATM    6  C6  UNL     1      26.551   5.176  49.105  1.00  0.00     0.001 C 
HETATM    7  C7  UNL     1      25.456   5.777  49.518  1.00  0.00    -0.000 C 
HETATM    8  C8  UNL     1      25.007   7.151  49.595  1.00  0.00    -0.004 C 
HETATM    9  C9  UNL     1      24.517   8.358  49.705  1.00  0.00    -0.025 C 
HETATM   10  C10 UNL     1      25.520   9.444  49.154  1.00  0.00     0.053 C 
HETATM   11  C11 UNL     1      26.731   8.617  48.832  1.00  0.00     0.172 C 
HETATM   12  O1  UNL     1      27.793   8.943  48.391  1.00  0.00    -0.381 OA
HETATM   13  C12 UNL     1      28.949   9.303  47.916  1.00  0.00     0.153 C 
HETATM   14  C13 UNL     1      29.917   8.791  49.132  1.00  0.00     0.036 C 
HETATM   15  C14 UNL     1      31.301   9.054  48.995  1.00  0.00     0.003 C 
HETATM   16  C15 UNL     1      32.238   8.065  48.362  1.00  0.00     0.008 C 
HETATM   17  C16 UNL     1      32.109   6.704  48.977  1.00  0.00     0.023 C 
HETATM   18  C18 UNL     1      31.391   5.836  47.955  1.00  0.00     0.134 C 
ENDROOT
BRANCH  17  19
HETATM   19  C17 UNL     1      33.506   6.068  49.048  1.00  0.00     0.150 C 
BRANCH  19  20
HETATM   20  N3  UNL     1      33.404   4.732  48.403  1.00  0.00    -0.289 N 
HETATM   21  H26 UNL     1      32.916   3.868  48.084  1.00  0.00     0.184 HD
BRANCH  20  22
HETATM   22  N4  UNL     1      34.670   4.366  47.931  1.00  0.00    -0.019 NA
HETATM   23  O2  UNL     1      35.010   3.167  48.129  1.00  0.00    -0.042 OA
ENDBRANCH  20  22
ENDBRANCH  19  20
ENDBRANCH  17  19
BRANCH   1  24
HETATM   24  C1  UNL     1      29.511   9.192  45.281  1.00  0.00     0.149 C 
BRANCH  24  25
HETATM   25  N1  UNL     1      30.214   8.287  44.451  1.00  0.00    -0.426 N 
HETATM   26  H1  UNL     1      31.161   8.492  44.156  1.00  0.00     0.150 HD
HETATM   27  H2  UNL     1      29.952   7.316  44.669  1.00  0.00     0.150 HD
ENDBRANCH  24  25
ENDBRANCH   1  24
TORSDOF 5
ENDMDL
MODEL 7
REMARK VINA RESULT:      -6.3      7.009      9.911
REMARK  5 active torsions:
REMARK  status: ('A' for Active; 'I' for Inactive)
REMARK    1  A    between atoms: N1_1  and  C1_2 
REMARK    2  A    between atoms: C1_2  and  C2_3 
REMARK    3  A    between atoms: C16_19  and  C17_20 
REMARK    4  A    between atoms: C17_20  and  N3_21 
REMARK    5  A    between atoms: N3_21  and  N4_22 
ROOT
HETATM    1  C2  UNL     1      32.719   9.218  46.700  1.00  0.00    -0.019 C 
HETATM    2  C3  UNL     1      32.198   8.691  47.816  1.00  0.00     0.097 C 
HETATM    3  N2  UNL     1      31.431   7.744  48.574  1.00  0.00    -0.366 N 
HETATM    4  C4  UNL     1      31.866   6.409  48.950  1.00  0.00     0.090 C 
HETATM    5  C5  UNL     1      32.526   5.441  48.379  1.00  0.00     0.017 C 
HETATM    6  C6  UNL     1      33.232   4.261  47.921  1.00  0.00     0.001 C 
HETATM    7  C7  UNL     1      33.911   3.682  46.954  1.00  0.00    -0.000 C 
HETATM    8  C8  UNL     1      34.351   4.075  45.633  1.00  0.00    -0.004 C 
HETATM    9  C9  UNL     1      34.789   4.340  44.429  1.00  0.00    -0.025 C 
HETATM   10  C10 UNL     1      34.425   5.810  43.990  1.00  0.00     0.053 C 
HETATM   11  C11 UNL     1      33.577   6.280  45.136  1.00  0.00     0.172 C 
HETATM   12  O1  UNL     1      33.028   7.327  45.313  1.00  0.00    -0.381 OA
HETATM   13  C12 UNL     1      32.429   8.466  45.498  1.00  0.00     0.153 C 
HETATM   14  C13 UNL     1      30.882   7.945  45.620  1.00  0.00     0.036 C 
HETATM   15  C14 UNL     1      29.889   8.940  45.790  1.00  0.00     0.003 C 
HETATM   16  C15 UNL     1      29.431   9.379  47.150  1.00  0.00     0.008 C 
HETATM   17  C16 UNL     1      29.037   8.214  48.007  1.00  0.00     0.023 C 
HETATM   18  C18 UNL     1      30.139   8.049  49.043  1.00  0.00     0.134 C 
ENDROOT
BRANCH  17  19
HETATM   19  C17 UNL     1      27.824   8.625  48.858  1.00  0.00     0.150 C 
BRANCH  19  20
HETATM   20  N3  UNL     1      28.359   9.218  50.113  1.00  0.00    -0.289 N 
HETATM   21  H26 UNL     1      29.101   9.489  50.792  1.00  0.00     0.184 HD
BRANCH  20  22
HETATM   22  N4  UNL     1      27.288   9.722  50.859  1.00  0.00    -0.019 NA
HETATM   23  O2  UNL     1      26.166   9.733  50.281  1.00  0.00    -0.042 OA
ENDBRANCH  20  22
ENDBRANCH  19  20
ENDBRANCH  17  19
BRANCH   1  24
HETATM   24  C1  UNL     1      33.552  10.459  46.926  1.00  0.00     0.149 C 
BRANCH  24  25
HETATM   25  N1  UNL     1      32.744  11.619  46.963  1.00  0.00    -0.426 N 
HETATM   26  H1  UNL     1      32.490  12.094  46.105  1.00  0.00     0.150 HD
HETATM   27  H2  UNL     1      32.060  11.561  47.729  1.00  0.00     0.150 HD
ENDBRANCH  24  25
ENDBRANCH   1  24
TORSDOF 5
ENDMDL
MODEL 8
REMARK VINA RESULT:      -6.3      5.065      7.806
REMARK  5 active torsions:
REMARK  status: ('A' for Active; 'I' for Inactive)
REMARK    1  A    between atoms: N1_1  and  C1_2 
REMARK    2  A    between atoms: C1_2  and  C2_3 
REMARK    3  A    between atoms: C16_19  and  C17_20 
REMARK    4  A    between atoms: C17_20  and  N3_21 
REMARK    5  A    between atoms: N3_21  and  N4_22 
ROOT
HETATM    1  C2  UNL     1      30.672   7.001  48.795  1.00  0.00    -0.019 C 
HETATM    2  C3  UNL     1      30.285   8.254  49.069  1.00  0.00     0.097 C 
HETATM    3  N2  UNL     1      29.433   9.404  48.973  1.00  0.00    -0.366 N 
HETATM    4  C4  UNL     1      28.163   9.578  49.659  1.00  0.00     0.090 C 
HETATM    5  C5  UNL     1      27.139   8.823  49.944  1.00  0.00     0.017 C 
HETATM    6  C6  UNL     1      25.920   8.153  50.350  1.00  0.00     0.001 C 
HETATM    7  C7  UNL     1      25.231   7.032  50.386  1.00  0.00    -0.000 C 
HETATM    8  C8  UNL     1      25.458   5.675  49.937  1.00  0.00    -0.004 C 
HETATM    9  C9  UNL     1      25.572   4.426  49.567  1.00  0.00    -0.025 C 
HETATM   10  C10 UNL     1      26.969   4.147  48.889  1.00  0.00     0.053 C 
HETATM   11  C11 UNL     1      27.569   5.521  48.831  1.00  0.00     0.172 C 
HETATM   12  O1  UNL     1      28.623   5.886  48.400  1.00  0.00    -0.381 OA
HETATM   13  C12 UNL     1      29.768   6.279  47.925  1.00  0.00     0.153 C 
HETATM   14  C13 UNL     1      29.245   7.337  46.791  1.00  0.00     0.036 C 
HETATM   15  C14 UNL     1      30.240   7.963  46.001  1.00  0.00     0.003 C 
HETATM   16  C15 UNL     1      30.844   9.283  46.385  1.00  0.00     0.008 C 
HETATM   17  C16 UNL     1      29.793  10.314  46.667  1.00  0.00     0.023 C 
HETATM   18  C18 UNL     1      29.778  10.512  48.175  1.00  0.00     0.134 C 
ENDROOT
BRANCH  17  19
HETATM   19  C17 UNL     1      30.292  11.671  46.147  1.00  0.00     0.150 C 
BRANCH  19  20
HETATM   20  N3  UNL     1      31.732  11.503  45.815  1.00  0.00    -0.289 N 
HETATM   21  H26 UNL     1      32.711  11.182  45.975  1.00  0.00     0.184 HD
BRANCH  20  22
HETATM   22  N4  UNL     1      31.978  12.107  44.577  1.00  0.00    -0.019 NA
HETATM   23  O2  UNL     1      33.135  11.942  44.100  1.00  0.00    -0.042 OA
ENDBRANCH  20  22
ENDBRANCH  19  20
ENDBRANCH  17  19
BRANCH   1  24
HETATM   24  C1  UNL     1      31.943   6.573  49.492  1.00  0.00     0.149 C 
BRANCH  24  25
HETATM   25  N1  UNL     1      31.664   5.721  50.586  1.00  0.00    -0.426 N 
HETATM   26  H1  UNL     1      30.975   5.985  51.280  1.00  0.00     0.150 HD
HETATM   27  H2  UNL     1      31.746   4.733  50.307  1.00  0.00     0.150 HD
ENDBRANCH  24  25
ENDBRANCH   1  24
TORSDOF 5
ENDMDL
MODEL 9
REMARK VINA RESULT:      -6.1     25.036     26.740
REMARK  5 active torsions:
REMARK  status: ('A' for Active; 'I' for Inactive)
REMARK    1  A    between atoms: N1_1  and  C1_2 
REMARK    2  A    between atoms: C1_2  and  C2_3 
REMARK    3  A    between atoms: C16_19  and  C17_20 
REMARK    4  A    between atoms: C17_20  and  N3_21 
REMARK    5  A    between atoms: N3_21  and  N4_22 
ROOT
HETATM    1  C2  UNL     1      44.332   6.295  70.145  1.00  0.00    -0.019 C 
HETATM    2  C3  UNL     1      44.309   4.964  69.996  1.00  0.00     0.097 C 
HETATM    3  N2  UNL     1      43.885   3.726  69.407  1.00  0.00    -0.366 N 
HETATM    4  C4  UNL     1      44.353   3.186  68.142  1.00  0.00     0.090 C 
HETATM    5  C5  UNL     1      44.640   3.667  66.964  1.00  0.00     0.017 C 
HETATM    6  C6  UNL     1      45.003   4.005  65.603  1.00  0.00     0.001 C 
HETATM    7  C7  UNL     1      45.161   4.951  64.701  1.00  0.00    -0.000 C 
HETATM    8  C8  UNL     1      45.013   6.390  64.688  1.00  0.00    -0.004 C 
HETATM    9  C9  UNL     1      44.905   7.689  64.581  1.00  0.00    -0.025 C 
HETATM   10  C10 UNL     1      44.482   8.351  65.948  1.00  0.00     0.053 C 
HETATM   11  C11 UNL     1      44.243   7.151  66.817  1.00  0.00     0.172 C 
HETATM   12  O1  UNL     1      43.892   7.081  67.957  1.00  0.00    -0.381 OA
HETATM   13  C12 UNL     1      43.505   7.011  69.197  1.00  0.00     0.153 C 
HETATM   14  C13 UNL     1      42.131   6.142  69.006  1.00  0.00     0.036 C 
HETATM   15  C14 UNL     1      41.374   5.886  70.174  1.00  0.00     0.003 C 
HETATM   16  C15 UNL     1      41.576   4.645  70.996  1.00  0.00     0.008 C 
HETATM   17  C16 UNL     1      41.516   3.406  70.154  1.00  0.00     0.023 C 
HETATM   18  C18 UNL     1      42.943   2.893  70.041  1.00  0.00     0.134 C 
ENDROOT
BRANCH  17  19
HETATM   19  C17 UNL     1      40.817   2.302  70.963  1.00  0.00     0.150 C 
BRANCH  19  20
HETATM   20  N3  UNL     1      40.837   1.074  70.125  1.00  0.00    -0.289 N 
HETATM   21  H26 UNL     1      41.096   0.093  69.887  1.00  0.00     0.184 HD
BRANCH  20  22
HETATM   22  N4  UNL     1      40.094   1.315  68.964  1.00  0.00    -0.019 NA
HETATM   23  O2  UNL     1      40.569   0.842  67.894  1.00  0.00    -0.042 OA
ENDBRANCH  20  22
ENDBRANCH  19  20
ENDBRANCH  17  19
BRANCH   1  24
HETATM   24  C1  UNL     1      45.258   6.787  71.233  1.00  0.00     0.149 C 
BRANCH  24  25
HETATM   25  N1  UNL     1      46.235   7.669  70.715  1.00  0.00    -0.426 N 
HETATM   26  H1  UNL     1      46.714   7.452  69.849  1.00  0.00     0.150 HD
HETATM   27  H2  UNL     1      45.989   8.646  70.924  1.00  0.00     0.150 HD
ENDBRANCH  24  25
ENDBRANCH   1  24
TORSDOF 5
ENDMDL
