MODEL 1
REMARK VINA RESULT:      -9.6      0.000      0.000
REMARK  0 active torsions:
REMARK  status: ('A' for Active; 'I' for Inactive)
ROOT
HETATM    1  C1  UNL     1      27.174   4.436  48.956  1.00  0.00     0.055 C 
HETATM    2  C2  UNL     1      26.096   3.629  49.699  1.00  0.00     0.176 C 
HETATM    3  N1  UNL     1      24.977   4.508  49.777  1.00  0.00    -0.377 N 
HETATM    4  C3  UNL     1      23.861   5.259  49.895  1.00  0.00     0.101 C 
HETATM    5  C4  UNL     1      22.828   6.062  50.058  1.00  0.00     0.102 C 
HETATM    6  N2  UNL     1      21.502   5.727  49.593  1.00  0.00    -0.388 N 
HETATM    7  C5  UNL     1      20.145   5.326  49.184  1.00  0.00     0.129 C 
HETATM    8  C6  UNL     1      19.835   4.908  50.544  1.00  0.00     0.036 C 
HETATM    9  C7  UNL     1      21.338   4.892  50.799  1.00  0.00     0.129 C 
HETATM   10  C8  UNL     1      19.147   3.642  50.821  1.00  0.00     0.070 C 
HETATM   11 BR1  UNL     1      17.247   3.852  50.822  1.00  0.00    -0.090 Br
HETATM   12  C9  UNL     1      19.623   2.449  50.051  1.00  0.00     0.011 C 
HETATM   13  C10 UNL     1      20.514   1.424  50.137  1.00  0.00     0.002 C 
HETATM   14  C11 UNL     1      21.578   0.829  51.045  1.00  0.00     0.012 C 
HETATM   15  C12 UNL     1      22.061   1.200  52.304  1.00  0.00     0.067 A 
HETATM   16  N3  UNL     1      23.029   0.119  52.402  1.00  0.00    -0.271 NA
HETATM   17  C13 UNL     1      24.015  -0.093  53.386  1.00  0.00     0.117 A 
HETATM   18  N4  UNL     1      24.275  -0.841  54.536  1.00  0.00    -0.229 NA
HETATM   19  C14 UNL     1      25.034  -1.093  55.438  1.00  0.00     0.235 A 
HETATM   20  N5  UNL     1      26.202  -0.370  55.410  1.00  0.00    -0.241 NA
HETATM   21  C15 UNL     1      26.248   0.470  54.358  1.00  0.00     0.071 A 
HETATM   22  C16 UNL     1      27.247   1.289  53.933  1.00  0.00     0.035 A 
HETATM   23  C17 UNL     1      27.653   2.136  53.027  1.00  0.00     0.031 A 
HETATM   24  C18 UNL     1      26.556   2.222  52.081  1.00  0.00     0.030 A 
HETATM   25  C19 UNL     1      25.378   1.479  52.270  1.00  0.00     0.046 A 
HETATM   26  C20 UNL     1      25.310   0.639  53.426  1.00  0.00     0.035 A 
HETATM   27  N6  UNL     1      26.589   2.989  50.857  1.00  0.00    -0.369 N 
HETATM   28  H5  UNL     1      25.201   5.547  49.412  1.00  0.00     0.161 HD
HETATM   29  H18 UNL     1      22.972   0.906  53.167  1.00  0.00     0.151 HD
HETATM   30  H23 UNL     1      27.636   3.152  50.692  1.00  0.00     0.161 HD
ENDROOT
TORSDOF 0
ENDMDL
MODEL 2
REMARK VINA RESULT:      -8.9      2.625      4.818
REMARK  0 active torsions:
REMARK  status: ('A' for Active; 'I' for Inactive)
ROOT
HETATM    1  C1  UNL     1      18.604   0.271  51.414  1.00  0.00     0.055 C 
HETATM    2  C2  UNL     1      19.916   1.061  51.548  1.00  0.00     0.176 C 
HETATM    3  N1  UNL     1      20.141   1.608  50.251  1.00  0.00    -0.377 N 
HETATM    4  C3  UNL     1      20.440   2.179  49.065  1.00  0.00     0.101 C 
HETATM    5  C4  UNL     1      20.729   2.644  47.865  1.00  0.00     0.102 C 
HETATM    6  N2  UNL     1      20.942   4.049  47.607  1.00  0.00    -0.388 N 
HETATM    7  C5  UNL     1      21.237   5.475  47.385  1.00  0.00     0.129 C 
HETATM    8  C6  UNL     1      22.667   5.214  47.457  1.00  0.00     0.036 C 
HETATM    9  C7  UNL     1      22.314   3.892  48.130  1.00  0.00     0.129 C 
HETATM   10  C8  UNL     1      23.569   6.079  48.227  1.00  0.00     0.070 C 
HETATM   11 BR1  UNL     1      24.237   7.525  47.172  1.00  0.00    -0.090 Br
HETATM   12  C9  UNL     1      23.089   6.491  49.584  1.00  0.00     0.011 C 
HETATM   13  C10 UNL     1      23.140   6.099  50.887  1.00  0.00     0.002 C 
HETATM   14  C11 UNL     1      23.703   5.018  51.795  1.00  0.00     0.012 C 
HETATM   15  C12 UNL     1      24.494   3.891  51.546  1.00  0.00     0.067 A 
HETATM   16  N3  UNL     1      24.543   3.451  52.931  1.00  0.00    -0.271 NA
HETATM   17  C13 UNL     1      25.083   2.260  53.458  1.00  0.00     0.117 A 
HETATM   18  N4  UNL     1      26.214   1.761  54.105  1.00  0.00    -0.229 NA
HETATM   19  C14 UNL     1      26.783   0.806  54.572  1.00  0.00     0.235 A 
HETATM   20  N5  UNL     1      26.082  -0.371  54.473  1.00  0.00    -0.241 NA
HETATM   21  C15 UNL     1      24.888  -0.197  53.873  1.00  0.00     0.071 A 
HETATM   22  C16 UNL     1      23.878  -1.081  53.656  1.00  0.00     0.035 A 
HETATM   23  C17 UNL     1      22.669  -1.267  53.199  1.00  0.00     0.031 A 
HETATM   24  C18 UNL     1      22.245   0.038  52.728  1.00  0.00     0.030 A 
HETATM   25  C19 UNL     1      23.097   1.153  52.822  1.00  0.00     0.046 A 
HETATM   26  C20 UNL     1      24.389   0.945  53.400  1.00  0.00     0.035 A 
HETATM   27  N6  UNL     1      20.931   0.332  52.206  1.00  0.00    -0.369 N 
HETATM   28  H5  UNL     1      19.414   1.238  49.479  1.00  0.00     0.161 HD
HETATM   29  H18 UNL     1      24.983   2.848  52.123  1.00  0.00     0.151 HD
HETATM   30  H23 UNL     1      20.333  -0.484  52.560  1.00  0.00     0.161 HD
ENDROOT
TORSDOF 0
ENDMDL
MODEL 3
REMARK VINA RESULT:      -8.5      2.932      5.095
REMARK  0 active torsions:
REMARK  status: ('A' for Active; 'I' for Inactive)
ROOT
HETATM    1  C1  UNL     1      25.582   0.684  52.828  1.00  0.00     0.055 C 
HETATM    2  C2  UNL     1      24.166   0.991  52.315  1.00  0.00     0.176 C 
HETATM    3  N1  UNL     1      24.061   2.412  52.377  1.00  0.00    -0.377 N 
HETATM    4  C3  UNL     1      23.864   3.747  52.388  1.00  0.00     0.101 C 
HETATM    5  C4  UNL     1      23.693   5.050  52.498  1.00  0.00     0.102 C 
HETATM    6  N2  UNL     1      23.324   5.883  51.378  1.00  0.00    -0.388 N 
HETATM    7  C5  UNL     1      22.867   6.697  50.239  1.00  0.00     0.129 C 
HETATM    8  C6  UNL     1      21.493   6.635  50.717  1.00  0.00     0.036 C 
HETATM    9  C7  UNL     1      21.926   5.450  51.573  1.00  0.00     0.129 C 
HETATM   10  C8  UNL     1      20.373   6.365  49.807  1.00  0.00     0.070 C 
HETATM   11 BR1  UNL     1      19.671   7.973  49.050  1.00  0.00    -0.090 Br
HETATM   12  C9  UNL     1      20.583   5.268  48.810  1.00  0.00     0.011 C 
HETATM   13  C10 UNL     1      20.396   3.928  48.659  1.00  0.00     0.002 C 
HETATM   14  C11 UNL     1      19.863   2.701  49.379  1.00  0.00     0.012 C 
HETATM   15  C12 UNL     1      19.285   2.521  50.640  1.00  0.00     0.067 A 
HETATM   16  N3  UNL     1      19.094   1.087  50.500  1.00  0.00    -0.271 NA
HETATM   17  C13 UNL     1      18.656   0.158  51.465  1.00  0.00     0.117 A 
HETATM   18  N4  UNL     1      17.523  -0.549  51.873  1.00  0.00    -0.229 NA
HETATM   19  C14 UNL     1      17.033  -1.324  52.656  1.00  0.00     0.235 A 
HETATM   20  N5  UNL     1      17.900  -1.776  53.620  1.00  0.00    -0.241 NA
HETATM   21  C15 UNL     1      19.133  -1.252  53.473  1.00  0.00     0.071 A 
HETATM   22  C16 UNL     1      20.279  -1.500  54.161  1.00  0.00     0.035 A 
HETATM   23  C17 UNL     1      21.556  -1.256  54.280  1.00  0.00     0.031 A 
HETATM   24  C18 UNL     1      21.856  -0.322  53.211  1.00  0.00     0.030 A 
HETATM   25  C19 UNL     1      20.851   0.121  52.334  1.00  0.00     0.046 A 
HETATM   26  C20 UNL     1      19.530  -0.389  52.538  1.00  0.00     0.035 A 
HETATM   27  N6  UNL     1      23.178   0.172  52.903  1.00  0.00    -0.369 N 
HETATM   28  H5  UNL     1      24.940   2.902  52.875  1.00  0.00     0.161 HD
HETATM   29  H18 UNL     1      18.868   1.604  51.443  1.00  0.00     0.151 HD
HETATM   30  H23 UNL     1      23.827  -0.534  53.384  1.00  0.00     0.161 HD
ENDROOT
TORSDOF 0
ENDMDL
MODEL 4
REMARK VINA RESULT:      -8.4      2.810      3.866
REMARK  0 active torsions:
REMARK  status: ('A' for Active; 'I' for Inactive)
ROOT
HETATM    1  C1  UNL     1      22.528   2.948  47.960  1.00  0.00     0.055 C 
HETATM    2  C2  UNL     1      21.797   2.220  49.100  1.00  0.00     0.176 C 
HETATM    3  N1  UNL     1      20.688   3.059  49.411  1.00  0.00    -0.377 N 
HETATM    4  C3  UNL     1      19.605   3.776  49.776  1.00  0.00     0.101 C 
HETATM    5  C4  UNL     1      18.609   4.556  50.150  1.00  0.00     0.102 C 
HETATM    6  N2  UNL     1      17.236   4.107  50.171  1.00  0.00    -0.388 N 
HETATM    7  C5  UNL     1      15.856   3.600  50.263  1.00  0.00     0.129 C 
HETATM    8  C6  UNL     1      16.011   3.375  51.693  1.00  0.00     0.036 C 
HETATM    9  C7  UNL     1      17.516   3.453  51.465  1.00  0.00     0.129 C 
HETATM   10  C8  UNL     1      15.545   2.139  52.333  1.00  0.00     0.070 C 
HETATM   11 BR1  UNL     1      13.726   2.276  52.902  1.00  0.00    -0.090 Br
HETATM   12  C9  UNL     1      15.858   0.865  51.611  1.00  0.00     0.011 C 
HETATM   13  C10 UNL     1      16.813  -0.103  51.544  1.00  0.00     0.002 C 
HETATM   14  C11 UNL     1      18.148  -0.518  52.141  1.00  0.00     0.012 C 
HETATM   15  C12 UNL     1      18.961   0.052  53.127  1.00  0.00     0.067 A 
HETATM   16  N3  UNL     1      19.997  -0.966  53.055  1.00  0.00    -0.271 NA
HETATM   17  C13 UNL     1      21.250  -0.994  53.699  1.00  0.00     0.117 A 
HETATM   18  N4  UNL     1      21.908  -1.555  54.795  1.00  0.00    -0.229 NA
HETATM   19  C14 UNL     1      22.924  -1.643  55.438  1.00  0.00     0.235 A 
HETATM   20  N5  UNL     1      23.964  -0.889  54.953  1.00  0.00    -0.241 NA
HETATM   21  C15 UNL     1      23.619  -0.211  53.841  1.00  0.00     0.071 A 
HETATM   22  C16 UNL     1      24.371   0.573  53.023  1.00  0.00     0.035 A 
HETATM   23  C17 UNL     1      24.411   1.292  51.934  1.00  0.00     0.031 A 
HETATM   24  C18 UNL     1      23.075   1.197  51.377  1.00  0.00     0.030 A 
HETATM   25  C19 UNL     1      22.075   0.447  52.020  1.00  0.00     0.046 A 
HETATM   26  C20 UNL     1      22.431  -0.216  53.237  1.00  0.00     0.035 A 
HETATM   27  N6  UNL     1      22.670   1.776  50.117  1.00  0.00    -0.369 N 
HETATM   28  H5  UNL     1      20.705   4.040  48.865  1.00  0.00     0.161 HD
HETATM   29  H18 UNL     1      20.112  -0.077  53.692  1.00  0.00     0.151 HD
HETATM   30  H23 UNL     1      23.600   1.952  49.613  1.00  0.00     0.161 HD
ENDROOT
TORSDOF 0
ENDMDL
MODEL 5
REMARK VINA RESULT:      -8.3      2.292      4.720
REMARK  0 active torsions:
REMARK  status: ('A' for Active; 'I' for Inactive)
ROOT
HETATM    1  C1  UNL     1      19.998  -0.111  53.880  1.00  0.00     0.055 C 
HETATM    2  C2  UNL     1      21.127   0.704  53.230  1.00  0.00     0.176 C 
HETATM    3  N1  UNL     1      20.729   0.850  51.869  1.00  0.00    -0.377 N 
HETATM    4  C3  UNL     1      20.439   1.052  50.566  1.00  0.00     0.101 C 
HETATM    5  C4  UNL     1      20.149   1.149  49.283  1.00  0.00     0.102 C 
HETATM    6  N2  UNL     1      20.041   2.419  48.604  1.00  0.00    -0.388 N 
HETATM    7  C5  UNL     1      20.019   3.722  47.918  1.00  0.00     0.129 C 
HETATM    8  C6  UNL     1      21.376   3.516  47.435  1.00  0.00     0.036 C 
HETATM    9  C7  UNL     1      21.514   2.445  48.511  1.00  0.00     0.129 C 
HETATM   10  C8  UNL     1      22.383   4.583  47.491  1.00  0.00     0.070 C 
HETATM   11 BR1  UNL     1      22.358   5.666  45.918  1.00  0.00    -0.090 Br
HETATM   12  C9  UNL     1      22.441   5.368  48.765  1.00  0.00     0.011 C 
HETATM   13  C10 UNL     1      23.070   5.376  49.973  1.00  0.00     0.002 C 
HETATM   14  C11 UNL     1      24.097   4.619  50.798  1.00  0.00     0.012 C 
HETATM   15  C12 UNL     1      24.868   3.481  50.536  1.00  0.00     0.067 A 
HETATM   16  N3  UNL     1      25.535   3.468  51.828  1.00  0.00    -0.271 NA
HETATM   17  C13 UNL     1      26.402   2.493  52.360  1.00  0.00     0.117 A 
HETATM   18  N4  UNL     1      27.756   2.224  52.566  1.00  0.00    -0.229 NA
HETATM   19  C14 UNL     1      28.593   1.457  52.974  1.00  0.00     0.235 A 
HETATM   20  N5  UNL     1      28.083   0.292  53.493  1.00  0.00    -0.241 NA
HETATM   21  C15 UNL     1      26.737   0.264  53.439  1.00  0.00     0.071 A 
HETATM   22  C16 UNL     1      25.860  -0.661  53.913  1.00  0.00     0.035 A 
HETATM   23  C17 UNL     1      24.609  -0.993  54.083  1.00  0.00     0.031 A 
HETATM   24  C18 UNL     1      23.853   0.110  53.519  1.00  0.00     0.030 A 
HETATM   25  C19 UNL     1      24.505   1.216  52.947  1.00  0.00     0.046 A 
HETATM   26  C20 UNL     1      25.935   1.209  52.948  1.00  0.00     0.035 A 
HETATM   27  N6  UNL     1      22.413   0.217  53.554  1.00  0.00    -0.369 N 
HETATM   28  H5  UNL     1      19.811   0.258  51.608  1.00  0.00     0.161 HD
HETATM   29  H18 UNL     1      25.690   2.662  51.096  1.00  0.00     0.151 HD
HETATM   30  H23 UNL     1      22.130  -0.469  54.328  1.00  0.00     0.161 HD
ENDROOT
TORSDOF 0
ENDMDL
MODEL 6
REMARK VINA RESULT:      -8.2      2.463      4.144
REMARK  0 active torsions:
REMARK  status: ('A' for Active; 'I' for Inactive)
ROOT
HETATM    1  C1  UNL     1      26.735   2.858  50.834  1.00  0.00     0.055 C 
HETATM    2  C2  UNL     1      25.205   2.932  50.717  1.00  0.00     0.176 C 
HETATM    3  N1  UNL     1      24.898   4.316  50.871  1.00  0.00    -0.377 N 
HETATM    4  C3  UNL     1      24.505   5.601  50.996  1.00  0.00     0.101 C 
HETATM    5  C4  UNL     1      24.168   6.858  51.208  1.00  0.00     0.102 C 
HETATM    6  N2  UNL     1      23.393   7.625  50.260  1.00  0.00    -0.388 N 
HETATM    7  C5  UNL     1      22.532   8.359  49.317  1.00  0.00     0.129 C 
HETATM    8  C6  UNL     1      21.359   8.071  50.128  1.00  0.00     0.036 C 
HETATM    9  C7  UNL     1      22.180   6.969  50.787  1.00  0.00     0.129 C 
HETATM   10  C8  UNL     1      20.096   7.627  49.526  1.00  0.00     0.070 C 
HETATM   11 BR1  UNL     1      18.978   9.102  49.051  1.00  0.00    -0.090 Br
HETATM   12  C9  UNL     1      20.207   6.584  48.457  1.00  0.00     0.011 C 
HETATM   13  C10 UNL     1      20.198   5.232  48.296  1.00  0.00     0.002 C 
HETATM   14  C11 UNL     1      20.071   3.930  49.071  1.00  0.00     0.012 C 
HETATM   15  C12 UNL     1      19.879   3.652  50.428  1.00  0.00     0.067 A 
HETATM   16  N3  UNL     1      19.884   2.207  50.274  1.00  0.00    -0.271 NA
HETATM   17  C13 UNL     1      19.864   1.215  51.274  1.00  0.00     0.117 A 
HETATM   18  N4  UNL     1      19.002   0.331  51.926  1.00  0.00    -0.229 NA
HETATM   19  C14 UNL     1      18.861  -0.517  52.771  1.00  0.00     0.235 A 
HETATM   20  N5  UNL     1      20.009  -0.826  53.457  1.00  0.00    -0.241 NA
HETATM   21  C15 UNL     1      21.063  -0.107  53.024  1.00  0.00     0.071 A 
HETATM   22  C16 UNL     1      22.374  -0.169  53.381  1.00  0.00     0.035 A 
HETATM   23  C17 UNL     1      23.583   0.280  53.179  1.00  0.00     0.031 A 
HETATM   24  C18 UNL     1      23.444   1.255  52.114  1.00  0.00     0.030 A 
HETATM   25  C19 UNL     1      22.188   1.533  51.547  1.00  0.00     0.046 A 
HETATM   26  C20 UNL     1      21.063   0.813  52.059  1.00  0.00     0.035 A 
HETATM   27  N6  UNL     1      24.545   1.959  51.500  1.00  0.00    -0.369 N 
HETATM   28  H5  UNL     1      25.789   4.941  51.150  1.00  0.00     0.161 HD
HETATM   29  H18 UNL     1      19.835   2.676  51.267  1.00  0.00     0.151 HD
HETATM   30  H23 UNL     1      25.399   1.367  51.764  1.00  0.00     0.161 HD
ENDROOT
TORSDOF 0
ENDMDL
MODEL 7
REMARK VINA RESULT:      -8.0      4.001      6.861
REMARK  0 active torsions:
REMARK  status: ('A' for Active; 'I' for Inactive)
ROOT
HETATM    1  C1  UNL     1      23.110   9.770  46.787  1.00  0.00     0.055 C 
HETATM    2  C2  UNL     1      23.884   8.567  47.349  1.00  0.00     0.176 C 
HETATM    3  N1  UNL     1      23.159   8.184  48.515  1.00  0.00    -0.377 N 
HETATM    4  C3  UNL     1      22.540   7.737  49.628  1.00  0.00     0.101 C 
HETATM    5  C4  UNL     1      21.945   7.393  50.754  1.00  0.00     0.102 C 
HETATM    6  N2  UNL     1      21.448   6.059  50.994  1.00  0.00    -0.388 N 
HETATM    7  C5  UNL     1      21.024   4.671  51.247  1.00  0.00     0.129 C 
HETATM    8  C6  UNL     1      22.245   4.411  51.995  1.00  0.00     0.036 C 
HETATM    9  C7  UNL     1      22.827   5.652  51.328  1.00  0.00     0.129 C 
HETATM   10  C8  UNL     1      23.020   3.181  51.798  1.00  0.00     0.070 C 
HETATM   11 BR1  UNL     1      22.427   1.775  52.949  1.00  0.00    -0.090 Br
HETATM   12  C9  UNL     1      23.228   2.752  50.379  1.00  0.00     0.011 C 
HETATM   13  C10 UNL     1      24.109   2.896  49.350  1.00  0.00     0.002 C 
HETATM   14  C11 UNL     1      25.424   3.563  48.978  1.00  0.00     0.012 C 
HETATM   15  C12 UNL     1      26.309   4.374  49.696  1.00  0.00     0.067 A 
HETATM   16  N3  UNL     1      27.250   4.550  48.602  1.00  0.00    -0.271 NA
HETATM   17  C13 UNL     1      28.383   5.386  48.541  1.00  0.00     0.117 A 
HETATM   18  N4  UNL     1      29.774   5.359  48.662  1.00  0.00    -0.229 NA
HETATM   19  C14 UNL     1      30.810   5.976  48.651  1.00  0.00     0.235 A 
HETATM   20  N5  UNL     1      30.661   7.322  48.423  1.00  0.00    -0.241 NA
HETATM   21  C15 UNL     1      29.369   7.664  48.250  1.00  0.00     0.071 A 
HETATM   22  C16 UNL     1      28.814   8.863  47.929  1.00  0.00     0.035 A 
HETATM   23  C17 UNL     1      27.722   9.522  47.654  1.00  0.00     0.031 A 
HETATM   24  C18 UNL     1      26.664   8.532  47.724  1.00  0.00     0.030 A 
HETATM   25  C19 UNL     1      26.947   7.192  48.044  1.00  0.00     0.046 A 
HETATM   26  C20 UNL     1      28.313   6.851  48.292  1.00  0.00     0.035 A 
HETATM   27  N6  UNL     1      25.278   8.791  47.412  1.00  0.00    -0.369 N 
HETATM   28  H5  UNL     1      22.331   8.896  48.778  1.00  0.00     0.161 HD
HETATM   29  H18 UNL     1      27.376   5.082  49.556  1.00  0.00     0.151 HD
HETATM   30  H23 UNL     1      25.316   9.698  46.840  1.00  0.00     0.161 HD
ENDROOT
TORSDOF 0
ENDMDL
MODEL 8
REMARK VINA RESULT:      -7.9      3.523      5.302
REMARK  0 active torsions:
REMARK  status: ('A' for Active; 'I' for Inactive)
ROOT
HETATM    1  C1  UNL     1      29.337   5.546  48.402  1.00  0.00     0.055 C 
HETATM    2  C2  UNL     1      27.805   5.428  48.396  1.00  0.00     0.176 C 
HETATM    3  N1  UNL     1      27.339   6.771  48.504  1.00  0.00    -0.377 N 
HETATM    4  C3  UNL     1      26.797   8.004  48.594  1.00  0.00     0.101 C 
HETATM    5  C4  UNL     1      26.321   9.221  48.768  1.00  0.00     0.102 C 
HETATM    6  N2  UNL     1      25.394   9.832  47.844  1.00  0.00    -0.388 N 
HETATM    7  C5  UNL     1      24.387  10.401  46.932  1.00  0.00     0.129 C 
HETATM    8  C6  UNL     1      23.316  10.021  47.841  1.00  0.00     0.036 C 
HETATM    9  C7  UNL     1      24.311   9.066  48.491  1.00  0.00     0.129 C 
HETATM   10  C8  UNL     1      22.081   9.392  47.356  1.00  0.00     0.070 C 
HETATM   11 BR1  UNL     1      20.758  10.691  46.893  1.00  0.00    -0.090 Br
HETATM   12  C9  UNL     1      22.249   8.310  46.335  1.00  0.00     0.011 C 
HETATM   13  C10 UNL     1      22.399   6.960  46.242  1.00  0.00     0.002 C 
HETATM   14  C11 UNL     1      22.487   5.699  47.087  1.00  0.00     0.012 C 
HETATM   15  C12 UNL     1      22.424   5.480  48.467  1.00  0.00     0.067 A 
HETATM   16  N3  UNL     1      22.599   4.039  48.384  1.00  0.00    -0.271 NA
HETATM   17  C13 UNL     1      22.771   3.111  49.430  1.00  0.00     0.117 A 
HETATM   18  N4  UNL     1      22.072   2.169  50.187  1.00  0.00    -0.229 NA
HETATM   19  C14 UNL     1      22.095   1.360  51.081  1.00  0.00     0.235 A 
HETATM   20  N5  UNL     1      23.317   1.233  51.694  1.00  0.00    -0.241 NA
HETATM   21  C15 UNL     1      24.241   2.048  51.149  1.00  0.00     0.071 A 
HETATM   22  C16 UNL     1      25.570   2.166  51.411  1.00  0.00     0.035 A 
HETATM   23  C17 UNL     1      26.698   2.746  51.099  1.00  0.00     0.031 A 
HETATM   24  C18 UNL     1      26.366   3.634  50.000  1.00  0.00     0.030 A 
HETATM   25  C19 UNL     1      25.050   3.724  49.514  1.00  0.00     0.046 A 
HETATM   26  C20 UNL     1      24.060   2.904  50.143  1.00  0.00     0.035 A 
HETATM   27  N6  UNL     1      27.327   4.430  49.272  1.00  0.00    -0.369 N 
HETATM   28  H5  UNL     1      28.162   7.514  48.684  1.00  0.00     0.161 HD
HETATM   29  H18 UNL     1      22.559   4.555  49.354  1.00  0.00     0.151 HD
HETATM   30  H23 UNL     1      28.264   3.961  49.501  1.00  0.00     0.161 HD
ENDROOT
TORSDOF 0
ENDMDL
MODEL 9
REMARK VINA RESULT:      -7.7      2.611      3.988
REMARK  0 active torsions:
REMARK  status: ('A' for Active; 'I' for Inactive)
ROOT
HETATM    1  C1  UNL     1      21.794   3.996  45.813  1.00  0.00     0.055 C 
HETATM    2  C2  UNL     1      21.513   3.292  47.150  1.00  0.00     0.176 C 
HETATM    3  N1  UNL     1      20.295   3.870  47.613  1.00  0.00    -0.377 N 
HETATM    4  C3  UNL     1      19.145   4.346  48.134  1.00  0.00     0.101 C 
HETATM    5  C4  UNL     1      18.062   4.905  48.639  1.00  0.00     0.102 C 
HETATM    6  N2  UNL     1      16.892   4.141  49.004  1.00  0.00    -0.388 N 
HETATM    7  C5  UNL     1      15.744   3.330  49.445  1.00  0.00     0.129 C 
HETATM    8  C6  UNL     1      16.216   3.370  50.821  1.00  0.00     0.036 C 
HETATM    9  C7  UNL     1      17.573   3.780  50.263  1.00  0.00     0.129 C 
HETATM   10  C8  UNL     1      16.230   2.170  51.665  1.00  0.00     0.070 C 
HETATM   11 BR1  UNL     1      14.581   1.940  52.602  1.00  0.00    -0.090 Br
HETATM   12  C9  UNL     1      16.739   0.917  51.021  1.00  0.00     0.011 C 
HETATM   13  C10 UNL     1      17.891   0.215  50.842  1.00  0.00     0.002 C 
HETATM   14  C11 UNL     1      19.376   0.237  51.170  1.00  0.00     0.012 C 
HETATM   15  C12 UNL     1      20.171   1.131  51.893  1.00  0.00     0.067 A 
HETATM   16  N3  UNL     1      21.412   0.401  51.696  1.00  0.00    -0.271 NA
HETATM   17  C13 UNL     1      22.722   0.779  52.050  1.00  0.00     0.117 A 
HETATM   18  N4  UNL     1      23.699   0.571  53.025  1.00  0.00    -0.229 NA
HETATM   19  C14 UNL     1      24.802   0.834  53.436  1.00  0.00     0.235 A 
HETATM   20  N5  UNL     1      25.490   1.737  52.663  1.00  0.00    -0.241 NA
HETATM   21  C15 UNL     1      24.773   2.133  51.593  1.00  0.00     0.071 A 
HETATM   22  C16 UNL     1      25.119   2.944  50.557  1.00  0.00     0.035 A 
HETATM   23  C17 UNL     1      24.759   3.477  49.421  1.00  0.00     0.031 A 
HETATM   24  C18 UNL     1      23.420   2.972  49.182  1.00  0.00     0.030 A 
HETATM   25  C19 UNL     1      22.799   2.106  50.098  1.00  0.00     0.046 A 
HETATM   26  C20 UNL     1      23.541   1.744  51.266  1.00  0.00     0.035 A 
HETATM   27  N6  UNL     1      22.647   3.236  47.991  1.00  0.00    -0.369 N 
HETATM   28  H5  UNL     1      19.943   4.730  46.983  1.00  0.00     0.161 HD
HETATM   29  H18 UNL     1      21.397   1.376  52.202  1.00  0.00     0.151 HD
HETATM   30  H23 UNL     1      23.384   3.557  47.280  1.00  0.00     0.161 HD
ENDROOT
TORSDOF 0
ENDMDL
