MODEL 1
REMARK VINA RESULT:      -7.0      0.000      0.000
REMARK  2 active torsions:
REMARK  status: ('A' for Active; 'I' for Inactive)
REMARK    1  A    between atoms: C2_2  and  C3_4 
REMARK    2  A    between atoms: C13_17  and  N4_18 
ROOT
HETATM    1  C3  UNL     1      33.221   5.223  47.801  1.00  0.00     0.073 A 
HETATM    2  C4  UNL     1      33.602   6.392  48.261  1.00  0.00    -0.029 A 
HETATM    3  C5  UNL     1      32.845   7.387  48.986  1.00  0.00     0.013 A 
HETATM    4  C6  UNL     1      31.596   7.030  49.169  1.00  0.00     0.053 A 
HETATM    5  C7  UNL     1      31.214   5.748  48.633  1.00  0.00     0.148 A 
HETATM    6  N1  UNL     1      29.951   5.410  48.523  1.00  0.00    -0.157 NA
HETATM    7  N2  UNL     1      28.959   6.351  48.933  1.00  0.00    -0.288 N 
HETATM    8  C8  UNL     1      28.996   6.901  47.592  1.00  0.00     0.107 C 
HETATM    9  C9  UNL     1      29.359   7.664  46.543  1.00  0.00     0.011 C 
HETATM   10  C10 UNL     1      29.437   8.256  45.196  1.00  0.00     0.143 C 
HETATM   11  N3  UNL     1      30.646   8.089  44.549  1.00  0.00    -0.418 N 
HETATM   12  C11 UNL     1      31.883   8.636  44.756  1.00  0.00     0.116 C 
HETATM   13  C12 UNL     1      32.590   8.202  46.059  1.00  0.00     0.043 C 
HETATM   14  C13 UNL     1      34.036   8.578  46.090  1.00  0.00     0.075 C 
HETATM   15  C14 UNL     1      34.745   8.421  47.381  1.00  0.00     0.029 C 
HETATM   16  C15 UNL     1      34.891   7.061  47.974  1.00  0.00     0.043 C 
HETATM   17  N5  UNL     1      31.904   4.734  47.936  1.00  0.00    -0.337 N 
HETATM   18  H5  UNL     1      28.242   7.006  49.294  1.00  0.00     0.188 HD
HETATM   19  H10 UNL     1      30.656   7.284  43.839  1.00  0.00     0.153 HD
HETATM   20  H22 UNL     1      31.693   3.807  47.538  1.00  0.00     0.167 HD
ENDROOT
BRANCH   1  21
HETATM   21  C2  UNL     1      34.304   4.525  47.145  1.00  0.00     0.105 A 
HETATM   22  C1  UNL     1      34.671   3.409  47.747  1.00  0.00     0.252 A 
HETATM   23  F1  UNL     1      35.316   3.868  46.538  1.00  0.00    -0.364 F 
ENDBRANCH   1  21
BRANCH  14  24
HETATM   24  N4  UNL     1      34.743   7.980  44.977  1.00  0.00    -0.426 N 
HETATM   25  H16 UNL     1      34.933   8.562  44.179  1.00  0.00     0.150 HD
HETATM   26  H17 UNL     1      34.885   6.989  44.986  1.00  0.00     0.150 HD
ENDBRANCH  14  24
TORSDOF 2
ENDMDL
MODEL 2
REMARK VINA RESULT:      -6.8      8.873     11.454
REMARK  2 active torsions:
REMARK  status: ('A' for Active; 'I' for Inactive)
REMARK    1  A    between atoms: C2_2  and  C3_4 
REMARK    2  A    between atoms: C13_17  and  N4_18 
ROOT
HETATM    1  C3  UNL     1      23.099   4.732  50.407  1.00  0.00     0.073 A 
HETATM    2  C4  UNL     1      24.038   4.034  49.814  1.00  0.00    -0.029 A 
HETATM    3  C5  UNL     1      23.920   2.903  48.921  1.00  0.00     0.013 A 
HETATM    4  C6  UNL     1      22.671   2.550  48.724  1.00  0.00     0.053 A 
HETATM    5  C7  UNL     1      21.672   3.332  49.407  1.00  0.00     0.148 A 
HETATM    6  N1  UNL     1      20.431   2.914  49.497  1.00  0.00    -0.157 NA
HETATM    7  N2  UNL     1      20.095   1.656  48.911  1.00  0.00    -0.288 N 
HETATM    8  C8  UNL     1      20.464   1.029  50.165  1.00  0.00     0.107 C 
HETATM    9  C9  UNL     1      21.214   0.443  51.119  1.00  0.00     0.011 C 
HETATM   10  C10 UNL     1      21.641  -0.198  52.376  1.00  0.00     0.143 C 
HETATM   11  N3  UNL     1      22.585   0.501  53.101  1.00  0.00    -0.418 N 
HETATM   12  C11 UNL     1      23.914   0.745  52.887  1.00  0.00     0.116 C 
HETATM   13  C12 UNL     1      24.234   1.672  51.694  1.00  0.00     0.043 C 
HETATM   14  C13 UNL     1      25.652   2.146  51.687  1.00  0.00     0.075 C 
HETATM   15  C14 UNL     1      26.123   2.842  50.469  1.00  0.00     0.029 C 
HETATM   16  C15 UNL     1      25.492   4.134  50.074  1.00  0.00     0.043 C 
HETATM   17  N5  UNL     1      21.724   4.446  50.271  1.00  0.00    -0.337 N 
HETATM   18  H5  UNL     1      19.837   0.777  48.428  1.00  0.00     0.188 HD
HETATM   19  H10 UNL     1      22.178   1.073  53.913  1.00  0.00     0.153 HD
HETATM   20  H22 UNL     1      21.056   5.044  50.779  1.00  0.00     0.167 HD
ENDROOT
BRANCH   1  21
HETATM   21  C2  UNL     1      23.650   5.803  51.207  1.00  0.00     0.105 A 
HETATM   22  C1  UNL     1      23.255   7.008  50.844  1.00  0.00     0.252 A 
HETATM   23  F1  UNL     1      24.161   6.808  51.950  1.00  0.00    -0.364 F 
ENDBRANCH   1  21
BRANCH  14  24
HETATM   24  N4  UNL     1      25.954   2.865  52.907  1.00  0.00    -0.426 N 
HETATM   25  H16 UNL     1      25.598   2.490  53.770  1.00  0.00     0.150 HD
HETATM   26  H17 UNL     1      26.377   3.769  52.829  1.00  0.00     0.150 HD
ENDBRANCH  14  24
TORSDOF 2
ENDMDL
MODEL 3
REMARK VINA RESULT:      -6.7      9.130     12.019
REMARK  2 active torsions:
REMARK  status: ('A' for Active; 'I' for Inactive)
REMARK    1  A    between atoms: C2_2  and  C3_4 
REMARK    2  A    between atoms: C13_17  and  N4_18 
ROOT
HETATM    1  C3  UNL     1      21.684   3.388  51.604  1.00  0.00     0.073 A 
HETATM    2  C4  UNL     1      22.186   2.903  50.493  1.00  0.00    -0.029 A 
HETATM    3  C5  UNL     1      22.351   1.527  50.080  1.00  0.00     0.013 A 
HETATM    4  C6  UNL     1      21.941   0.679  50.993  1.00  0.00     0.053 A 
HETATM    5  C7  UNL     1      21.413   1.252  52.205  1.00  0.00     0.148 A 
HETATM    6  N1  UNL     1      21.225   0.516  53.276  1.00  0.00    -0.157 NA
HETATM    7  N2  UNL     1      21.570  -0.867  53.216  1.00  0.00    -0.288 N 
HETATM    8  C8  UNL     1      22.912  -0.500  53.626  1.00  0.00     0.107 C 
HETATM    9  C9  UNL     1      24.203  -0.122  53.551  1.00  0.00     0.011 C 
HETATM   10  C10 UNL     1      25.579   0.259  53.915  1.00  0.00     0.143 C 
HETATM   11  N3  UNL     1      25.950   1.539  53.553  1.00  0.00    -0.418 N 
HETATM   12  C11 UNL     1      26.216   2.111  52.338  1.00  0.00     0.116 C 
HETATM   13  C12 UNL     1      25.001   2.263  51.398  1.00  0.00     0.043 C 
HETATM   14  C13 UNL     1      25.276   3.154  50.230  1.00  0.00     0.075 C 
HETATM   15  C14 UNL     1      24.264   3.179  49.149  1.00  0.00     0.029 C 
HETATM   16  C15 UNL     1      22.890   3.678  49.446  1.00  0.00     0.043 C 
HETATM   17  N5  UNL     1      21.214   2.574  52.656  1.00  0.00    -0.337 N 
HETATM   18  H5  UNL     1      21.757  -1.884  53.152  1.00  0.00     0.188 HD
HETATM   19  H10 UNL     1      25.891   2.254  54.351  1.00  0.00     0.153 HD
HETATM   20  H22 UNL     1      20.841   3.042  53.495  1.00  0.00     0.167 HD
ENDROOT
BRANCH   1  21
HETATM   21  C2  UNL     1      21.686   4.834  51.608  1.00  0.00     0.105 A 
HETATM   22  C1  UNL     1      22.601   5.372  52.392  1.00  0.00     0.252 A 
HETATM   23  F1  UNL     1      21.693   6.184  51.616  1.00  0.00    -0.364 F 
ENDBRANCH   1  21
BRANCH  14  24
HETATM   24  N4  UNL     1      25.665   4.475  50.676  1.00  0.00    -0.426 N 
HETATM   25  H16 UNL     1      26.121   4.549  51.570  1.00  0.00     0.150 HD
HETATM   26  H17 UNL     1      25.342   5.264  50.152  1.00  0.00     0.150 HD
ENDBRANCH  14  24
TORSDOF 2
ENDMDL
MODEL 4
REMARK VINA RESULT:      -6.7      9.953     12.696
REMARK  2 active torsions:
REMARK  status: ('A' for Active; 'I' for Inactive)
REMARK    1  A    between atoms: C2_2  and  C3_4 
REMARK    2  A    between atoms: C13_17  and  N4_18 
ROOT
HETATM    1  C3  UNL     1      22.592   2.891  49.925  1.00  0.00     0.073 A 
HETATM    2  C4  UNL     1      22.003   3.474  50.943  1.00  0.00    -0.029 A 
HETATM    3  C5  UNL     1      22.573   3.982  52.169  1.00  0.00     0.013 A 
HETATM    4  C6  UNL     1      23.870   3.791  52.235  1.00  0.00     0.053 A 
HETATM    5  C7  UNL     1      24.475   3.133  51.105  1.00  0.00     0.148 A 
HETATM    6  N1  UNL     1      25.697   2.658  51.174  1.00  0.00    -0.157 NA
HETATM    7  N2  UNL     1      26.410   2.796  52.403  1.00  0.00    -0.288 N 
HETATM    8  C8  UNL     1      25.827   1.537  52.826  1.00  0.00     0.107 C 
HETATM    9  C9  UNL     1      24.963   0.657  53.367  1.00  0.00     0.011 C 
HETATM   10  C10 UNL     1      24.328  -0.595  53.816  1.00  0.00     0.143 C 
HETATM   11  N3  UNL     1      23.106  -0.875  53.237  1.00  0.00    -0.418 N 
HETATM   12  C11 UNL     1      21.868  -0.309  53.381  1.00  0.00     0.116 C 
HETATM   13  C12 UNL     1      21.729   1.128  52.833  1.00  0.00     0.043 C 
HETATM   14  C13 UNL     1      20.308   1.580  52.737  1.00  0.00     0.075 C 
HETATM   15  C14 UNL     1      20.076   3.014  52.450  1.00  0.00     0.029 C 
HETATM   16  C15 UNL     1      20.542   3.585  51.154  1.00  0.00     0.043 C 
HETATM   17  N5  UNL     1      23.979   2.632  49.884  1.00  0.00    -0.337 N 
HETATM   18  H5  UNL     1      26.951   2.957  53.272  1.00  0.00     0.188 HD
HETATM   19  H10 UNL     1      23.156  -1.576  52.426  1.00  0.00     0.153 HD
HETATM   20  H22 UNL     1      24.355   2.164  49.046  1.00  0.00     0.167 HD
ENDROOT
BRANCH   1  21
HETATM   21  C2  UNL     1      21.651   2.551  48.882  1.00  0.00     0.105 A 
HETATM   22  C1  UNL     1      21.602   1.264  48.596  1.00  0.00     0.252 A 
HETATM   23  F1  UNL     1      20.774   2.226  47.908  1.00  0.00    -0.364 F 
ENDBRANCH   1  21
BRANCH  14  24
HETATM   24  N4  UNL     1      19.549   0.697  51.877  1.00  0.00    -0.426 N 
HETATM   25  H16 UNL     1      19.722   0.749  50.887  1.00  0.00     0.150 HD
HETATM   26  H17 UNL     1      18.793   0.181  52.280  1.00  0.00     0.150 HD
ENDBRANCH  14  24
TORSDOF 2
ENDMDL
MODEL 5
REMARK VINA RESULT:      -6.5      2.264      2.951
REMARK  2 active torsions:
REMARK  status: ('A' for Active; 'I' for Inactive)
REMARK    1  A    between atoms: C2_2  and  C3_4 
REMARK    2  A    between atoms: C13_17  and  N4_18 
ROOT
HETATM    1  C3  UNL     1      32.752   3.910  47.361  1.00  0.00     0.073 A 
HETATM    2  C4  UNL     1      33.928   4.290  46.921  1.00  0.00    -0.029 A 
HETATM    3  C5  UNL     1      34.683   5.484  47.227  1.00  0.00     0.013 A 
HETATM    4  C6  UNL     1      34.047   6.280  48.054  1.00  0.00     0.053 A 
HETATM    5  C7  UNL     1      32.752   5.833  48.500  1.00  0.00     0.148 A 
HETATM    6  N1  UNL     1      31.925   6.653  49.105  1.00  0.00    -0.157 NA
HETATM    7  N2  UNL     1      32.334   8.007  49.300  1.00  0.00    -0.288 N 
HETATM    8  C8  UNL     1      31.781   8.310  47.994  1.00  0.00     0.107 C 
HETATM    9  C9  UNL     1      31.694   8.475  46.660  1.00  0.00     0.011 C 
HETATM   10  C10 UNL     1      31.180   8.771  45.311  1.00  0.00     0.143 C 
HETATM   11  N3  UNL     1      31.172   7.701  44.438  1.00  0.00    -0.418 N 
HETATM   12  C11 UNL     1      32.178   7.025  43.801  1.00  0.00     0.116 C 
HETATM   13  C12 UNL     1      33.099   6.191  44.718  1.00  0.00     0.043 C 
HETATM   14  C13 UNL     1      33.975   5.246  43.961  1.00  0.00     0.075 C 
HETATM   15  C14 UNL     1      35.054   4.574  44.719  1.00  0.00     0.029 C 
HETATM   16  C15 UNL     1      34.699   3.648  45.832  1.00  0.00     0.043 C 
HETATM   17  N5  UNL     1      31.976   4.682  48.252  1.00  0.00    -0.337 N 
HETATM   18  H5  UNL     1      32.657   8.970  49.502  1.00  0.00     0.188 HD
HETATM   19  H10 UNL     1      30.217   7.222  44.340  1.00  0.00     0.153 HD
HETATM   20  H22 UNL     1      31.060   4.307  48.540  1.00  0.00     0.167 HD
ENDROOT
BRANCH   1  21
HETATM   21  C2  UNL     1      32.364   2.627  46.817  1.00  0.00     0.105 A 
HETATM   22  C1  UNL     1      32.723   1.595  47.556  1.00  0.00     0.252 A 
HETATM   23  F1  UNL     1      32.005   1.426  46.315  1.00  0.00    -0.364 F 
ENDBRANCH   1  21
BRANCH  14  24
HETATM   24  N4  UNL     1      33.176   4.330  43.175  1.00  0.00    -0.426 N 
HETATM   25  H16 UNL     1      32.415   4.715  42.641  1.00  0.00     0.150 HD
HETATM   26  H17 UNL     1      33.321   3.348  43.303  1.00  0.00     0.150 HD
ENDBRANCH  14  24
TORSDOF 2
ENDMDL
MODEL 6
REMARK VINA RESULT:      -6.5      8.737     11.572
REMARK  2 active torsions:
REMARK  status: ('A' for Active; 'I' for Inactive)
REMARK    1  A    between atoms: C2_2  and  C3_4 
REMARK    2  A    between atoms: C13_17  and  N4_18 
ROOT
HETATM    1  C3  UNL     1      25.128   3.133  51.061  1.00  0.00     0.073 A 
HETATM    2  C4  UNL     1      24.506   3.800  52.003  1.00  0.00    -0.029 A 
HETATM    3  C5  UNL     1      24.467   3.562  53.428  1.00  0.00     0.013 A 
HETATM    4  C6  UNL     1      25.155   2.500  53.777  1.00  0.00     0.053 A 
HETATM    5  C7  UNL     1      25.809   1.785  52.709  1.00  0.00     0.148 A 
HETATM    6  N1  UNL     1      26.294   0.580  52.899  1.00  0.00    -0.157 NA
HETATM    7  N2  UNL     1      26.145  -0.014  54.188  1.00  0.00    -0.288 N 
HETATM    8  C8  UNL     1      24.863  -0.530  53.749  1.00  0.00     0.107 C 
HETATM    9  C9  UNL     1      23.540  -0.602  53.507  1.00  0.00     0.011 C 
HETATM   10  C10 UNL     1      22.213  -1.079  53.077  1.00  0.00     0.143 C 
HETATM   11  N3  UNL     1      21.602  -0.318  52.100  1.00  0.00    -0.418 N 
HETATM   12  C11 UNL     1      21.039   0.930  52.124  1.00  0.00     0.116 C 
HETATM   13  C12 UNL     1      22.026   2.099  52.332  1.00  0.00     0.043 C 
HETATM   14  C13 UNL     1      21.417   3.434  52.049  1.00  0.00     0.075 C 
HETATM   15  C14 UNL     1      22.199   4.628  52.442  1.00  0.00     0.029 C 
HETATM   16  C15 UNL     1      23.518   4.883  51.794  1.00  0.00     0.043 C 
HETATM   17  N5  UNL     1      25.896   1.976  51.314  1.00  0.00    -0.337 N 
HETATM   18  H5  UNL     1      26.098  -0.418  55.141  1.00  0.00     0.188 HD
HETATM   19  H10 UNL     1      21.704  -0.714  51.108  1.00  0.00     0.153 HD
HETATM   20  H22 UNL     1      26.345   1.512  50.511  1.00  0.00     0.167 HD
ENDROOT
BRANCH   1  21
HETATM   21  C2  UNL     1      24.920   3.723  49.757  1.00  0.00     0.105 A 
HETATM   22  C1  UNL     1      26.003   4.260  49.228  1.00  0.00     0.252 A 
HETATM   23  F1  UNL     1      24.733   4.277  48.540  1.00  0.00    -0.364 F 
ENDBRANCH   1  21
BRANCH  14  24
HETATM   24  N4  UNL     1      20.931   3.494  50.687  1.00  0.00    -0.426 N 
HETATM   25  H16 UNL     1      21.601   3.693  49.962  1.00  0.00     0.150 HD
HETATM   26  H17 UNL     1      19.942   3.478  50.537  1.00  0.00     0.150 HD
ENDBRANCH  14  24
TORSDOF 2
ENDMDL
MODEL 7
REMARK VINA RESULT:      -6.4      7.200     10.033
REMARK  2 active torsions:
REMARK  status: ('A' for Active; 'I' for Inactive)
REMARK    1  A    between atoms: C2_2  and  C3_4 
REMARK    2  A    between atoms: C13_17  and  N4_18 
ROOT
HETATM    1  C3  UNL     1      25.396   4.740  50.231  1.00  0.00     0.073 A 
HETATM    2  C4  UNL     1      24.367   5.500  50.523  1.00  0.00    -0.029 A 
HETATM    3  C5  UNL     1      23.329   5.306  51.509  1.00  0.00     0.013 A 
HETATM    4  C6  UNL     1      23.470   4.181  52.170  1.00  0.00     0.053 A 
HETATM    5  C7  UNL     1      24.603   3.367  51.807  1.00  0.00     0.148 A 
HETATM    6  N1  UNL     1      24.695   2.119  52.205  1.00  0.00    -0.157 NA
HETATM    7  N2  UNL     1      23.635   1.581  52.996  1.00  0.00    -0.288 N 
HETATM    8  C8  UNL     1      22.971   1.206  51.763  1.00  0.00     0.107 C 
HETATM    9  C9  UNL     1      22.186   1.282  50.671  1.00  0.00     0.011 C 
HETATM   10  C10 UNL     1      21.486   0.951  49.416  1.00  0.00     0.143 C 
HETATM   11  N3  UNL     1      21.804   1.752  48.337  1.00  0.00    -0.418 N 
HETATM   12  C11 UNL     1      21.513   3.056  48.042  1.00  0.00     0.116 C 
HETATM   13  C12 UNL     1      22.194   4.108  48.945  1.00  0.00     0.043 C 
HETATM   14  C13 UNL     1      22.091   5.496  48.402  1.00  0.00     0.075 C 
HETATM   15  C14 UNL     1      22.500   6.601  49.298  1.00  0.00     0.029 C 
HETATM   16  C15 UNL     1      23.917   6.685  49.757  1.00  0.00     0.043 C 
HETATM   17  N5  UNL     1      25.650   3.509  50.873  1.00  0.00    -0.337 N 
HETATM   18  H5  UNL     1      22.901   1.211  53.626  1.00  0.00     0.188 HD
HETATM   19  H10 UNL     1      22.523   1.320  47.668  1.00  0.00     0.153 HD
HETATM   20  H22 UNL     1      26.479   2.974  50.576  1.00  0.00     0.167 HD
ENDROOT
BRANCH   1  21
HETATM   21  C2  UNL     1      26.210   5.316  49.184  1.00  0.00     0.105 A 
HETATM   22  C1  UNL     1      27.271   4.598  48.868  1.00  0.00     0.252 A 
HETATM   23  F1  UNL     1      26.975   5.847  48.207  1.00  0.00    -0.364 F 
ENDBRANCH   1  21
BRANCH  14  24
HETATM   24  N4  UNL     1      22.693   5.576  47.088  1.00  0.00    -0.426 N 
HETATM   25  H16 UNL     1      23.537   5.051  46.930  1.00  0.00     0.150 HD
HETATM   26  H17 UNL     1      22.333   6.252  46.444  1.00  0.00     0.150 HD
ENDBRANCH  14  24
TORSDOF 2
ENDMDL
MODEL 8
REMARK VINA RESULT:      -6.4      9.563     12.450
REMARK  2 active torsions:
REMARK  status: ('A' for Active; 'I' for Inactive)
REMARK    1  A    between atoms: C2_2  and  C3_4 
REMARK    2  A    between atoms: C13_17  and  N4_18 
ROOT
HETATM    1  C3  UNL     1      20.609   2.981  51.043  1.00  0.00     0.073 A 
HETATM    2  C4  UNL     1      21.069   2.340  49.995  1.00  0.00    -0.029 A 
HETATM    3  C5  UNL     1      21.534   0.976  49.881  1.00  0.00     0.013 A 
HETATM    4  C6  UNL     1      21.488   0.334  51.024  1.00  0.00     0.053 A 
HETATM    5  C7  UNL     1      20.992   1.079  52.154  1.00  0.00     0.148 A 
HETATM    6  N1  UNL     1      21.148   0.634  53.379  1.00  0.00    -0.157 NA
HETATM    7  N2  UNL     1      21.835  -0.603  53.568  1.00  0.00    -0.288 N 
HETATM    8  C8  UNL     1      23.074   0.149  53.614  1.00  0.00     0.107 C 
HETATM    9  C9  UNL     1      24.198   0.769  53.206  1.00  0.00     0.011 C 
HETATM   10  C10 UNL     1      25.461   1.529  53.199  1.00  0.00     0.143 C 
HETATM   11  N3  UNL     1      25.430   2.715  52.492  1.00  0.00    -0.418 N 
HETATM   12  C11 UNL     1      25.373   2.985  51.151  1.00  0.00     0.116 C 
HETATM   13  C12 UNL     1      24.047   2.606  50.455  1.00  0.00     0.043 C 
HETATM   14  C13 UNL     1      23.920   3.190  49.085  1.00  0.00     0.075 C 
HETATM   15  C14 UNL     1      22.804   2.700  48.246  1.00  0.00     0.029 C 
HETATM   16  C15 UNL     1      21.399   2.942  48.683  1.00  0.00     0.043 C 
HETATM   17  N5  UNL     1      20.513   2.395  52.323  1.00  0.00    -0.337 N 
HETATM   18  H5  UNL     1      22.273  -1.532  53.700  1.00  0.00     0.188 HD
HETATM   19  H10 UNL     1      25.290   3.586  53.102  1.00  0.00     0.153 HD
HETATM   20  H22 UNL     1      20.145   2.976  53.091  1.00  0.00     0.167 HD
ENDROOT
BRANCH   1  21
HETATM   21  C2  UNL     1      20.229   4.338  50.719  1.00  0.00     0.105 A 
HETATM   22  C1  UNL     1      21.066   5.255  51.166  1.00  0.00     0.252 A 
HETATM   23  F1  UNL     1      19.881   5.608  50.420  1.00  0.00    -0.364 F 
ENDBRANCH   1  21
BRANCH  14  24
HETATM   24  N4  UNL     1      24.002   4.634  49.137  1.00  0.00    -0.426 N 
HETATM   25  H16 UNL     1      24.537   5.044  49.884  1.00  0.00     0.150 HD
HETATM   26  H17 UNL     1      23.417   5.162  48.521  1.00  0.00     0.150 HD
ENDBRANCH  14  24
TORSDOF 2
ENDMDL
MODEL 9
REMARK VINA RESULT:      -6.4      2.810      5.081
REMARK  2 active torsions:
REMARK  status: ('A' for Active; 'I' for Inactive)
REMARK    1  A    between atoms: C2_2  and  C3_4 
REMARK    2  A    between atoms: C13_17  and  N4_18 
ROOT
HETATM    1  C3  UNL     1      29.932   8.449  48.968  1.00  0.00     0.073 A 
HETATM    2  C4  UNL     1      29.111   7.818  48.162  1.00  0.00    -0.029 A 
HETATM    3  C5  UNL     1      29.125   6.439  47.730  1.00  0.00     0.013 A 
HETATM    4  C6  UNL     1      30.137   5.768  48.227  1.00  0.00     0.053 A 
HETATM    5  C7  UNL     1      31.025   6.503  49.093  1.00  0.00     0.148 A 
HETATM    6  N1  UNL     1      32.198   6.018  49.428  1.00  0.00    -0.157 NA
HETATM    7  N2  UNL     1      32.581   4.747  48.902  1.00  0.00    -0.288 N 
HETATM    8  C8  UNL     1      33.125   5.443  47.752  1.00  0.00     0.107 C 
HETATM    9  C9  UNL     1      33.200   6.024  46.539  1.00  0.00     0.011 C 
HETATM   10  C10 UNL     1      33.704   6.728  45.346  1.00  0.00     0.143 C 
HETATM   11  N3  UNL     1      33.089   7.933  45.070  1.00  0.00    -0.418 N 
HETATM   12  C11 UNL     1      31.839   8.242  44.605  1.00  0.00     0.116 C 
HETATM   13  C12 UNL     1      30.677   7.941  45.577  1.00  0.00     0.043 C 
HETATM   14  C13 UNL     1      29.387   8.566  45.156  1.00  0.00     0.075 C 
HETATM   15  C14 UNL     1      28.167   8.149  45.883  1.00  0.00     0.029 C 
HETATM   16  C15 UNL     1      28.049   8.441  47.341  1.00  0.00     0.043 C 
HETATM   17  N5  UNL     1      31.055   7.833  49.561  1.00  0.00    -0.337 N 
HETATM   18  H5  UNL     1      32.830   3.796  48.576  1.00  0.00     0.188 HD
HETATM   19  H10 UNL     1      33.637   8.792  45.406  1.00  0.00     0.153 HD
HETATM   20  H22 UNL     1      31.650   8.408  50.176  1.00  0.00     0.167 HD
ENDROOT
BRANCH   1  21
HETATM   21  C2  UNL     1      29.546   9.830  49.154  1.00  0.00     0.105 A 
HETATM   22  C1  UNL     1      30.493  10.701  48.859  1.00  0.00     0.252 A 
HETATM   23  F1  UNL     1      29.192  11.122  49.326  1.00  0.00    -0.364 F 
ENDBRANCH   1  21
BRANCH  14  24
HETATM   24  N4  UNL     1      29.527  10.004  45.056  1.00  0.00    -0.426 N 
HETATM   25  H16 UNL     1      28.792  10.571  45.445  1.00  0.00     0.150 HD
HETATM   26  H17 UNL     1      30.265  10.368  44.488  1.00  0.00     0.150 HD
ENDBRANCH  14  24
TORSDOF 2
ENDMDL
