MODEL 1
REMARK VINA RESULT:      -8.3      0.000      0.000
REMARK  4 active torsions:
REMARK  status: ('A' for Active; 'I' for Inactive)
REMARK    1  A    between atoms: C2_2  and  C3_3 
REMARK    2  A    between atoms: C2_2  and  C12_14 
REMARK    3  A    between atoms: C9_10  and  C10_11 
REMARK    4  A    between atoms: C10_11  and  C11_12 
ROOT
HETATM    1  C12 UNL     1      27.286  -0.445  52.887  1.00  0.00    -0.008 A 
HETATM    2  C13 UNL     1      27.311  -1.791  52.623  1.00  0.00     0.013 A 
HETATM    3  C14 UNL     1      28.291  -2.725  52.851  1.00  0.00     0.001 A 
HETATM    4  C15 UNL     1      29.421  -2.199  53.439  1.00  0.00     0.002 A 
HETATM    5  C16 UNL     1      29.520  -0.867  53.751  1.00  0.00     0.023 A 
HETATM    6  C17 UNL     1      28.480  -0.031  53.477  1.00  0.00     0.055 A 
HETATM    7  C18 UNL     1      28.674   1.350  53.845  1.00  0.00     0.100 C 
HETATM    8  N2  UNL     1      28.841   2.457  54.158  1.00  0.00    -0.191 NA
ENDROOT
BRANCH   1   9
HETATM    9  C2  UNL     1      26.180   0.444  52.663  1.00  0.00    -0.036 C 
HETATM   10  C1  UNL     1      25.192   0.128  53.469  1.00  0.00     0.045 C 
BRANCH   9  11
HETATM   11  C3  UNL     1      25.857   1.552  51.817  1.00  0.00    -0.027 A 
HETATM   12  C4  UNL     1      24.512   1.765  51.576  1.00  0.00     0.012 A 
HETATM   13  C5  UNL     1      24.067   2.798  50.736  1.00  0.00     0.012 A 
HETATM   14  C6  UNL     1      24.986   3.613  50.143  1.00  0.00    -0.009 A 
HETATM   15  C7  UNL     1      26.344   3.474  50.326  1.00  0.00     0.037 A 
HETATM   16  C9  UNL     1      25.288   4.765  49.251  1.00  0.00     0.118 A 
HETATM   17  C8  UNL     1      26.676   2.436  51.162  1.00  0.00     0.041 A 
HETATM   18  N1  UNL     1      26.703   4.563  49.485  1.00  0.00    -0.381 N 
HETATM   19  H6  UNL     1      27.588   5.019  49.174  1.00  0.00     0.160 HD
BRANCH  16  20
HETATM   20  C10 UNL     1      24.831   6.051  49.878  1.00  0.00     0.041 C 
BRANCH  20  21
HETATM   21  C11 UNL     1      24.151   6.845  48.763  1.00  0.00     0.087 C 
HETATM   22 BR1  UNL     1      22.875   5.764  47.790  1.00  0.00    -0.096 Br
ENDBRANCH  20  21
ENDBRANCH  16  20
ENDBRANCH   9  11
ENDBRANCH   1   9
TORSDOF 4
ENDMDL
MODEL 2
REMARK VINA RESULT:      -7.9      3.758      5.512
REMARK  4 active torsions:
REMARK  status: ('A' for Active; 'I' for Inactive)
REMARK    1  A    between atoms: C2_2  and  C3_3 
REMARK    2  A    between atoms: C2_2  and  C12_14 
REMARK    3  A    between atoms: C9_10  and  C10_11 
REMARK    4  A    between atoms: C10_11  and  C11_12 
ROOT
HETATM    1  C12 UNL     1      27.306   0.506  53.090  1.00  0.00    -0.008 A 
HETATM    2  C13 UNL     1      28.166   1.406  53.667  1.00  0.00     0.013 A 
HETATM    3  C14 UNL     1      29.450   1.242  54.125  1.00  0.00     0.001 A 
HETATM    4  C15 UNL     1      29.926  -0.042  53.969  1.00  0.00     0.002 A 
HETATM    5  C16 UNL     1      29.162  -1.032  53.408  1.00  0.00     0.023 A 
HETATM    6  C17 UNL     1      27.897  -0.753  52.988  1.00  0.00     0.055 A 
HETATM    7  C18 UNL     1      27.172  -1.856  52.407  1.00  0.00     0.100 C 
HETATM    8  N2  UNL     1      26.607  -2.753  51.930  1.00  0.00    -0.191 NA
ENDROOT
BRANCH   1   9
HETATM    9  C2  UNL     1      25.991   0.791  52.586  1.00  0.00    -0.036 C 
HETATM   10  C1  UNL     1      26.086   1.527  51.501  1.00  0.00     0.045 C 
BRANCH   9  11
HETATM   11  C3  UNL     1      24.631   0.509  52.932  1.00  0.00    -0.027 A 
HETATM   12  C4  UNL     1      23.669   1.286  52.313  1.00  0.00     0.012 A 
HETATM   13  C5  UNL     1      22.303   1.131  52.594  1.00  0.00     0.012 A 
HETATM   14  C6  UNL     1      21.915   0.188  53.501  1.00  0.00    -0.009 A 
HETATM   15  C7  UNL     1      22.803  -0.628  54.164  1.00  0.00     0.037 A 
HETATM   16  C9  UNL     1      20.825  -0.500  54.244  1.00  0.00     0.118 A 
HETATM   17  C8  UNL     1      24.113  -0.398  53.821  1.00  0.00     0.041 A 
HETATM   18  N1  UNL     1      21.812  -1.326  54.907  1.00  0.00    -0.381 N 
HETATM   19  H6  UNL     1      21.796  -2.093  55.614  1.00  0.00     0.160 HD
BRANCH  16  20
HETATM   20  C10 UNL     1      19.991  -1.329  53.308  1.00  0.00     0.041 C 
BRANCH  20  21
HETATM   21  C11 UNL     1      18.617  -0.660  53.264  1.00  0.00     0.087 C 
HETATM   22 BR1  UNL     1      18.130  -0.144  51.463  1.00  0.00    -0.096 Br
ENDBRANCH  20  21
ENDBRANCH  16  20
ENDBRANCH   9  11
ENDBRANCH   1   9
TORSDOF 4
ENDMDL
MODEL 3
REMARK VINA RESULT:      -7.7      3.925      5.259
REMARK  4 active torsions:
REMARK  status: ('A' for Active; 'I' for Inactive)
REMARK    1  A    between atoms: C2_2  and  C3_3 
REMARK    2  A    between atoms: C2_2  and  C12_14 
REMARK    3  A    between atoms: C9_10  and  C10_11 
REMARK    4  A    between atoms: C10_11  and  C11_12 
ROOT
HETATM    1  C12 UNL     1      21.944   0.570  52.243  1.00  0.00    -0.008 A 
HETATM    2  C13 UNL     1      22.455  -0.603  52.739  1.00  0.00     0.013 A 
HETATM    3  C14 UNL     1      22.157  -1.287  53.891  1.00  0.00     0.001 A 
HETATM    4  C15 UNL     1      21.186  -0.675  54.654  1.00  0.00     0.002 A 
HETATM    5  C16 UNL     1      20.599   0.501  54.267  1.00  0.00     0.023 A 
HETATM    6  C17 UNL     1      20.976   1.092  53.099  1.00  0.00     0.055 A 
HETATM    7  C18 UNL     1      20.299   2.324  52.774  1.00  0.00     0.100 C 
HETATM    8  N2  UNL     1      19.736   3.309  52.521  1.00  0.00    -0.191 NA
ENDROOT
BRANCH   1   9
HETATM    9  C2  UNL     1      22.281   1.179  50.987  1.00  0.00    -0.036 C 
HETATM   10  C1  UNL     1      21.497   0.707  50.043  1.00  0.00     0.045 C 
BRANCH   9  11
HETATM   11  C3  UNL     1      23.222   2.133  50.483  1.00  0.00    -0.027 A 
HETATM   12  C4  UNL     1      22.836   2.836  49.356  1.00  0.00     0.012 A 
HETATM   13  C5  UNL     1      23.682   3.776  48.746  1.00  0.00     0.012 A 
HETATM   14  C6  UNL     1      24.917   4.000  49.280  1.00  0.00    -0.009 A 
HETATM   15  C7  UNL     1      25.384   3.346  50.399  1.00  0.00     0.037 A 
HETATM   16  C9  UNL     1      26.217   4.723  49.238  1.00  0.00     0.118 A 
HETATM   17  C8  UNL     1      24.484   2.449  50.919  1.00  0.00     0.041 A 
HETATM   18  N1  UNL     1      26.647   4.000  50.416  1.00  0.00    -0.381 N 
HETATM   19  H6  UNL     1      27.503   3.976  51.011  1.00  0.00     0.160 HD
BRANCH  16  20
HETATM   20  C10 UNL     1      26.022   6.178  49.558  1.00  0.00     0.041 C 
BRANCH  20  21
HETATM   21  C11 UNL     1      26.585   6.951  48.365  1.00  0.00     0.087 C 
HETATM   22 BR1  UNL     1      28.453   6.547  48.067  1.00  0.00    -0.096 Br
ENDBRANCH  20  21
ENDBRANCH  16  20
ENDBRANCH   9  11
ENDBRANCH   1   9
TORSDOF 4
ENDMDL
MODEL 4
REMARK VINA RESULT:      -7.6      3.160      4.063
REMARK  4 active torsions:
REMARK  status: ('A' for Active; 'I' for Inactive)
REMARK    1  A    between atoms: C2_2  and  C3_3 
REMARK    2  A    between atoms: C2_2  and  C12_14 
REMARK    3  A    between atoms: C9_10  and  C10_11 
REMARK    4  A    between atoms: C10_11  and  C11_12 
ROOT
HETATM    1  C12 UNL     1      26.898  -0.095  53.945  1.00  0.00    -0.008 A 
HETATM    2  C13 UNL     1      27.677   0.802  54.632  1.00  0.00     0.013 A 
HETATM    3  C14 UNL     1      29.042   0.942  54.679  1.00  0.00     0.001 A 
HETATM    4  C15 UNL     1      29.713   0.021  53.903  1.00  0.00     0.002 A 
HETATM    5  C16 UNL     1      29.047  -0.927  53.170  1.00  0.00     0.023 A 
HETATM    6  C17 UNL     1      27.686  -0.971  53.201  1.00  0.00     0.055 A 
HETATM    7  C18 UNL     1      27.076  -2.000  52.395  1.00  0.00     0.100 C 
HETATM    8  N2  UNL     1      26.599  -2.826  51.730  1.00  0.00    -0.191 NA
ENDROOT
BRANCH   1   9
HETATM    9  C2  UNL     1      25.462  -0.123  53.913  1.00  0.00    -0.036 C 
HETATM   10  C1  UNL     1      25.010  -0.727  54.989  1.00  0.00     0.045 C 
BRANCH   9  11
HETATM   11  C3  UNL     1      24.406   0.308  53.049  1.00  0.00    -0.027 A 
HETATM   12  C4  UNL     1      24.724   1.303  52.143  1.00  0.00     0.012 A 
HETATM   13  C5  UNL     1      23.768   1.835  51.264  1.00  0.00     0.012 A 
HETATM   14  C6  UNL     1      22.491   1.357  51.306  1.00  0.00    -0.009 A 
HETATM   15  C7  UNL     1      22.085   0.369  52.175  1.00  0.00     0.037 A 
HETATM   16  C9  UNL     1      21.096   1.385  50.787  1.00  0.00     0.118 A 
HETATM   17  C8  UNL     1      23.092  -0.083  52.992  1.00  0.00     0.041 A 
HETATM   18  N1  UNL     1      20.735   0.345  51.727  1.00  0.00    -0.381 N 
HETATM   19  H6  UNL     1      19.869  -0.184  51.965  1.00  0.00     0.160 HD
BRANCH  16  20
HETATM   20  C10 UNL     1      21.046   0.861  49.380  1.00  0.00     0.041 C 
BRANCH  20  21
HETATM   21  C11 UNL     1      20.656   2.049  48.501  1.00  0.00     0.087 C 
HETATM   22 BR1  UNL     1      22.182   2.775  47.560  1.00  0.00    -0.096 Br
ENDBRANCH  20  21
ENDBRANCH  16  20
ENDBRANCH   9  11
ENDBRANCH   1   9
TORSDOF 4
ENDMDL
MODEL 5
REMARK VINA RESULT:      -7.6      2.996      4.160
REMARK  4 active torsions:
REMARK  status: ('A' for Active; 'I' for Inactive)
REMARK    1  A    between atoms: C2_2  and  C3_3 
REMARK    2  A    between atoms: C2_2  and  C12_14 
REMARK    3  A    between atoms: C9_10  and  C10_11 
REMARK    4  A    between atoms: C10_11  and  C11_12 
ROOT
HETATM    1  C12 UNL     1      22.788   0.511  52.979  1.00  0.00    -0.008 A 
HETATM    2  C13 UNL     1      21.752   0.084  53.771  1.00  0.00     0.013 A 
HETATM    3  C14 UNL     1      21.752  -0.738  54.871  1.00  0.00     0.001 A 
HETATM    4  C15 UNL     1      23.007  -1.194  55.212  1.00  0.00     0.002 A 
HETATM    5  C16 UNL     1      24.122  -0.840  54.498  1.00  0.00     0.023 A 
HETATM    6  C17 UNL     1      24.001  -0.015  53.420  1.00  0.00     0.055 A 
HETATM    7  C18 UNL     1      25.230   0.305  52.736  1.00  0.00     0.100 C 
HETATM    8  N2  UNL     1      26.230   0.563  52.203  1.00  0.00    -0.191 NA
ENDROOT
BRANCH   1   9
HETATM    9  C2  UNL     1      22.692   1.427  51.877  1.00  0.00    -0.036 C 
HETATM   10  C1  UNL     1      21.972   0.889  50.918  1.00  0.00     0.045 C 
BRANCH   9  11
HETATM   11  C3  UNL     1      23.162   2.735  51.533  1.00  0.00    -0.027 A 
HETATM   12  C4  UNL     1      23.573   2.913  50.225  1.00  0.00     0.012 A 
HETATM   13  C5  UNL     1      24.085   4.139  49.772  1.00  0.00     0.012 A 
HETATM   14  C6  UNL     1      24.180   5.181  50.647  1.00  0.00    -0.009 A 
HETATM   15  C7  UNL     1      23.795   5.094  51.967  1.00  0.00     0.037 A 
HETATM   16  C9  UNL     1      24.555   6.596  50.916  1.00  0.00     0.118 A 
HETATM   17  C8  UNL     1      23.309   3.856  52.310  1.00  0.00     0.041 A 
HETATM   18  N1  UNL     1      24.133   6.436  52.292  1.00  0.00    -0.381 N 
HETATM   19  H6  UNL     1      24.095   7.042  53.140  1.00  0.00     0.160 HD
BRANCH  16  20
HETATM   20  C10 UNL     1      23.633   7.534  50.190  1.00  0.00     0.041 C 
BRANCH  20  21
HETATM   21  C11 UNL     1      24.531   8.580  49.529  1.00  0.00     0.087 C 
HETATM   22 BR1  UNL     1      26.396   8.298  49.960  1.00  0.00    -0.096 Br
ENDBRANCH  20  21
ENDBRANCH  16  20
ENDBRANCH   9  11
ENDBRANCH   1   9
TORSDOF 4
ENDMDL
MODEL 6
REMARK VINA RESULT:      -7.5      4.684      7.534
REMARK  4 active torsions:
REMARK  status: ('A' for Active; 'I' for Inactive)
REMARK    1  A    between atoms: C2_2  and  C3_3 
REMARK    2  A    between atoms: C2_2  and  C12_14 
REMARK    3  A    between atoms: C9_10  and  C10_11 
REMARK    4  A    between atoms: C10_11  and  C11_12 
ROOT
HETATM    1  C12 UNL     1      20.455   1.020  51.964  1.00  0.00    -0.008 A 
HETATM    2  C13 UNL     1      19.672   1.224  50.855  1.00  0.00     0.013 A 
HETATM    3  C14 UNL     1      18.485   0.641  50.484  1.00  0.00     0.001 A 
HETATM    4  C15 UNL     1      18.030  -0.295  51.387  1.00  0.00     0.002 A 
HETATM    5  C16 UNL     1      18.723  -0.588  52.534  1.00  0.00     0.023 A 
HETATM    6  C17 UNL     1      19.894   0.055  52.798  1.00  0.00     0.055 A 
HETATM    7  C18 UNL     1      20.547  -0.317  54.029  1.00  0.00     0.100 C 
HETATM    8  N2  UNL     1      21.056  -0.620  55.030  1.00  0.00    -0.191 NA
ENDROOT
BRANCH   1   9
HETATM    9  C2  UNL     1      21.660   1.729  52.294  1.00  0.00    -0.036 C 
HETATM   10  C1  UNL     1      21.420   3.021  52.313  1.00  0.00     0.045 C 
BRANCH   9  11
HETATM   11  C3  UNL     1      23.026   1.427  52.595  1.00  0.00    -0.027 A 
HETATM   12  C4  UNL     1      23.870   2.510  52.757  1.00  0.00     0.012 A 
HETATM   13  C5  UNL     1      25.239   2.346  53.021  1.00  0.00     0.012 A 
HETATM   14  C6  UNL     1      25.749   1.084  53.120  1.00  0.00    -0.009 A 
HETATM   15  C7  UNL     1      24.982  -0.051  52.972  1.00  0.00     0.037 A 
HETATM   16  C9  UNL     1      26.916   0.190  53.346  1.00  0.00     0.118 A 
HETATM   17  C8  UNL     1      23.660   0.216  52.716  1.00  0.00     0.041 A 
HETATM   18  N1  UNL     1      26.055  -0.961  53.179  1.00  0.00    -0.381 N 
HETATM   19  H6  UNL     1      26.174  -1.997  53.203  1.00  0.00     0.160 HD
BRANCH  16  20
HETATM   20  C10 UNL     1      27.389   0.289  54.769  1.00  0.00     0.041 C 
BRANCH  20  21
HETATM   21  C11 UNL     1      28.901   0.504  54.697  1.00  0.00     0.087 C 
HETATM   22 BR1  UNL     1      29.764  -0.841  53.606  1.00  0.00    -0.096 Br
ENDBRANCH  20  21
ENDBRANCH  16  20
ENDBRANCH   9  11
ENDBRANCH   1   9
TORSDOF 4
ENDMDL
MODEL 7
REMARK VINA RESULT:      -7.3      4.208      7.531
REMARK  4 active torsions:
REMARK  status: ('A' for Active; 'I' for Inactive)
REMARK    1  A    between atoms: C2_2  and  C3_3 
REMARK    2  A    between atoms: C2_2  and  C12_14 
REMARK    3  A    between atoms: C9_10  and  C10_11 
REMARK    4  A    between atoms: C10_11  and  C11_12 
ROOT
HETATM    1  C12 UNL     1      20.553   1.214  51.849  1.00  0.00    -0.008 A 
HETATM    2  C13 UNL     1      19.712   0.394  51.138  1.00  0.00     0.013 A 
HETATM    3  C14 UNL     1      18.822   0.687  50.135  1.00  0.00     0.001 A 
HETATM    4  C15 UNL     1      18.785   2.025  49.809  1.00  0.00     0.002 A 
HETATM    5  C16 UNL     1      19.576   2.945  50.448  1.00  0.00     0.023 A 
HETATM    6  C17 UNL     1      20.425   2.538  51.432  1.00  0.00     0.055 A 
HETATM    7  C18 UNL     1      21.219   3.577  52.042  1.00  0.00     0.100 C 
HETATM    8  N2  UNL     1      21.861   4.424  52.515  1.00  0.00    -0.191 NA
ENDROOT
BRANCH   1   9
HETATM    9  C2  UNL     1      21.499   0.800  52.847  1.00  0.00    -0.036 C 
HETATM   10  C1  UNL     1      20.869   0.547  53.972  1.00  0.00     0.045 C 
BRANCH   9  11
HETATM   11  C3  UNL     1      22.912   0.599  52.959  1.00  0.00    -0.027 A 
HETATM   12  C4  UNL     1      23.700   1.284  52.053  1.00  0.00     0.012 A 
HETATM   13  C5  UNL     1      25.097   1.145  52.038  1.00  0.00     0.012 A 
HETATM   14  C6  UNL     1      25.691   0.313  52.942  1.00  0.00    -0.009 A 
HETATM   15  C7  UNL     1      24.984  -0.407  53.879  1.00  0.00     0.037 A 
HETATM   16  C9  UNL     1      26.929  -0.295  53.501  1.00  0.00     0.118 A 
HETATM   17  C8  UNL     1      23.627  -0.203  53.811  1.00  0.00     0.041 A 
HETATM   18  N1  UNL     1      26.126  -1.025  54.460  1.00  0.00    -0.381 N 
HETATM   19  H6  UNL     1      26.310  -1.700  55.232  1.00  0.00     0.160 HD
BRANCH  16  20
HETATM   20  C10 UNL     1      27.760   0.745  54.196  1.00  0.00     0.041 C 
BRANCH  20  21
HETATM   21  C11 UNL     1      29.181   0.576  53.661  1.00  0.00     0.087 C 
HETATM   22 BR1  UNL     1      29.656  -1.289  53.466  1.00  0.00    -0.096 Br
ENDBRANCH  20  21
ENDBRANCH  16  20
ENDBRANCH   9  11
ENDBRANCH   1   9
TORSDOF 4
ENDMDL
MODEL 8
REMARK VINA RESULT:      -7.1      3.901      6.654
REMARK  4 active torsions:
REMARK  status: ('A' for Active; 'I' for Inactive)
REMARK    1  A    between atoms: C2_2  and  C3_3 
REMARK    2  A    between atoms: C2_2  and  C12_14 
REMARK    3  A    between atoms: C9_10  and  C10_11 
REMARK    4  A    between atoms: C10_11  and  C11_12 
ROOT
HETATM    1  C12 UNL     1      25.969   4.007  50.098  1.00  0.00    -0.008 A 
HETATM    2  C13 UNL     1      27.047   4.061  49.250  1.00  0.00     0.013 A 
HETATM    3  C14 UNL     1      27.536   5.100  48.496  1.00  0.00     0.001 A 
HETATM    4  C15 UNL     1      26.808   6.262  48.631  1.00  0.00     0.002 A 
HETATM    5  C16 UNL     1      25.708   6.336  49.447  1.00  0.00     0.023 A 
HETATM    6  C17 UNL     1      25.315   5.237  50.149  1.00  0.00     0.055 A 
HETATM    7  C18 UNL     1      24.151   5.412  50.984  1.00  0.00     0.100 C 
HETATM    8  N2  UNL     1      23.219   5.573  51.661  1.00  0.00    -0.191 NA
ENDROOT
BRANCH   1   9
HETATM    9  C2  UNL     1      25.571   2.880  50.894  1.00  0.00    -0.036 C 
HETATM   10  C1  UNL     1      26.614   2.402  51.534  1.00  0.00     0.045 C 
BRANCH   9  11
HETATM   11  C3  UNL     1      24.378   2.140  51.174  1.00  0.00    -0.027 A 
HETATM   12  C4  UNL     1      24.384   1.387  52.333  1.00  0.00     0.012 A 
HETATM   13  C5  UNL     1      23.287   0.591  52.702  1.00  0.00     0.012 A 
HETATM   14  C6  UNL     1      22.189   0.561  51.894  1.00  0.00    -0.009 A 
HETATM   15  C7  UNL     1      22.096   1.278  50.722  1.00  0.00     0.037 A 
HETATM   16  C9  UNL     1      20.819   0.050  51.615  1.00  0.00     0.118 A 
HETATM   17  C8  UNL     1      23.218   2.022  50.450  1.00  0.00     0.041 A 
HETATM   18  N1  UNL     1      20.788   0.828  50.394  1.00  0.00    -0.381 N 
HETATM   19  H6  UNL     1      20.104   0.985  49.622  1.00  0.00     0.160 HD
BRANCH  16  20
HETATM   20  C10 UNL     1      19.838   0.598  52.612  1.00  0.00     0.041 C 
BRANCH  20  21
HETATM   21  C11 UNL     1      19.150  -0.614  53.238  1.00  0.00     0.087 C 
HETATM   22 BR1  UNL     1      17.413  -0.939  52.449  1.00  0.00    -0.096 Br
ENDBRANCH  20  21
ENDBRANCH  16  20
ENDBRANCH   9  11
ENDBRANCH   1   9
TORSDOF 4
ENDMDL
MODEL 9
REMARK VINA RESULT:      -7.0      2.959      4.541
REMARK  4 active torsions:
REMARK  status: ('A' for Active; 'I' for Inactive)
REMARK    1  A    between atoms: C2_2  and  C3_3 
REMARK    2  A    between atoms: C2_2  and  C12_14 
REMARK    3  A    between atoms: C9_10  and  C10_11 
REMARK    4  A    between atoms: C10_11  and  C11_12 
ROOT
HETATM    1  C12 UNL     1      23.467   0.083  53.371  1.00  0.00    -0.008 A 
HETATM    2  C13 UNL     1      23.795  -0.543  54.547  1.00  0.00     0.013 A 
HETATM    3  C14 UNL     1      23.084  -1.439  55.307  1.00  0.00     0.001 A 
HETATM    4  C15 UNL     1      21.845  -1.738  54.782  1.00  0.00     0.002 A 
HETATM    5  C16 UNL     1      21.402  -1.177  53.613  1.00  0.00     0.023 A 
HETATM    6  C17 UNL     1      22.197  -0.297  52.942  1.00  0.00     0.055 A 
HETATM    7  C18 UNL     1      21.646   0.238  51.720  1.00  0.00     0.100 C 
HETATM    8  N2  UNL     1      21.193   0.650  50.732  1.00  0.00    -0.191 NA
ENDROOT
BRANCH   1   9
HETATM    9  C2  UNL     1      24.311   0.966  52.615  1.00  0.00    -0.036 C 
HETATM   10  C1  UNL     1      25.449   0.366  52.348  1.00  0.00     0.045 C 
BRANCH   9  11
HETATM   11  C3  UNL     1      24.264   2.297  52.089  1.00  0.00    -0.027 A 
HETATM   12  C4  UNL     1      24.539   2.431  50.740  1.00  0.00     0.012 A 
HETATM   13  C5  UNL     1      24.557   3.686  50.112  1.00  0.00     0.012 A 
HETATM   14  C6  UNL     1      24.296   4.802  50.852  1.00  0.00    -0.009 A 
HETATM   15  C7  UNL     1      24.012   4.762  52.200  1.00  0.00     0.037 A 
HETATM   16  C9  UNL     1      24.142   6.280  50.928  1.00  0.00     0.118 A 
HETATM   17  C8  UNL     1      24.020   3.490  52.719  1.00  0.00     0.041 A 
HETATM   18  N1  UNL     1      23.852   6.168  52.342  1.00  0.00    -0.381 N 
HETATM   19  H6  UNL     1      23.625   6.829  53.117  1.00  0.00     0.160 HD
BRANCH  16  20
HETATM   20  C10 UNL     1      22.919   6.722  50.176  1.00  0.00     0.041 C 
BRANCH  20  21
HETATM   21  C11 UNL     1      23.366   7.887  49.292  1.00  0.00     0.087 C 
HETATM   22 BR1  UNL     1      24.672   7.329  47.978  1.00  0.00    -0.096 Br
ENDBRANCH  20  21
ENDBRANCH  16  20
ENDBRANCH   9  11
ENDBRANCH   1   9
TORSDOF 4
ENDMDL
