MODEL 1
REMARK VINA RESULT:      -8.2      0.000      0.000
REMARK  1 active torsions:
REMARK  status: ('A' for Active; 'I' for Inactive)
REMARK    1  A    between atoms: O1_1  and  C1_2 
ROOT
HETATM    1  C1  UNL     1      25.077   2.082  53.695  1.00  0.00     0.259 C 
HETATM    2  C2  UNL     1      26.481   1.588  53.937  1.00  0.00     0.017 A 
HETATM    3  C3  UNL     1      27.441   2.422  53.406  1.00  0.00     0.014 A 
HETATM    4  C4  UNL     1      28.747   2.046  53.583  1.00  0.00     0.001 A 
HETATM    5  C5  UNL     1      29.125   0.900  54.252  1.00  0.00     0.002 A 
HETATM    6  C6  UNL     1      28.161   0.067  54.782  1.00  0.00     0.030 A 
HETATM    7  C7  UNL     1      26.832   0.413  54.624  1.00  0.00     0.043 A 
HETATM    8  N1  UNL     1      26.115  -0.658  55.288  1.00  0.00    -0.350 N 
HETATM    9  C8  UNL     1      24.700  -0.959  55.207  1.00  0.00     0.204 C 
HETATM   10  N2  UNL     1      23.793  -0.769  54.304  1.00  0.00    -0.248 NA
HETATM   11  C9  UNL     1      23.804  -0.188  53.015  1.00  0.00     0.282 C 
HETATM   12  S1  UNL     1      22.084   0.178  52.462  1.00  0.00    -0.062 SA
HETATM   13  C10 UNL     1      22.721   1.302  51.182  1.00  0.00     0.092 C 
HETATM   14  C11 UNL     1      23.915   1.672  51.667  1.00  0.00     0.046 C 
HETATM   15  C12 UNL     1      24.457   2.594  50.631  1.00  0.00     0.061 C 
HETATM   16  C13 UNL     1      23.492   3.713  50.343  1.00  0.00     0.026 C 
HETATM   17  C14 UNL     1      22.299   3.170  49.597  1.00  0.00     0.120 C 
HETATM   18  N3  UNL     1      22.202   1.766  49.940  1.00  0.00    -0.383 N 
HETATM   19  N4  UNL     1      24.301   1.157  52.893  1.00  0.00    -0.319 N 
HETATM   20  H7  UNL     1      26.696  -1.278  55.890  1.00  0.00     0.166 HD
HETATM   21  H16 UNL     1      21.767   1.023  49.346  1.00  0.00     0.160 HD
ENDROOT
BRANCH   1  22
HETATM   22  O1  UNL     1      25.115   3.364  53.244  1.00  0.00    -0.372 OA
HETATM   23  H1  UNL     1      25.679   3.934  53.807  1.00  0.00     0.212 HD
ENDBRANCH   1  22
TORSDOF 1
ENDMDL
MODEL 2
REMARK VINA RESULT:      -8.1      2.069      3.830
REMARK  1 active torsions:
REMARK  status: ('A' for Active; 'I' for Inactive)
REMARK    1  A    between atoms: O1_1  and  C1_2 
ROOT
HETATM    1  C1  UNL     1      25.548   0.066  52.525  1.00  0.00     0.259 C 
HETATM    2  C2  UNL     1      26.785   0.671  53.141  1.00  0.00     0.017 A 
HETATM    3  C3  UNL     1      27.289  -0.081  54.180  1.00  0.00     0.014 A 
HETATM    4  C4  UNL     1      28.416   0.399  54.794  1.00  0.00     0.001 A 
HETATM    5  C5  UNL     1      29.045   1.568  54.423  1.00  0.00     0.002 A 
HETATM    6  C6  UNL     1      28.538   2.319  53.382  1.00  0.00     0.030 A 
HETATM    7  C7  UNL     1      27.402   1.868  52.737  1.00  0.00     0.043 A 
HETATM    8  N1  UNL     1      27.157   2.875  51.723  1.00  0.00    -0.350 N 
HETATM    9  C8  UNL     1      25.957   3.060  50.932  1.00  0.00     0.204 C 
HETATM   10  N2  UNL     1      24.706   2.801  51.128  1.00  0.00    -0.248 NA
HETATM   11  C9  UNL     1      23.981   2.229  52.198  1.00  0.00     0.282 C 
HETATM   12  S1  UNL     1      22.298   1.727  51.640  1.00  0.00    -0.062 SA
HETATM   13  C10 UNL     1      22.115   0.663  53.103  1.00  0.00     0.092 C 
HETATM   14  C11 UNL     1      23.383   0.389  53.442  1.00  0.00     0.046 C 
HETATM   15  C12 UNL     1      23.257  -0.482  54.642  1.00  0.00     0.061 C 
HETATM   16  C13 UNL     1      22.382  -1.674  54.358  1.00  0.00     0.026 C 
HETATM   17  C14 UNL     1      20.949  -1.226  54.220  1.00  0.00     0.120 C 
HETATM   18  N3  UNL     1      20.988   0.164  53.815  1.00  0.00    -0.383 N 
HETATM   19  N4  UNL     1      24.391   0.929  52.661  1.00  0.00    -0.319 N 
HETATM   20  H7  UNL     1      27.943   3.538  51.553  1.00  0.00     0.166 HD
HETATM   21  H16 UNL     1      20.239   0.871  53.996  1.00  0.00     0.160 HD
ENDROOT
BRANCH   1  22
HETATM   22  O1  UNL     1      25.390  -1.207  52.975  1.00  0.00    -0.372 OA
HETATM   23  H1  UNL     1      26.224  -1.718  52.932  1.00  0.00     0.212 HD
ENDBRANCH   1  22
TORSDOF 1
ENDMDL
MODEL 3
REMARK VINA RESULT:      -7.9      2.271      2.659
REMARK  1 active torsions:
REMARK  status: ('A' for Active; 'I' for Inactive)
REMARK    1  A    between atoms: O1_1  and  C1_2 
ROOT
HETATM    1  C1  UNL     1      23.264   1.134  53.188  1.00  0.00     0.259 C 
HETATM    2  C2  UNL     1      24.643   0.538  53.050  1.00  0.00     0.017 A 
HETATM    3  C3  UNL     1      25.349   1.062  51.989  1.00  0.00     0.014 A 
HETATM    4  C4  UNL     1      26.615   0.575  51.794  1.00  0.00     0.001 A 
HETATM    5  C5  UNL     1      27.191  -0.390  52.595  1.00  0.00     0.002 A 
HETATM    6  C6  UNL     1      26.481  -0.913  53.656  1.00  0.00     0.030 A 
HETATM    7  C7  UNL     1      25.200  -0.446  53.885  1.00  0.00     0.043 A 
HETATM    8  N1  UNL     1      24.763  -1.193  55.048  1.00  0.00    -0.350 N 
HETATM    9  C8  UNL     1      23.416  -1.310  55.570  1.00  0.00     0.204 C 
HETATM   10  N2  UNL     1      22.240  -1.249  55.036  1.00  0.00    -0.248 NA
HETATM   11  C9  UNL     1      21.774  -1.042  53.718  1.00  0.00     0.282 C 
HETATM   12  S1  UNL     1      19.982  -0.609  53.730  1.00  0.00    -0.062 SA
HETATM   13  C10 UNL     1      20.113   0.034  52.034  1.00  0.00     0.092 C 
HETATM   14  C11 UNL     1      21.410   0.356  51.928  1.00  0.00     0.046 C 
HETATM   15  C12 UNL     1      21.540   0.885  50.543  1.00  0.00     0.061 C 
HETATM   16  C13 UNL     1      20.566   2.005  50.296  1.00  0.00     0.026 C 
HETATM   17  C14 UNL     1      19.166   1.448  50.222  1.00  0.00     0.120 C 
HETATM   18  N3  UNL     1      19.172   0.214  50.980  1.00  0.00    -0.383 N 
HETATM   19  N4  UNL     1      22.220   0.141  53.030  1.00  0.00    -0.319 N 
HETATM   20  H7  UNL     1      25.515  -1.701  55.561  1.00  0.00     0.166 HD
HETATM   21  H16 UNL     1      18.527  -0.595  50.831  1.00  0.00     0.160 HD
ENDROOT
BRANCH   1  22
HETATM   22  O1  UNL     1      23.160   2.232  52.392  1.00  0.00    -0.372 OA
HETATM   23  H1  UNL     1      23.961   2.367  51.847  1.00  0.00     0.212 HD
ENDBRANCH   1  22
TORSDOF 1
ENDMDL
MODEL 4
REMARK VINA RESULT:      -7.6      2.119      4.322
REMARK  1 active torsions:
REMARK  status: ('A' for Active; 'I' for Inactive)
REMARK    1  A    between atoms: O1_1  and  C1_2 
ROOT
HETATM    1  C1  UNL     1      24.022   2.302  52.902  1.00  0.00     0.259 C 
HETATM    2  C2  UNL     1      24.708   2.766  51.641  1.00  0.00     0.017 A 
HETATM    3  C3  UNL     1      23.822   3.179  50.670  1.00  0.00     0.014 A 
HETATM    4  C4  UNL     1      24.365   3.618  49.491  1.00  0.00     0.001 A 
HETATM    5  C5  UNL     1      25.722   3.663  49.248  1.00  0.00     0.002 A 
HETATM    6  C6  UNL     1      26.607   3.249  50.223  1.00  0.00     0.030 A 
HETATM    7  C7  UNL     1      26.097   2.799  51.426  1.00  0.00     0.043 A 
HETATM    8  N1  UNL     1      27.278   2.455  52.195  1.00  0.00    -0.350 N 
HETATM    9  C8  UNL     1      27.342   1.687  53.422  1.00  0.00     0.204 C 
HETATM   10  N2  UNL     1      26.607   0.755  53.936  1.00  0.00    -0.248 NA
HETATM   11  C9  UNL     1      25.431   0.094  53.515  1.00  0.00     0.282 C 
HETATM   12  S1  UNL     1      24.653  -0.796  54.929  1.00  0.00    -0.062 SA
HETATM   13  C10 UNL     1      23.090  -0.920  54.007  1.00  0.00     0.092 C 
HETATM   14  C11 UNL     1      23.161   0.104  53.146  1.00  0.00     0.046 C 
HETATM   15  C12 UNL     1      21.889   0.020  52.377  1.00  0.00     0.061 C 
HETATM   16  C13 UNL     1      20.698   0.021  53.298  1.00  0.00     0.026 C 
HETATM   17  C14 UNL     1      20.632  -1.291  54.039  1.00  0.00     0.120 C 
HETATM   18  N3  UNL     1      21.983  -1.813  54.075  1.00  0.00    -0.383 N 
HETATM   19  N4  UNL     1      24.289   0.906  53.188  1.00  0.00    -0.319 N 
HETATM   20  H7  UNL     1      28.179   2.807  51.809  1.00  0.00     0.166 HD
HETATM   21  H16 UNL     1      22.243  -2.823  54.151  1.00  0.00     0.160 HD
ENDROOT
BRANCH   1  22
HETATM   22  O1  UNL     1      22.709   2.655  52.863  1.00  0.00    -0.372 OA
HETATM   23  H1  UNL     1      22.378   2.738  51.946  1.00  0.00     0.212 HD
ENDBRANCH   1  22
TORSDOF 1
ENDMDL
MODEL 5
REMARK VINA RESULT:      -7.5      2.317      6.032
REMARK  1 active torsions:
REMARK  status: ('A' for Active; 'I' for Inactive)
REMARK    1  A    between atoms: O1_1  and  C1_2 
ROOT
HETATM    1  C1  UNL     1      23.047   2.031  52.093  1.00  0.00     0.259 C 
HETATM    2  C2  UNL     1      22.624   1.968  50.646  1.00  0.00     0.017 A 
HETATM    3  C3  UNL     1      21.472   1.236  50.456  1.00  0.00     0.014 A 
HETATM    4  C4  UNL     1      21.017   1.130  49.168  1.00  0.00     0.001 A 
HETATM    5  C5  UNL     1      21.649   1.712  48.088  1.00  0.00     0.002 A 
HETATM    6  C6  UNL     1      22.802   2.444  48.282  1.00  0.00     0.030 A 
HETATM    7  C7  UNL     1      23.292   2.573  49.568  1.00  0.00     0.043 A 
HETATM    8  N1  UNL     1      24.482   3.385  49.404  1.00  0.00    -0.350 N 
HETATM    9  C8  UNL     1      25.537   3.614  50.371  1.00  0.00     0.204 C 
HETATM   10  N2  UNL     1      26.013   2.926  51.357  1.00  0.00    -0.248 NA
HETATM   11  C9  UNL     1      25.705   1.661  51.906  1.00  0.00     0.282 C 
HETATM   12  S1  UNL     1      26.451   1.488  53.583  1.00  0.00    -0.062 SA
HETATM   13  C10 UNL     1      25.344   0.091  53.945  1.00  0.00     0.092 C 
HETATM   14  C11 UNL     1      24.305   0.305  53.127  1.00  0.00     0.046 C 
HETATM   15  C12 UNL     1      23.383  -0.831  53.407  1.00  0.00     0.061 C 
HETATM   16  C13 UNL     1      23.055  -0.914  54.873  1.00  0.00     0.026 C 
HETATM   17  C14 UNL     1      24.270  -1.380  55.636  1.00  0.00     0.120 C 
HETATM   18  N3  UNL     1      25.423  -1.013  54.841  1.00  0.00    -0.383 N 
HETATM   19  N4  UNL     1      24.344   1.423  52.311  1.00  0.00    -0.319 N 
HETATM   20  H7  UNL     1      24.579   3.854  48.478  1.00  0.00     0.166 HD
HETATM   21  H16 UNL     1      26.352  -1.493  54.857  1.00  0.00     0.160 HD
ENDROOT
BRANCH   1  22
HETATM   22  O1  UNL     1      22.040   1.572  52.883  1.00  0.00    -0.372 OA
HETATM   23  H1  UNL     1      22.201   0.655  53.187  1.00  0.00     0.212 HD
ENDBRANCH   1  22
TORSDOF 1
ENDMDL
MODEL 6
REMARK VINA RESULT:      -7.4      2.563      4.302
REMARK  1 active torsions:
REMARK  status: ('A' for Active; 'I' for Inactive)
REMARK    1  A    between atoms: O1_1  and  C1_2 
ROOT
HETATM    1  C1  UNL     1      23.241   1.235  51.403  1.00  0.00     0.259 C 
HETATM    2  C2  UNL     1      22.800   0.538  52.666  1.00  0.00     0.017 A 
HETATM    3  C3  UNL     1      21.512   0.860  53.034  1.00  0.00     0.014 A 
HETATM    4  C4  UNL     1      21.032   0.267  54.172  1.00  0.00     0.001 A 
HETATM    5  C5  UNL     1      21.767  -0.612  54.940  1.00  0.00     0.002 A 
HETATM    6  C6  UNL     1      23.058  -0.932  54.569  1.00  0.00     0.030 A 
HETATM    7  C7  UNL     1      23.577  -0.354  53.426  1.00  0.00     0.043 A 
HETATM    8  N1  UNL     1      24.917  -0.900  53.341  1.00  0.00    -0.350 N 
HETATM    9  C8  UNL     1      26.006  -0.446  52.500  1.00  0.00     0.204 C 
HETATM   10  N2  UNL     1      26.325   0.698  51.988  1.00  0.00    -0.248 NA
HETATM   11  C9  UNL     1      25.746   1.986  52.034  1.00  0.00     0.282 C 
HETATM   12  S1  UNL     1      26.451   3.056  50.709  1.00  0.00    -0.062 SA
HETATM   13  C10 UNL     1      25.063   4.217  50.889  1.00  0.00     0.092 C 
HETATM   14  C11 UNL     1      24.090   3.451  51.403  1.00  0.00     0.046 C 
HETATM   15  C12 UNL     1      22.940   4.384  51.560  1.00  0.00     0.061 C 
HETATM   16  C13 UNL     1      22.616   5.070  50.260  1.00  0.00     0.026 C 
HETATM   17  C14 UNL     1      23.703   6.063  49.930  1.00  0.00     0.120 C 
HETATM   18  N3  UNL     1      24.901   5.602  50.600  1.00  0.00    -0.383 N 
HETATM   19  N4  UNL     1      24.371   2.114  51.629  1.00  0.00    -0.319 N 
HETATM   20  H7  UNL     1      25.108  -1.714  53.963  1.00  0.00     0.166 HD
HETATM   21  H16 UNL     1      25.698   6.205  50.905  1.00  0.00     0.160 HD
ENDROOT
BRANCH   1  22
HETATM   22  O1  UNL     1      22.165   1.802  50.795  1.00  0.00    -0.372 OA
HETATM   23  H1  UNL     1      21.347   1.696  51.323  1.00  0.00     0.212 HD
ENDBRANCH   1  22
TORSDOF 1
ENDMDL
MODEL 7
REMARK VINA RESULT:      -7.4      2.111      2.660
REMARK  1 active torsions:
REMARK  status: ('A' for Active; 'I' for Inactive)
REMARK    1  A    between atoms: O1_1  and  C1_2 
ROOT
HETATM    1  C1  UNL     1      23.199   1.834  52.162  1.00  0.00     0.259 C 
HETATM    2  C2  UNL     1      24.430   1.005  52.432  1.00  0.00     0.017 A 
HETATM    3  C3  UNL     1      25.525   1.417  51.703  1.00  0.00     0.014 A 
HETATM    4  C4  UNL     1      26.687   0.717  51.891  1.00  0.00     0.001 A 
HETATM    5  C5  UNL     1      26.800  -0.351  52.756  1.00  0.00     0.002 A 
HETATM    6  C6  UNL     1      25.702  -0.762  53.485  1.00  0.00     0.030 A 
HETATM    7  C7  UNL     1      24.511  -0.080  53.322  1.00  0.00     0.043 A 
HETATM    8  N1  UNL     1      23.597  -0.761  54.218  1.00  0.00    -0.350 N 
HETATM    9  C8  UNL     1      22.154  -0.648  54.263  1.00  0.00     0.204 C 
HETATM   10  N2  UNL     1      21.249  -0.368  53.383  1.00  0.00    -0.248 NA
HETATM   11  C9  UNL     1      21.289  -0.054  52.005  1.00  0.00     0.282 C 
HETATM   12  S1  UNL     1      19.690   0.691  51.469  1.00  0.00    -0.062 SA
HETATM   13  C10 UNL     1      20.480   1.335  49.963  1.00  0.00     0.092 C 
HETATM   14  C11 UNL     1      21.772   1.424  50.311  1.00  0.00     0.046 C 
HETATM   15  C12 UNL     1      22.440   1.950  49.089  1.00  0.00     0.061 C 
HETATM   16  C13 UNL     1      21.797   3.231  48.628  1.00  0.00     0.026 C 
HETATM   17  C14 UNL     1      20.431   2.933  48.060  1.00  0.00     0.120 C 
HETATM   18  N3  UNL     1      19.986   1.702  48.680  1.00  0.00    -0.383 N 
HETATM   19  N4  UNL     1      22.123   1.045  51.596  1.00  0.00    -0.319 N 
HETATM   20  H7  UNL     1      24.043  -1.406  54.905  1.00  0.00     0.166 HD
HETATM   21  H16 UNL     1      19.306   1.024  48.266  1.00  0.00     0.160 HD
ENDROOT
BRANCH   1  22
HETATM   22  O1  UNL     1      23.544   2.948  51.463  1.00  0.00    -0.372 OA
HETATM   23  H1  UNL     1      23.189   3.763  51.874  1.00  0.00     0.212 HD
ENDBRANCH   1  22
TORSDOF 1
ENDMDL
MODEL 8
REMARK VINA RESULT:      -7.2      9.320     11.194
REMARK  1 active torsions:
REMARK  status: ('A' for Active; 'I' for Inactive)
REMARK    1  A    between atoms: O1_1  and  C1_2 
ROOT
HETATM    1  C1  UNL     1      31.439   6.097  48.632  1.00  0.00     0.259 C 
HETATM    2  C2  UNL     1      29.957   6.360  48.520  1.00  0.00     0.017 A 
HETATM    3  C3  UNL     1      29.211   5.203  48.458  1.00  0.00     0.014 A 
HETATM    4  C4  UNL     1      27.853   5.353  48.356  1.00  0.00     0.001 A 
HETATM    5  C5  UNL     1      27.224   6.580  48.316  1.00  0.00     0.002 A 
HETATM    6  C6  UNL     1      27.974   7.737  48.378  1.00  0.00     0.030 A 
HETATM    7  C7  UNL     1      29.348   7.626  48.481  1.00  0.00     0.043 A 
HETATM    8  N1  UNL     1      29.803   9.002  48.523  1.00  0.00    -0.350 N 
HETATM    9  C8  UNL     1      31.157   9.491  48.360  1.00  0.00     0.204 C 
HETATM   10  N2  UNL     1      32.198   9.055  47.727  1.00  0.00    -0.248 NA
HETATM   11  C9  UNL     1      32.450   7.917  46.928  1.00  0.00     0.282 C 
HETATM   12  S1  UNL     1      34.265   7.667  46.722  1.00  0.00    -0.062 SA
HETATM   13  C10 UNL     1      33.981   5.953  46.184  1.00  0.00     0.092 C 
HETATM   14  C11 UNL     1      32.798   5.652  46.738  1.00  0.00     0.046 C 
HETATM   15  C12 UNL     1      32.544   4.249  46.309  1.00  0.00     0.061 C 
HETATM   16  C13 UNL     1      33.692   3.350  46.686  1.00  0.00     0.026 C 
HETATM   17  C14 UNL     1      34.885   3.667  45.820  1.00  0.00     0.120 C 
HETATM   18  N3  UNL     1      34.729   5.041  45.388  1.00  0.00    -0.383 N 
HETATM   19  N4  UNL     1      32.175   6.626  47.501  1.00  0.00    -0.319 N 
HETATM   20  H7  UNL     1      29.060   9.713  48.690  1.00  0.00     0.166 HD
HETATM   21  H16 UNL     1      35.130   5.453  44.515  1.00  0.00     0.160 HD
ENDROOT
BRANCH   1  22
HETATM   22  O1  UNL     1      31.649   4.783  48.911  1.00  0.00    -0.372 OA
HETATM   23  H1  UNL     1      31.990   4.651  49.819  1.00  0.00     0.212 HD
ENDBRANCH   1  22
TORSDOF 1
ENDMDL
MODEL 9
REMARK VINA RESULT:      -6.7      8.381     10.046
REMARK  1 active torsions:
REMARK  status: ('A' for Active; 'I' for Inactive)
REMARK    1  A    between atoms: O1_1  and  C1_2 
ROOT
HETATM    1  C1  UNL     1      27.983   8.112  47.390  1.00  0.00     0.259 C 
HETATM    2  C2  UNL     1      27.386   6.874  48.011  1.00  0.00     0.017 A 
HETATM    3  C3  UNL     1      26.039   7.000  48.271  1.00  0.00     0.014 A 
HETATM    4  C4  UNL     1      25.418   5.917  48.834  1.00  0.00     0.001 A 
HETATM    5  C5  UNL     1      26.070   4.741  49.141  1.00  0.00     0.002 A 
HETATM    6  C6  UNL     1      27.419   4.617  48.880  1.00  0.00     0.030 A 
HETATM    7  C7  UNL     1      28.081   5.689  48.312  1.00  0.00     0.043 A 
HETATM    8  N1  UNL     1      29.447   5.221  48.180  1.00  0.00    -0.350 N 
HETATM    9  C8  UNL     1      30.629   6.009  47.894  1.00  0.00     0.204 C 
HETATM   10  N2  UNL     1      30.959   7.240  48.115  1.00  0.00    -0.248 NA
HETATM   11  C9  UNL     1      30.307   8.333  48.729  1.00  0.00     0.282 C 
HETATM   12  S1  UNL     1      31.152   9.913  48.295  1.00  0.00    -0.062 SA
HETATM   13  C10 UNL     1      29.688  10.856  48.819  1.00  0.00     0.092 C 
HETATM   14  C11 UNL     1      28.691   9.969  48.687  1.00  0.00     0.046 C 
HETATM   15  C12 UNL     1      27.479  10.722  49.113  1.00  0.00     0.061 C 
HETATM   16  C13 UNL     1      27.329  11.998  48.328  1.00  0.00     0.026 C 
HETATM   17  C14 UNL     1      28.396  12.977  48.750  1.00  0.00     0.120 C 
HETATM   18  N3  UNL     1      29.495  12.192  49.271  1.00  0.00    -0.383 N 
HETATM   19  N4  UNL     1      29.009   8.703  48.226  1.00  0.00    -0.319 N 
HETATM   20  H7  UNL     1      29.582   4.196  48.307  1.00  0.00     0.166 HD
HETATM   21  H16 UNL     1      30.197  12.518  49.974  1.00  0.00     0.160 HD
ENDROOT
BRANCH   1  22
HETATM   22  O1  UNL     1      26.988   8.951  46.997  1.00  0.00    -0.372 OA
HETATM   23  H1  UNL     1      26.241   8.955  47.630  1.00  0.00     0.212 HD
ENDBRANCH   1  22
TORSDOF 1
ENDMDL
