MODEL 1
REMARK VINA RESULT:      -8.7      0.000      0.000
REMARK  4 active torsions:
REMARK  status: ('A' for Active; 'I' for Inactive)
REMARK    1  A    between atoms: C2_2  and  C3_3 
REMARK    2  A    between atoms: C3_3  and  C4_4 
REMARK    3  A    between atoms: C17_20  and  C18_21 
REMARK    4  A    between atoms: C20_24  and  O2_25 
ROOT
HETATM    1  C4  UNL     1      21.747   5.001  51.017  1.00  0.00     0.046 C 
HETATM    2  N1  UNL     1      22.502   5.582  52.113  1.00  0.00    -0.308 N 
HETATM    3  C5  UNL     1      23.539   5.017  52.912  1.00  0.00     0.325 C 
HETATM    4  O1  UNL     1      23.872   5.684  53.904  1.00  0.00    -0.247 OA
HETATM    5  N2  UNL     1      24.274   3.813  52.779  1.00  0.00    -0.309 N 
HETATM    6  C6  UNL     1      24.656   3.069  51.595  1.00  0.00     0.059 C 
HETATM    7  C7  UNL     1      25.867   2.447  51.589  1.00  0.00     0.098 C 
HETATM    8  C8  UNL     1      26.285   2.763  50.177  1.00  0.00     0.036 C 
HETATM    9  C9  UNL     1      25.271   3.484  49.549  1.00  0.00    -0.008 C 
HETATM   10  C10 UNL     1      24.217   2.722  50.168  1.00  0.00     0.095 C 
HETATM   11  C11 UNL     1      22.800   2.841  49.993  1.00  0.00    -0.032 A 
HETATM   12  C12 UNL     1      22.393   1.651  49.408  1.00  0.00     0.010 A 
HETATM   13  C13 UNL     1      21.164   1.142  49.141  1.00  0.00     0.009 A 
HETATM   14  C14 UNL     1      20.596   2.259  49.672  1.00  0.00    -0.044 A 
HETATM   15  C15 UNL     1      20.399   3.456  50.240  1.00  0.00     0.022 A 
HETATM   16  C16 UNL     1      21.781   3.688  50.376  1.00  0.00    -0.001 A 
HETATM   17  C17 UNL     1      19.397   1.470  50.219  1.00  0.00     0.084 C 
HETATM   18  C19 UNL     1      19.943   0.635  51.347  1.00  0.00     0.025 C 
HETATM   19  C20 UNL     1      20.343  -0.126  52.325  1.00  0.00     0.071 C 
HETATM   20  C22 UNL     1      21.414  -0.476  53.210  1.00  0.00    -0.029 C 
HETATM   21  C23 UNL     1      20.860  -1.541  54.080  1.00  0.00     0.051 C 
HETATM   22  C24 UNL     1      22.617  -0.128  53.425  1.00  0.00     0.011 C 
HETATM   23  C25 UNL     1      23.768   0.689  53.124  1.00  0.00     0.025 C 
HETATM   24  C26 UNL     1      25.006   1.028  53.362  1.00  0.00     0.142 C 
HETATM   25  O3  UNL     1      25.933   1.927  52.874  1.00  0.00    -0.321 OA
HETATM   26  H5  UNL     1      22.242   6.562  52.353  1.00  0.00     0.170 HD
HETATM   27  H6  UNL     1      24.624   3.391  53.665  1.00  0.00     0.170 HD
ENDROOT
BRANCH   1  28
HETATM   28  C3  UNL     1      20.862   5.803  50.488  1.00  0.00     0.026 C 
BRANCH  28  29
HETATM   29  C2  UNL     1      20.274   6.947  49.862  1.00  0.00    -0.024 C 
HETATM   30  C1  UNL     1      20.087   8.241  49.751  1.00  0.00     0.031 C 
ENDBRANCH  28  29
ENDBRANCH   1  28
BRANCH  17  31
HETATM   31  C18 UNL     1      18.344   2.307  50.810  1.00  0.00     0.093 C 
HETATM   32  N3  UNL     1      17.254   2.044  51.420  1.00  0.00    -0.315 NA
HETATM   33  H15 UNL     1      16.929   1.067  51.598  1.00  0.00     0.185 HD
ENDBRANCH  17  31
BRANCH  19  34
HETATM   34  O2  UNL     1      19.065  -0.558  52.123  1.00  0.00    -0.356 OA
HETATM   35  C21 UNL     1      18.129  -0.901  53.102  1.00  0.00     0.210 C 
ENDBRANCH  19  34
TORSDOF 4
ENDMDL
MODEL 2
REMARK VINA RESULT:      -8.6      6.655     11.018
REMARK  4 active torsions:
REMARK  status: ('A' for Active; 'I' for Inactive)
REMARK    1  A    between atoms: C2_2  and  C3_3 
REMARK    2  A    between atoms: C3_3  and  C4_4 
REMARK    3  A    between atoms: C17_20  and  C18_21 
REMARK    4  A    between atoms: C20_24  and  O2_25 
ROOT
HETATM    1  C4  UNL     1      26.431   6.444  48.819  1.00  0.00     0.046 C 
HETATM    2  N1  UNL     1      25.383   6.893  49.717  1.00  0.00    -0.308 N 
HETATM    3  C5  UNL     1      24.733   8.159  49.807  1.00  0.00     0.325 C 
HETATM    4  O1  UNL     1      24.004   8.316  50.799  1.00  0.00    -0.247 OA
HETATM    5  N2  UNL     1      24.764   9.291  48.955  1.00  0.00    -0.309 N 
HETATM    6  C6  UNL     1      24.949   9.384  47.520  1.00  0.00     0.059 C 
HETATM    7  C7  UNL     1      24.258  10.343  46.844  1.00  0.00     0.098 C 
HETATM    8  C8  UNL     1      23.874   9.540  45.629  1.00  0.00     0.036 C 
HETATM    9  C9  UNL     1      24.405   8.257  45.739  1.00  0.00    -0.008 C 
HETATM   10  C10 UNL     1      25.639   8.717  46.325  1.00  0.00     0.095 C 
HETATM   11  C11 UNL     1      26.787   7.955  46.718  1.00  0.00    -0.032 A 
HETATM   12  C12 UNL     1      27.816   8.371  45.886  1.00  0.00     0.010 A 
HETATM   13  C13 UNL     1      29.147   8.106  45.883  1.00  0.00     0.009 A 
HETATM   14  C14 UNL     1      28.983   7.316  46.979  1.00  0.00    -0.044 A 
HETATM   15  C15 UNL     1      28.460   6.638  48.009  1.00  0.00     0.022 A 
HETATM   16  C16 UNL     1      27.160   7.103  47.737  1.00  0.00    -0.001 A 
HETATM   17  C17 UNL     1      30.359   7.699  47.544  1.00  0.00     0.084 C 
HETATM   18  C19 UNL     1      30.234   9.137  47.974  1.00  0.00     0.025 C 
HETATM   19  C20 UNL     1      30.208  10.380  48.357  1.00  0.00     0.071 C 
HETATM   20  C22 UNL     1      29.406  11.545  48.594  1.00  0.00    -0.029 C 
HETATM   21  C23 UNL     1      30.355  12.568  49.096  1.00  0.00     0.051 C 
HETATM   22  C24 UNL     1      28.187  11.891  48.497  1.00  0.00     0.011 C 
HETATM   23  C25 UNL     1      26.813  11.597  48.170  1.00  0.00     0.025 C 
HETATM   24  C26 UNL     1      25.567  11.976  48.076  1.00  0.00     0.142 C 
HETATM   25  O3  UNL     1      24.357  11.430  47.701  1.00  0.00    -0.321 OA
HETATM   26  H5  UNL     1      25.060   6.180  50.405  1.00  0.00     0.170 HD
HETATM   27  H6  UNL     1      24.609  10.213  49.414  1.00  0.00     0.170 HD
ENDROOT
BRANCH   1  28
HETATM   28  C3  UNL     1      26.802   5.205  49.001  1.00  0.00     0.026 C 
BRANCH  28  29
HETATM   29  C2  UNL     1      26.782   3.828  49.388  1.00  0.00    -0.024 C 
HETATM   30  C1  UNL     1      26.453   2.858  50.208  1.00  0.00     0.031 C 
ENDBRANCH  28  29
ENDBRANCH   1  28
BRANCH  17  31
HETATM   31  C18 UNL     1      30.746   6.951  48.747  1.00  0.00     0.093 C 
HETATM   32  N3  UNL     1      31.380   7.266  49.809  1.00  0.00    -0.315 NA
HETATM   33  H15 UNL     1      31.755   8.226  49.979  1.00  0.00     0.185 HD
ENDBRANCH  17  31
BRANCH  19  34
HETATM   34  O2  UNL     1      31.532  10.073  48.458  1.00  0.00    -0.356 OA
HETATM   35  C21 UNL     1      32.516  10.261  47.484  1.00  0.00     0.210 C 
ENDBRANCH  19  34
TORSDOF 4
ENDMDL
MODEL 3
REMARK VINA RESULT:      -8.4      2.433      5.602
REMARK  4 active torsions:
REMARK  status: ('A' for Active; 'I' for Inactive)
REMARK    1  A    between atoms: C2_2  and  C3_3 
REMARK    2  A    between atoms: C3_3  and  C4_4 
REMARK    3  A    between atoms: C17_20  and  C18_21 
REMARK    4  A    between atoms: C20_24  and  O2_25 
ROOT
HETATM    1  C4  UNL     1      24.877   3.385  49.493  1.00  0.00     0.046 C 
HETATM    2  N1  UNL     1      24.036   3.157  48.332  1.00  0.00    -0.308 N 
HETATM    3  C5  UNL     1      22.636   2.897  48.251  1.00  0.00     0.325 C 
HETATM    4  O1  UNL     1      22.221   2.554  47.133  1.00  0.00    -0.247 OA
HETATM    5  N2  UNL     1      21.612   2.962  49.229  1.00  0.00    -0.309 N 
HETATM    6  C6  UNL     1      21.481   3.808  50.400  1.00  0.00     0.059 C 
HETATM    7  C7  UNL     1      20.237   4.238  50.745  1.00  0.00     0.098 C 
HETATM    8  C8  UNL     1      20.577   5.656  51.124  1.00  0.00     0.036 C 
HETATM    9  C9  UNL     1      21.949   5.852  50.982  1.00  0.00    -0.008 C 
HETATM   10  C10 UNL     1      22.283   4.542  51.480  1.00  0.00     0.095 C 
HETATM   11  C11 UNL     1      23.576   3.961  51.685  1.00  0.00    -0.032 A 
HETATM   12  C12 UNL     1      23.688   3.766  53.053  1.00  0.00     0.010 A 
HETATM   13  C13 UNL     1      24.619   3.131  53.809  1.00  0.00     0.009 A 
HETATM   14  C14 UNL     1      25.311   2.820  52.679  1.00  0.00    -0.044 A 
HETATM   15  C15 UNL     1      25.710   2.708  51.405  1.00  0.00     0.022 A 
HETATM   16  C16 UNL     1      24.598   3.425  50.928  1.00  0.00    -0.001 A 
HETATM   17  C17 UNL     1      25.783   1.478  53.258  1.00  0.00     0.084 C 
HETATM   18  C19 UNL     1      24.555   0.608  53.316  1.00  0.00     0.025 C 
HETATM   19  C20 UNL     1      23.539  -0.199  53.409  1.00  0.00     0.071 C 
HETATM   20  C22 UNL     1      22.158  -0.429  53.097  1.00  0.00    -0.029 C 
HETATM   21  C23 UNL     1      21.859  -1.772  53.649  1.00  0.00     0.051 C 
HETATM   22  C24 UNL     1      21.208   0.174  52.508  1.00  0.00     0.011 C 
HETATM   23  C25 UNL     1      20.688   1.312  51.789  1.00  0.00     0.025 C 
HETATM   24  C26 UNL     1      19.694   1.913  51.191  1.00  0.00     0.142 C 
HETATM   25  O3  UNL     1      19.467   3.103  50.530  1.00  0.00    -0.321 OA
HETATM   26  H5  UNL     1      24.535   3.185  47.418  1.00  0.00     0.170 HD
HETATM   27  H6  UNL     1      20.805   2.320  49.088  1.00  0.00     0.170 HD
ENDROOT
BRANCH   1  28
HETATM   28  C3  UNL     1      26.134   3.604  49.214  1.00  0.00     0.026 C 
BRANCH  28  29
HETATM   29  C2  UNL     1      27.363   4.284  48.948  1.00  0.00    -0.024 C 
HETATM   30  C1  UNL     1      28.052   5.287  48.455  1.00  0.00     0.031 C 
ENDBRANCH  28  29
ENDBRANCH   1  28
BRANCH  17  31
HETATM   31  C18 UNL     1      26.746   0.761  52.410  1.00  0.00     0.093 C 
HETATM   32  N3  UNL     1      27.098  -0.462  52.325  1.00  0.00    -0.315 NA
HETATM   33  H15 UNL     1      26.691  -1.210  52.932  1.00  0.00     0.185 HD
ENDBRANCH  17  31
BRANCH  19  34
HETATM   34  O2  UNL     1      24.513  -0.882  54.074  1.00  0.00    -0.356 OA
HETATM   35  C21 UNL     1      24.620  -1.066  55.455  1.00  0.00     0.210 C 
ENDBRANCH  19  34
TORSDOF 4
ENDMDL
MODEL 4
REMARK VINA RESULT:      -7.9      3.764      7.233
REMARK  4 active torsions:
REMARK  status: ('A' for Active; 'I' for Inactive)
REMARK    1  A    between atoms: C2_2  and  C3_3 
REMARK    2  A    between atoms: C3_3  and  C4_4 
REMARK    3  A    between atoms: C17_20  and  C18_21 
REMARK    4  A    between atoms: C20_24  and  O2_25 
ROOT
HETATM    1  C4  UNL     1      21.755   5.486  48.530  1.00  0.00     0.046 C 
HETATM    2  N1  UNL     1      21.727   4.100  48.097  1.00  0.00    -0.308 N 
HETATM    3  C5  UNL     1      22.631   3.034  48.377  1.00  0.00     0.325 C 
HETATM    4  O1  UNL     1      22.457   1.998  47.715  1.00  0.00    -0.247 OA
HETATM    5  N2  UNL     1      23.710   2.935  49.292  1.00  0.00    -0.309 N 
HETATM    6  C6  UNL     1      23.912   3.568  50.580  1.00  0.00     0.059 C 
HETATM    7  C7  UNL     1      24.541   2.855  51.554  1.00  0.00     0.098 C 
HETATM    8  C8  UNL     1      23.690   3.263  52.728  1.00  0.00     0.036 C 
HETATM    9  C9  UNL     1      22.717   4.164  52.299  1.00  0.00    -0.008 C 
HETATM   10  C10 UNL     1      23.608   4.835  51.387  1.00  0.00     0.095 C 
HETATM   11  C11 UNL     1      23.348   5.965  50.545  1.00  0.00    -0.032 A 
HETATM   12  C12 UNL     1      24.161   6.983  51.021  1.00  0.00     0.010 A 
HETATM   13  C13 UNL     1      24.443   8.221  50.543  1.00  0.00     0.009 A 
HETATM   14  C14 UNL     1      23.619   7.990  49.485  1.00  0.00    -0.044 A 
HETATM   15  C15 UNL     1      22.758   7.433  48.622  1.00  0.00     0.022 A 
HETATM   16  C16 UNL     1      22.682   6.243  49.369  1.00  0.00    -0.001 A 
HETATM   17  C17 UNL     1      24.496   8.820  48.535  1.00  0.00     0.084 C 
HETATM   18  C19 UNL     1      25.754   8.016  48.340  1.00  0.00     0.025 C 
HETATM   19  C20 UNL     1      26.874   7.386  48.132  1.00  0.00     0.071 C 
HETATM   20  C22 UNL     1      27.621   6.176  48.315  1.00  0.00    -0.029 C 
HETATM   21  C23 UNL     1      28.918   6.421  47.641  1.00  0.00     0.051 C 
HETATM   22  C24 UNL     1      27.461   5.039  48.857  1.00  0.00     0.011 C 
HETATM   23  C25 UNL     1      26.659   4.093  49.594  1.00  0.00     0.025 C 
HETATM   24  C26 UNL     1      26.519   2.917  50.147  1.00  0.00     0.142 C 
HETATM   25  O3  UNL     1      25.552   2.223  50.845  1.00  0.00    -0.321 OA
HETATM   26  H5  UNL     1      20.923   3.849  47.483  1.00  0.00     0.170 HD
HETATM   27  H6  UNL     1      24.481   2.290  49.021  1.00  0.00     0.170 HD
ENDROOT
BRANCH   1  28
HETATM   28  C3  UNL     1      20.758   6.207  48.094  1.00  0.00     0.026 C 
BRANCH  28  29
HETATM   29  C2  UNL     1      19.429   6.630  47.779  1.00  0.00    -0.024 C 
HETATM   30  C1  UNL     1      18.473   7.529  47.750  1.00  0.00     0.031 C 
ENDBRANCH  28  29
ENDBRANCH   1  28
BRANCH  17  31
HETATM   31  C18 UNL     1      23.924   9.006  47.195  1.00  0.00     0.093 C 
HETATM   32  N3  UNL     1      24.435   9.226  46.046  1.00  0.00    -0.315 NA
HETATM   33  H15 UNL     1      25.466   9.314  45.895  1.00  0.00     0.185 HD
ENDBRANCH  17  31
BRANCH  19  34
HETATM   34  O2  UNL     1      27.111   8.599  47.554  1.00  0.00    -0.356 OA
HETATM   35  C21 UNL     1      27.817   9.670  48.107  1.00  0.00     0.210 C 
ENDBRANCH  19  34
TORSDOF 4
ENDMDL
MODEL 5
REMARK VINA RESULT:      -7.9      2.483      6.335
REMARK  4 active torsions:
REMARK  status: ('A' for Active; 'I' for Inactive)
REMARK    1  A    between atoms: C2_2  and  C3_3 
REMARK    2  A    between atoms: C3_3  and  C4_4 
REMARK    3  A    between atoms: C17_20  and  C18_21 
REMARK    4  A    between atoms: C20_24  and  O2_25 
ROOT
HETATM    1  C4  UNL     1      17.609   1.300  51.325  1.00  0.00     0.046 C 
HETATM    2  N1  UNL     1      16.701   2.377  51.674  1.00  0.00    -0.308 N 
HETATM    3  C5  UNL     1      16.789   3.775  51.405  1.00  0.00     0.325 C 
HETATM    4  O1  UNL     1      15.957   4.485  51.990  1.00  0.00    -0.247 OA
HETATM    5  N2  UNL     1      17.666   4.515  50.574  1.00  0.00    -0.309 N 
HETATM    6  C6  UNL     1      18.338   4.142  49.344  1.00  0.00     0.059 C 
HETATM    7  C7  UNL     1      18.493   5.094  48.383  1.00  0.00     0.098 C 
HETATM    8  C8  UNL     1      18.187   4.253  47.171  1.00  0.00     0.036 C 
HETATM    9  C9  UNL     1      17.928   2.944  47.574  1.00  0.00    -0.008 C 
HETATM   10  C10 UNL     1      18.949   2.956  48.591  1.00  0.00     0.095 C 
HETATM   11  C11 UNL     1      19.351   1.901  49.473  1.00  0.00    -0.032 A 
HETATM   12  C12 UNL     1      20.658   1.596  49.123  1.00  0.00     0.010 A 
HETATM   13  C13 UNL     1      21.588   0.788  49.692  1.00  0.00     0.009 A 
HETATM   14  C14 UNL     1      20.695   0.463  50.667  1.00  0.00    -0.044 A 
HETATM   15  C15 UNL     1      19.595   0.375  51.425  1.00  0.00     0.022 A 
HETATM   16  C16 UNL     1      18.882   1.270  50.607  1.00  0.00    -0.001 A 
HETATM   17  C17 UNL     1      21.798   0.342  51.729  1.00  0.00     0.084 C 
HETATM   18  C19 UNL     1      22.279   1.747  51.976  1.00  0.00     0.025 C 
HETATM   19  C20 UNL     1      22.756   2.930  52.235  1.00  0.00     0.071 C 
HETATM   20  C22 UNL     1      22.624   4.344  52.042  1.00  0.00    -0.029 C 
HETATM   21  C23 UNL     1      23.728   4.944  52.829  1.00  0.00     0.051 C 
HETATM   22  C24 UNL     1      21.858   5.148  51.424  1.00  0.00     0.011 C 
HETATM   23  C25 UNL     1      20.722   5.407  50.572  1.00  0.00     0.025 C 
HETATM   24  C26 UNL     1      19.950   6.252  49.944  1.00  0.00     0.142 C 
HETATM   25  O3  UNL     1      18.834   6.210  49.133  1.00  0.00    -0.321 OA
HETATM   26  H5  UNL     1      15.855   2.082  52.207  1.00  0.00     0.170 HD
HETATM   27  H6  UNL     1      17.854   5.497  50.867  1.00  0.00     0.170 HD
ENDROOT
BRANCH   1  28
HETATM   28  C3  UNL     1      17.222   0.118  51.722  1.00  0.00     0.026 C 
BRANCH  28  29
HETATM   29  C2  UNL     1      17.146  -1.106  52.458  1.00  0.00    -0.024 C 
HETATM   30  C1  UNL     1      17.588  -1.942  53.369  1.00  0.00     0.031 C 
ENDBRANCH  28  29
ENDBRANCH   1  28
BRANCH  17  31
HETATM   31  C18 UNL     1      21.331  -0.160  53.028  1.00  0.00     0.093 C 
HETATM   32  N3  UNL     1      21.811  -0.112  54.210  1.00  0.00    -0.315 NA
HETATM   33  H15 UNL     1      22.721   0.351  54.431  1.00  0.00     0.185 HD
ENDBRANCH  17  31
BRANCH  19  34
HETATM   34  O2  UNL     1      23.625   2.115  52.898  1.00  0.00    -0.356 OA
HETATM   35  C21 UNL     1      24.883   1.694  52.462  1.00  0.00     0.210 C 
ENDBRANCH  19  34
TORSDOF 4
ENDMDL
MODEL 6
REMARK VINA RESULT:      -7.9      2.667      5.538
REMARK  4 active torsions:
REMARK  status: ('A' for Active; 'I' for Inactive)
REMARK    1  A    between atoms: C2_2  and  C3_3 
REMARK    2  A    between atoms: C3_3  and  C4_4 
REMARK    3  A    between atoms: C17_20  and  C18_21 
REMARK    4  A    between atoms: C20_24  and  O2_25 
ROOT
HETATM    1  C4  UNL     1      24.562   4.485  49.315  1.00  0.00     0.046 C 
HETATM    2  N1  UNL     1      23.913   4.583  48.020  1.00  0.00    -0.308 N 
HETATM    3  C5  UNL     1      22.533   4.733  47.696  1.00  0.00     0.325 C 
HETATM    4  O1  UNL     1      22.248   4.599  46.496  1.00  0.00    -0.247 OA
HETATM    5  N2  UNL     1      21.405   5.016  48.507  1.00  0.00    -0.309 N 
HETATM    6  C6  UNL     1      21.295   5.782  49.733  1.00  0.00     0.059 C 
HETATM    7  C7  UNL     1      20.168   6.519  49.930  1.00  0.00     0.098 C 
HETATM    8  C8  UNL     1      20.799   7.755  50.519  1.00  0.00     0.036 C 
HETATM    9  C9  UNL     1      22.176   7.567  50.613  1.00  0.00    -0.008 C 
HETATM   10  C10 UNL     1      22.055   6.184  51.001  1.00  0.00     0.095 C 
HETATM   11  C11 UNL     1      23.090   5.251  51.333  1.00  0.00    -0.032 A 
HETATM   12  C12 UNL     1      22.899   4.938  52.671  1.00  0.00     0.010 A 
HETATM   13  C13 UNL     1      23.477   4.017  53.482  1.00  0.00     0.009 A 
HETATM   14  C14 UNL     1      24.253   3.603  52.443  1.00  0.00    -0.044 A 
HETATM   15  C15 UNL     1      24.829   3.471  51.241  1.00  0.00     0.022 A 
HETATM   16  C16 UNL     1      24.051   4.503  50.685  1.00  0.00    -0.001 A 
HETATM   17  C17 UNL     1      24.240   2.145  52.928  1.00  0.00     0.084 C 
HETATM   18  C19 UNL     1      22.835   1.654  52.697  1.00  0.00     0.025 C 
HETATM   19  C20 UNL     1      21.641   1.161  52.539  1.00  0.00     0.071 C 
HETATM   20  C22 UNL     1      20.329   1.350  51.994  1.00  0.00    -0.029 C 
HETATM   21  C23 UNL     1      19.590   0.111  52.335  1.00  0.00     0.051 C 
HETATM   22  C24 UNL     1      19.694   2.235  51.340  1.00  0.00     0.011 C 
HETATM   23  C25 UNL     1      19.632   3.520  50.686  1.00  0.00     0.025 C 
HETATM   24  C26 UNL     1      18.958   4.416  50.016  1.00  0.00     0.142 C 
HETATM   25  O3  UNL     1      19.177   5.664  49.471  1.00  0.00    -0.321 OA
HETATM   26  H5  UNL     1      24.557   4.532  47.203  1.00  0.00     0.170 HD
HETATM   27  H6  UNL     1      20.494   4.638  48.170  1.00  0.00     0.170 HD
ENDROOT
BRANCH   1  28
HETATM   28  C3  UNL     1      25.861   4.360  49.259  1.00  0.00     0.026 C 
BRANCH  28  29
HETATM   29  C2  UNL     1      27.225   4.557  48.877  1.00  0.00    -0.024 C 
HETATM   30  C1  UNL     1      28.216   5.310  48.461  1.00  0.00     0.031 C 
ENDBRANCH  28  29
ENDBRANCH   1  28
BRANCH  17  31
HETATM   31  C18 UNL     1      25.113   1.247  52.161  1.00  0.00     0.093 C 
HETATM   32  N3  UNL     1      25.537   0.059  52.355  1.00  0.00    -0.315 NA
HETATM   33  H15 UNL     1      25.282  -0.499  53.201  1.00  0.00     0.185 HD
ENDBRANCH  17  31
BRANCH  19  34
HETATM   34  O2  UNL     1      22.264   0.187  53.262  1.00  0.00    -0.356 OA
HETATM   35  C21 UNL     1      21.957  -0.222  54.562  1.00  0.00     0.210 C 
ENDBRANCH  19  34
TORSDOF 4
ENDMDL
MODEL 7
REMARK VINA RESULT:      -7.8      1.602      2.143
REMARK  4 active torsions:
REMARK  status: ('A' for Active; 'I' for Inactive)
REMARK    1  A    between atoms: C2_2  and  C3_3 
REMARK    2  A    between atoms: C3_3  and  C4_4 
REMARK    3  A    between atoms: C17_20  and  C18_21 
REMARK    4  A    between atoms: C20_24  and  O2_25 
ROOT
HETATM    1  C4  UNL     1      22.831   5.852  50.570  1.00  0.00     0.046 C 
HETATM    2  N1  UNL     1      23.250   6.015  51.950  1.00  0.00    -0.308 N 
HETATM    3  C5  UNL     1      23.694   5.043  52.894  1.00  0.00     0.325 C 
HETATM    4  O1  UNL     1      23.807   5.446  54.062  1.00  0.00    -0.247 OA
HETATM    5  N2  UNL     1      24.038   3.677  52.741  1.00  0.00    -0.309 N 
HETATM    6  C6  UNL     1      24.603   2.969  51.608  1.00  0.00     0.059 C 
HETATM    7  C7  UNL     1      25.487   1.965  51.855  1.00  0.00     0.098 C 
HETATM    8  C8  UNL     1      26.480   2.253  50.759  1.00  0.00     0.036 C 
HETATM    9  C9  UNL     1      26.038   3.346  50.015  1.00  0.00    -0.008 C 
HETATM   10  C10 UNL     1      24.654   2.946  50.077  1.00  0.00     0.095 C 
HETATM   11  C11 UNL     1      23.510   3.575  49.486  1.00  0.00    -0.032 A 
HETATM   12  C12 UNL     1      23.025   2.670  48.553  1.00  0.00     0.010 A 
HETATM   13  C13 UNL     1      21.897   2.658  47.798  1.00  0.00     0.009 A 
HETATM   14  C14 UNL     1      21.525   3.844  48.352  1.00  0.00    -0.044 A 
HETATM   15  C15 UNL     1      21.488   4.970  49.078  1.00  0.00     0.022 A 
HETATM   16  C16 UNL     1      22.718   4.684  49.699  1.00  0.00    -0.001 A 
HETATM   17  C17 UNL     1      20.034   3.478  48.296  1.00  0.00     0.084 C 
HETATM   18  C19 UNL     1      19.844   2.395  49.324  1.00  0.00     0.025 C 
HETATM   19  C20 UNL     1      19.603   1.448  50.184  1.00  0.00     0.071 C 
HETATM   20  C22 UNL     1      20.108   0.654  51.266  1.00  0.00    -0.029 C 
HETATM   21  C23 UNL     1      18.981  -0.229  51.652  1.00  0.00     0.051 C 
HETATM   22  C24 UNL     1      21.185   0.532  51.927  1.00  0.00     0.011 C 
HETATM   23  C25 UNL     1      22.549   0.916  52.202  1.00  0.00     0.025 C 
HETATM   24  C26 UNL     1      23.646   0.770  52.895  1.00  0.00     0.142 C 
HETATM   25  O3  UNL     1      24.907   1.328  52.943  1.00  0.00    -0.321 OA
HETATM   26  H5  UNL     1      23.218   6.994  52.305  1.00  0.00     0.170 HD
HETATM   27  H6  UNL     1      23.887   3.071  53.575  1.00  0.00     0.170 HD
ENDROOT
BRANCH   1  28
HETATM   28  C3  UNL     1      22.488   6.964  49.976  1.00  0.00     0.026 C 
BRANCH  28  29
HETATM   29  C2  UNL     1      22.437   8.347  49.617  1.00  0.00    -0.024 C 
HETATM   30  C1  UNL     1      21.897   9.363  48.985  1.00  0.00     0.031 C 
ENDBRANCH  28  29
ENDBRANCH   1  28
BRANCH  17  31
HETATM   31  C18 UNL     1      19.131   4.569  48.687  1.00  0.00     0.093 C 
HETATM   32  N3  UNL     1      17.860   4.691  48.704  1.00  0.00    -0.315 NA
HETATM   33  H15 UNL     1      17.216   3.927  48.400  1.00  0.00     0.185 HD
ENDBRANCH  17  31
BRANCH  19  34
HETATM   34  O2  UNL     1      18.430   1.517  49.491  1.00  0.00    -0.356 OA
HETATM   35  C21 UNL     1      17.148   1.679  50.023  1.00  0.00     0.210 C 
ENDBRANCH  19  34
TORSDOF 4
ENDMDL
MODEL 8
REMARK VINA RESULT:      -7.8      6.673      8.931
REMARK  4 active torsions:
REMARK  status: ('A' for Active; 'I' for Inactive)
REMARK    1  A    between atoms: C2_2  and  C3_3 
REMARK    2  A    between atoms: C3_3  and  C4_4 
REMARK    3  A    between atoms: C17_20  and  C18_21 
REMARK    4  A    between atoms: C20_24  and  O2_25 
ROOT
HETATM    1  C4  UNL     1      27.835  10.904  48.173  1.00  0.00     0.046 C 
HETATM    2  N1  UNL     1      29.047  10.908  48.973  1.00  0.00    -0.308 N 
HETATM    3  C5  UNL     1      30.059   9.913  49.106  1.00  0.00     0.325 C 
HETATM    4  O1  UNL     1      30.888  10.111  50.009  1.00  0.00    -0.247 OA
HETATM    5  N2  UNL     1      30.301   8.718  48.383  1.00  0.00    -0.309 N 
HETATM    6  C6  UNL     1      30.026   8.384  46.999  1.00  0.00     0.059 C 
HETATM    7  C7  UNL     1      30.914   7.589  46.341  1.00  0.00     0.098 C 
HETATM    8  C8  UNL     1      30.922   8.300  45.012  1.00  0.00     0.036 C 
HETATM    9  C9  UNL     1      30.035   9.373  45.060  1.00  0.00    -0.008 C 
HETATM   10  C10 UNL     1      29.060   8.653  45.840  1.00  0.00     0.095 C 
HETATM   11  C11 UNL     1      27.773   9.089  46.296  1.00  0.00    -0.032 A 
HETATM   12  C12 UNL     1      26.851   8.281  45.646  1.00  0.00     0.010 A 
HETATM   13  C13 UNL     1      25.509   8.140  45.785  1.00  0.00     0.009 A 
HETATM   14  C14 UNL     1      25.520   9.082  46.767  1.00  0.00    -0.044 A 
HETATM   15  C15 UNL     1      25.900  10.015  47.650  1.00  0.00     0.022 A 
HETATM   16  C16 UNL     1      27.250   9.921  47.263  1.00  0.00    -0.001 A 
HETATM   17  C17 UNL     1      24.385   8.390  47.536  1.00  0.00     0.084 C 
HETATM   18  C19 UNL     1      24.984   7.124  48.088  1.00  0.00     0.025 C 
HETATM   19  C20 UNL     1      25.425   6.006  48.588  1.00  0.00     0.071 C 
HETATM   20  C22 UNL     1      26.564   5.171  48.838  1.00  0.00    -0.029 C 
HETATM   21  C23 UNL     1      26.024   3.992  49.555  1.00  0.00     0.051 C 
HETATM   22  C24 UNL     1      27.816   5.190  48.623  1.00  0.00     0.011 C 
HETATM   23  C25 UNL     1      28.997   5.829  48.097  1.00  0.00     0.025 C 
HETATM   24  C26 UNL     1      30.286   5.823  47.885  1.00  0.00     0.142 C 
HETATM   25  O3  UNL     1      31.231   6.646  47.308  1.00  0.00    -0.321 OA
HETATM   26  H5  UNL     1      29.196  11.770  49.539  1.00  0.00     0.170 HD
HETATM   27  H6  UNL     1      30.773   7.953  48.908  1.00  0.00     0.170 HD
ENDROOT
BRANCH   1  28
HETATM   28  C3  UNL     1      27.119  11.992  48.275  1.00  0.00     0.026 C 
BRANCH  28  29
HETATM   29  C2  UNL     1      26.734  13.368  48.230  1.00  0.00    -0.024 C 
HETATM   30  C1  UNL     1      25.886  14.327  47.940  1.00  0.00     0.031 C 
ENDBRANCH  28  29
ENDBRANCH   1  28
BRANCH  17  31
HETATM   31  C18 UNL     1      23.896   9.146  48.697  1.00  0.00     0.093 C 
HETATM   32  N3  UNL     1      23.091   8.868  49.647  1.00  0.00    -0.315 NA
HETATM   33  H15 UNL     1      22.612   7.943  49.729  1.00  0.00     0.185 HD
ENDBRANCH  17  31
BRANCH  19  34
HETATM   34  O2  UNL     1      24.085   5.921  48.824  1.00  0.00    -0.356 OA
HETATM   35  C21 UNL     1      23.152   5.161  48.113  1.00  0.00     0.210 C 
ENDBRANCH  19  34
TORSDOF 4
ENDMDL
MODEL 9
REMARK VINA RESULT:      -7.7      8.782     12.597
REMARK  4 active torsions:
REMARK  status: ('A' for Active; 'I' for Inactive)
REMARK    1  A    between atoms: C2_2  and  C3_3 
REMARK    2  A    between atoms: C3_3  and  C4_4 
REMARK    3  A    between atoms: C17_20  and  C18_21 
REMARK    4  A    between atoms: C20_24  and  O2_25 
ROOT
HETATM    1  C4  UNL     1      32.490   5.028  46.397  1.00  0.00     0.046 C 
HETATM    2  N1  UNL     1      32.914   4.810  45.026  1.00  0.00    -0.308 N 
HETATM    3  C5  UNL     1      32.970   5.719  43.929  1.00  0.00     0.325 C 
HETATM    4  O1  UNL     1      33.197   5.206  42.821  1.00  0.00    -0.247 OA
HETATM    5  N2  UNL     1      32.816   7.127  43.869  1.00  0.00    -0.309 N 
HETATM    6  C6  UNL     1      33.118   8.150  44.851  1.00  0.00     0.059 C 
HETATM    7  C7  UNL     1      33.589   9.347  44.407  1.00  0.00     0.098 C 
HETATM    8  C8  UNL     1      34.639   9.589  45.460  1.00  0.00     0.036 C 
HETATM    9  C9  UNL     1      34.623   8.539  46.375  1.00  0.00    -0.008 C 
HETATM   10  C10 UNL     1      33.186   8.423  46.357  1.00  0.00     0.095 C 
HETATM   11  C11 UNL     1      32.347   7.537  47.108  1.00  0.00    -0.032 A 
HETATM   12  C12 UNL     1      31.593   8.351  47.941  1.00  0.00     0.010 A 
HETATM   13  C13 UNL     1      30.546   8.089  48.765  1.00  0.00     0.009 A 
HETATM   14  C14 UNL     1      30.604   6.778  48.406  1.00  0.00    -0.044 A 
HETATM   15  C15 UNL     1      30.951   5.611  47.845  1.00  0.00     0.022 A 
HETATM   16  C16 UNL     1      31.990   6.204  47.106  1.00  0.00    -0.001 A 
HETATM   17  C17 UNL     1      29.080   6.612  48.517  1.00  0.00     0.084 C 
HETATM   18  C19 UNL     1      28.503   7.393  47.366  1.00  0.00     0.025 C 
HETATM   19  C20 UNL     1      27.929   8.056  46.405  1.00  0.00     0.071 C 
HETATM   20  C22 UNL     1      28.103   8.800  45.191  1.00  0.00    -0.029 C 
HETATM   21  C23 UNL     1      26.732   9.171  44.769  1.00  0.00     0.051 C 
HETATM   22  C24 UNL     1      29.057   9.183  44.445  1.00  0.00     0.011 C 
HETATM   23  C25 UNL     1      30.463   9.254  44.129  1.00  0.00     0.025 C 
HETATM   24  C26 UNL     1      31.427   9.661  43.347  1.00  0.00     0.142 C 
HETATM   25  O3  UNL     1      32.802   9.571  43.286  1.00  0.00    -0.321 OA
HETATM   26  H5  UNL     1      33.221   3.838  44.811  1.00  0.00     0.170 HD
HETATM   27  H6  UNL     1      32.447   7.508  42.973  1.00  0.00     0.170 HD
ENDROOT
BRANCH   1  28
HETATM   28  C3  UNL     1      32.570   3.971  47.160  1.00  0.00     0.026 C 
BRANCH  28  29
HETATM   29  C2  UNL     1      33.050   2.760  47.750  1.00  0.00    -0.024 C 
HETATM   30  C1  UNL     1      32.914   1.498  48.085  1.00  0.00     0.031 C 
ENDBRANCH  28  29
ENDBRANCH   1  28
BRANCH  17  31
HETATM   31  C18 UNL     1      28.610   5.231  48.344  1.00  0.00     0.093 C 
HETATM   32  N3  UNL     1      27.726   4.525  48.935  1.00  0.00    -0.315 NA
HETATM   33  H15 UNL     1      27.148   4.891  49.725  1.00  0.00     0.185 HD
ENDBRANCH  17  31
BRANCH  19  34
HETATM   34  O2  UNL     1      26.869   7.694  47.181  1.00  0.00    -0.356 OA
HETATM   35  C21 UNL     1      26.213   8.482  48.130  1.00  0.00     0.210 C 
ENDBRANCH  19  34
TORSDOF 4
ENDMDL
