MODEL 1
REMARK VINA RESULT:      -9.4      0.000      0.000
REMARK  4 active torsions:
REMARK  status: ('A' for Active; 'I' for Inactive)
REMARK    1  A    between atoms: C6_7  and  N2_8 
REMARK    2  A    between atoms: C8_10  and  C9_11 
REMARK    3  A    between atoms: C13_15  and  O1_16 
REMARK    4  A    between atoms: C16_19  and  N3_20 
ROOT
HETATM    1  N2  UNL     1      23.366   0.823  52.045  1.00  0.00    -0.335 N 
HETATM    2  C7  UNL     1      24.693   0.812  52.041  1.00  0.00     0.106 A 
HETATM    3  C8  UNL     1      25.171   0.110  53.155  1.00  0.00     0.007 A 
HETATM    4  C15 UNL     1      24.025  -0.279  53.794  1.00  0.00     0.062 A 
HETATM    5  C16 UNL     1      23.974  -1.005  54.963  1.00  0.00     0.117 A 
HETATM    6  N4  UNL     1      22.749  -1.302  55.462  1.00  0.00    -0.229 NA
HETATM    7  C17 UNL     1      21.640  -0.892  54.823  1.00  0.00     0.237 A 
HETATM    8  N5  UNL     1      21.742  -0.183  53.682  1.00  0.00    -0.223 NA
HETATM    9  C18 UNL     1      22.912   0.154  53.119  1.00  0.00     0.145 A 
ENDROOT
BRANCH   1  10
HETATM   10  C6  UNL     1      22.493   1.440  51.072  1.00  0.00     0.097 C 
HETATM   11  C5  UNL     1      23.182   1.939  49.829  1.00  0.00     0.031 C 
HETATM   12  C4  UNL     1      22.144   3.066  49.853  1.00  0.00    -0.003 C 
HETATM   13  C3  UNL     1      22.638   4.372  49.332  1.00  0.00     0.035 C 
HETATM   14  C19 UNL     1      22.175   2.915  51.349  1.00  0.00     0.041 C 
HETATM   15  C2  UNL     1      23.695   5.016  50.164  1.00  0.00     0.272 C 
HETATM   16  N1  UNL     1      23.429   4.946  51.582  1.00  0.00     0.084 N 
HETATM   17  C1  UNL     1      22.259   5.711  51.953  1.00  0.00     0.309 C 
HETATM   18  C20 UNL     1      23.336   3.573  52.012  1.00  0.00     0.279 C 
ENDBRANCH   1  10
BRANCH   3  19
HETATM   19  C9  UNL     1      26.608  -0.045  53.339  1.00  0.00    -0.021 A 
HETATM   20  C10 UNL     1      27.418  -1.089  53.031  1.00  0.00     0.012 A 
HETATM   21  C11 UNL     1      28.770  -1.062  53.295  1.00  0.00     0.004 A 
HETATM   22  C12 UNL     1      29.368   0.030  53.888  1.00  0.00     0.036 A 
HETATM   23  C13 UNL     1      28.599   1.102  54.215  1.00  0.00     0.066 A 
HETATM   24  C14 UNL     1      27.250   1.047  53.939  1.00  0.00     0.049 A 
BRANCH  23  25
HETATM   25  O1  UNL     1      29.165   2.220  54.812  1.00  0.00    -0.361 OA
HETATM   26  H16 UNL     1      28.813   2.633  55.666  1.00  0.00     0.217 HD
ENDBRANCH  23  25
ENDBRANCH   3  19
BRANCH   5  27
HETATM   27  N3  UNL     1      25.126  -1.446  55.669  1.00  0.00    -0.286 NA
HETATM   28  H18 UNL     1      24.871  -1.945  56.543  1.00  0.00     0.125 HD
HETATM   29  H19 UNL     1      25.345  -1.969  56.562  1.00  0.00     0.125 HD
ENDBRANCH   5  27
TORSDOF 4
ENDMDL
MODEL 2
REMARK VINA RESULT:      -8.5      1.622      1.998
REMARK  4 active torsions:
REMARK  status: ('A' for Active; 'I' for Inactive)
REMARK    1  A    between atoms: C6_7  and  N2_8 
REMARK    2  A    between atoms: C8_10  and  C9_11 
REMARK    3  A    between atoms: C13_15  and  O1_16 
REMARK    4  A    between atoms: C16_19  and  N3_20 
ROOT
HETATM    1  N2  UNL     1      23.416   1.796  51.186  1.00  0.00    -0.335 N 
HETATM    2  C7  UNL     1      24.705   1.531  51.359  1.00  0.00     0.106 A 
HETATM    3  C8  UNL     1      24.878   0.710  52.481  1.00  0.00     0.007 A 
HETATM    4  C15 UNL     1      23.601   0.526  52.934  1.00  0.00     0.062 A 
HETATM    5  C16 UNL     1      23.248  -0.219  54.037  1.00  0.00     0.117 A 
HETATM    6  N4  UNL     1      21.931  -0.293  54.347  1.00  0.00    -0.229 NA
HETATM    7  C17 UNL     1      21.020   0.346  53.593  1.00  0.00     0.237 A 
HETATM    8  N5  UNL     1      21.416   1.063  52.522  1.00  0.00    -0.223 NA
HETATM    9  C18 UNL     1      22.696   1.189  52.144  1.00  0.00     0.145 A 
ENDROOT
BRANCH   1  10
HETATM   10  C6  UNL     1      22.822   2.605  50.145  1.00  0.00     0.097 C 
HETATM   11  C5  UNL     1      23.742   2.943  49.001  1.00  0.00     0.031 C 
HETATM   12  C4  UNL     1      22.990   4.278  48.950  1.00  0.00    -0.003 C 
HETATM   13  C3  UNL     1      23.822   5.441  48.530  1.00  0.00     0.035 C 
HETATM   14  C19 UNL     1      22.816   4.112  50.435  1.00  0.00     0.041 C 
HETATM   15  C2  UNL     1      24.896   5.818  49.494  1.00  0.00     0.272 C 
HETATM   16  N1  UNL     1      24.462   5.800  50.872  1.00  0.00     0.084 N 
HETATM   17  C1  UNL     1      23.461   6.809  51.139  1.00  0.00     0.309 C 
HETATM   18  C20 UNL     1      24.013   4.481  51.243  1.00  0.00     0.279 C 
ENDBRANCH   1  10
BRANCH   3  19
HETATM   19  C9  UNL     1      26.220   0.276  52.846  1.00  0.00    -0.021 A 
HETATM   20  C10 UNL     1      27.261   0.991  53.343  1.00  0.00     0.012 A 
HETATM   21  C11 UNL     1      28.478   0.405  53.620  1.00  0.00     0.004 A 
HETATM   22  C12 UNL     1      28.698  -0.939  53.404  1.00  0.00     0.036 A 
HETATM   23  C13 UNL     1      27.686  -1.699  52.907  1.00  0.00     0.066 A 
HETATM   24  C14 UNL     1      26.480  -1.086  52.640  1.00  0.00     0.049 A 
BRANCH  23  25
HETATM   25  O1  UNL     1      27.869  -3.054  52.678  1.00  0.00    -0.361 OA
HETATM   26  H16 UNL     1      28.530  -3.622  53.192  1.00  0.00     0.217 HD
ENDBRANCH  23  25
ENDBRANCH   3  19
BRANCH   5  27
HETATM   27  N3  UNL     1      24.186  -0.898  54.863  1.00  0.00    -0.286 NA
HETATM   28  H18 UNL     1      23.997  -1.919  54.895  1.00  0.00     0.125 HD
HETATM   29  H19 UNL     1      24.378  -1.890  55.178  1.00  0.00     0.125 HD
ENDBRANCH   5  27
TORSDOF 4
ENDMDL
MODEL 3
REMARK VINA RESULT:      -8.2      2.773      4.693
REMARK  4 active torsions:
REMARK  status: ('A' for Active; 'I' for Inactive)
REMARK    1  A    between atoms: C6_7  and  N2_8 
REMARK    2  A    between atoms: C8_10  and  C9_11 
REMARK    3  A    between atoms: C13_15  and  O1_16 
REMARK    4  A    between atoms: C16_19  and  N3_20 
ROOT
HETATM    1  N2  UNL     1      25.592   2.128  51.225  1.00  0.00    -0.335 N 
HETATM    2  C7  UNL     1      24.502   1.498  51.644  1.00  0.00     0.106 A 
HETATM    3  C8  UNL     1      24.744   0.900  52.888  1.00  0.00     0.007 A 
HETATM    4  C15 UNL     1      26.046   1.232  53.147  1.00  0.00     0.062 A 
HETATM    5  C16 UNL     1      26.752   0.865  54.271  1.00  0.00     0.117 A 
HETATM    6  N4  UNL     1      28.038   1.281  54.366  1.00  0.00    -0.229 NA
HETATM    7  C17 UNL     1      28.585   2.022  53.386  1.00  0.00     0.237 A 
HETATM    8  N5  UNL     1      27.852   2.355  52.305  1.00  0.00    -0.223 NA
HETATM    9  C18 UNL     1      26.574   1.988  52.131  1.00  0.00     0.145 A 
ENDROOT
BRANCH   1  10
HETATM   10  C6  UNL     1      25.755   2.869  49.993  1.00  0.00     0.097 C 
HETATM   11  C5  UNL     1      26.741   4.005  50.062  1.00  0.00     0.031 C 
HETATM   12  C4  UNL     1      25.800   4.720  49.085  1.00  0.00    -0.003 C 
HETATM   13  C3  UNL     1      25.745   6.200  49.250  1.00  0.00     0.035 C 
HETATM   14  C19 UNL     1      24.695   3.954  49.759  1.00  0.00     0.041 C 
HETATM   15  C2  UNL     1      25.139   6.661  50.533  1.00  0.00     0.272 C 
HETATM   16  N1  UNL     1      23.952   5.927  50.902  1.00  0.00     0.084 N 
HETATM   17  C1  UNL     1      22.867   6.144  49.970  1.00  0.00     0.309 C 
HETATM   18  C20 UNL     1      24.253   4.526  51.062  1.00  0.00     0.279 C 
ENDBRANCH   1  10
BRANCH   3  19
HETATM   19  C9  UNL     1      23.672   0.168  53.548  1.00  0.00    -0.021 A 
HETATM   20  C10 UNL     1      23.731  -0.916  54.364  1.00  0.00     0.012 A 
HETATM   21  C11 UNL     1      22.594  -1.490  54.892  1.00  0.00     0.004 A 
HETATM   22  C12 UNL     1      21.338  -0.991  54.617  1.00  0.00     0.036 A 
HETATM   23  C13 UNL     1      21.227   0.094  53.805  1.00  0.00     0.066 A 
HETATM   24  C14 UNL     1      22.380   0.648  53.292  1.00  0.00     0.049 A 
BRANCH  23  25
HETATM   25  O1  UNL     1      19.980   0.625  53.506  1.00  0.00    -0.361 OA
HETATM   26  H16 UNL     1      19.141   0.403  54.025  1.00  0.00     0.217 HD
ENDBRANCH  23  25
ENDBRANCH   3  19
BRANCH   5  27
HETATM   27  N3  UNL     1      26.209   0.074  55.320  1.00  0.00    -0.286 NA
HETATM   28  H18 UNL     1      25.812  -0.816  54.961  1.00  0.00     0.125 HD
HETATM   29  H19 UNL     1      25.725  -0.861  55.426  1.00  0.00     0.125 HD
ENDBRANCH   5  27
TORSDOF 4
ENDMDL
MODEL 4
REMARK VINA RESULT:      -7.9      2.462      4.468
REMARK  4 active torsions:
REMARK  status: ('A' for Active; 'I' for Inactive)
REMARK    1  A    between atoms: C6_7  and  N2_8 
REMARK    2  A    between atoms: C8_10  and  C9_11 
REMARK    3  A    between atoms: C13_15  and  O1_16 
REMARK    4  A    between atoms: C16_19  and  N3_20 
ROOT
HETATM    1  N2  UNL     1      22.734   2.953  52.167  1.00  0.00    -0.335 N 
HETATM    2  C7  UNL     1      23.490   1.957  52.612  1.00  0.00     0.106 A 
HETATM    3  C8  UNL     1      24.806   2.114  52.157  1.00  0.00     0.007 A 
HETATM    4  C15 UNL     1      24.747   3.267  51.422  1.00  0.00     0.062 A 
HETATM    5  C16 UNL     1      25.808   3.842  50.759  1.00  0.00     0.117 A 
HETATM    6  N4  UNL     1      25.572   4.987  50.074  1.00  0.00    -0.229 NA
HETATM    7  C17 UNL     1      24.339   5.524  50.056  1.00  0.00     0.237 A 
HETATM    8  N5  UNL     1      23.333   4.923  50.721  1.00  0.00    -0.223 NA
HETATM    9  C18 UNL     1      23.479   3.790  51.423  1.00  0.00     0.145 A 
ENDROOT
BRANCH   1  10
HETATM   10  C6  UNL     1      21.324   3.158  52.412  1.00  0.00     0.097 C 
HETATM   11  C5  UNL     1      20.565   1.923  52.820  1.00  0.00     0.031 C 
HETATM   12  C4  UNL     1      19.396   2.529  52.035  1.00  0.00    -0.003 C 
HETATM   13  C3  UNL     1      18.510   1.528  51.376  1.00  0.00     0.035 C 
HETATM   14  C19 UNL     1      20.449   3.140  51.151  1.00  0.00     0.041 C 
HETATM   15  C2  UNL     1      19.153   0.757  50.273  1.00  0.00     0.272 C 
HETATM   16  N1  UNL     1      19.965   1.574  49.401  1.00  0.00     0.084 N 
HETATM   17  C1  UNL     1      19.172   2.534  48.664  1.00  0.00     0.309 C 
HETATM   18  C20 UNL     1      21.027   2.206  50.143  1.00  0.00     0.279 C 
ENDBRANCH   1  10
BRANCH   3  19
HETATM   19  C9  UNL     1      25.816   1.139  52.545  1.00  0.00    -0.021 A 
HETATM   20  C10 UNL     1      26.041  -0.115  52.078  1.00  0.00     0.012 A 
HETATM   21  C11 UNL     1      27.048  -0.908  52.583  1.00  0.00     0.004 A 
HETATM   22  C12 UNL     1      27.880  -0.466  53.591  1.00  0.00     0.036 A 
HETATM   23  C13 UNL     1      27.695   0.784  54.093  1.00  0.00     0.066 A 
HETATM   24  C14 UNL     1      26.679   1.555  53.568  1.00  0.00     0.049 A 
BRANCH  23  25
HETATM   25  O1  UNL     1      28.511   1.264  55.106  1.00  0.00    -0.361 OA
HETATM   26  H16 UNL     1      28.205   1.941  55.794  1.00  0.00     0.217 HD
ENDBRANCH  23  25
ENDBRANCH   3  19
BRANCH   5  27
HETATM   27  N3  UNL     1      27.121   3.296  50.748  1.00  0.00    -0.286 NA
HETATM   28  H18 UNL     1      27.202   2.509  50.075  1.00  0.00     0.125 HD
HETATM   29  H19 UNL     1      27.644   2.524  50.248  1.00  0.00     0.125 HD
ENDBRANCH   5  27
TORSDOF 4
ENDMDL
MODEL 5
REMARK VINA RESULT:      -7.6      1.684      2.586
REMARK  4 active torsions:
REMARK  status: ('A' for Active; 'I' for Inactive)
REMARK    1  A    between atoms: C6_7  and  N2_8 
REMARK    2  A    between atoms: C8_10  and  C9_11 
REMARK    3  A    between atoms: C13_15  and  O1_16 
REMARK    4  A    between atoms: C16_19  and  N3_20 
ROOT
HETATM    1  N2  UNL     1      23.350   3.448  52.438  1.00  0.00    -0.335 N 
HETATM    2  C7  UNL     1      24.559   2.914  52.561  1.00  0.00     0.106 A 
HETATM    3  C8  UNL     1      24.452   1.540  52.812  1.00  0.00     0.007 A 
HETATM    4  C15 UNL     1      23.101   1.329  52.824  1.00  0.00     0.062 A 
HETATM    5  C16 UNL     1      22.488   0.114  53.040  1.00  0.00     0.117 A 
HETATM    6  N4  UNL     1      21.133   0.085  53.020  1.00  0.00    -0.229 NA
HETATM    7  C17 UNL     1      20.434   1.212  52.798  1.00  0.00     0.237 A 
HETATM    8  N5  UNL     1      21.080   2.376  52.592  1.00  0.00    -0.223 NA
HETATM    9  C18 UNL     1      22.416   2.495  52.594  1.00  0.00     0.145 A 
ENDROOT
BRANCH   1  10
HETATM   10  C6  UNL     1      23.029   4.833  52.176  1.00  0.00     0.097 C 
HETATM   11  C5  UNL     1      21.887   5.049  51.217  1.00  0.00     0.031 C 
HETATM   12  C4  UNL     1      22.669   6.283  50.753  1.00  0.00    -0.003 C 
HETATM   13  C3  UNL     1      22.508   6.609  49.307  1.00  0.00     0.035 C 
HETATM   14  C19 UNL     1      23.903   5.497  51.103  1.00  0.00     0.041 C 
HETATM   15  C2  UNL     1      23.090   5.602  48.373  1.00  0.00     0.272 C 
HETATM   16  N1  UNL     1      24.388   5.121  48.785  1.00  0.00     0.084 N 
HETATM   17  C1  UNL     1      25.389   6.165  48.751  1.00  0.00     0.309 C 
HETATM   18  C20 UNL     1      24.307   4.492  50.079  1.00  0.00     0.279 C 
ENDBRANCH   1  10
BRANCH   3  19
HETATM   19  C9  UNL     1      25.664   0.746  52.962  1.00  0.00    -0.021 A 
HETATM   20  C10 UNL     1      26.060  -0.371  52.300  1.00  0.00     0.012 A 
HETATM   21  C11 UNL     1      27.250  -1.004  52.591  1.00  0.00     0.004 A 
HETATM   22  C12 UNL     1      28.098  -0.532  53.570  1.00  0.00     0.036 A 
HETATM   23  C13 UNL     1      27.746   0.585  54.261  1.00  0.00     0.066 A 
HETATM   24  C14 UNL     1      26.551   1.196  53.949  1.00  0.00     0.049 A 
BRANCH  23  25
HETATM   25  O1  UNL     1      28.574   1.090  55.254  1.00  0.00    -0.361 OA
HETATM   26  H16 UNL     1      29.475   0.691  55.484  1.00  0.00     0.217 HD
ENDBRANCH  23  25
ENDBRANCH   3  19
BRANCH   5  27
HETATM   27  N3  UNL     1      23.195  -1.094  53.288  1.00  0.00    -0.286 NA
HETATM   28  H18 UNL     1      23.830  -1.333  52.502  1.00  0.00     0.125 HD
HETATM   29  H19 UNL     1      23.912  -1.696  52.796  1.00  0.00     0.125 HD
ENDBRANCH   5  27
TORSDOF 4
ENDMDL
MODEL 6
REMARK VINA RESULT:      -7.3      2.958      5.120
REMARK  4 active torsions:
REMARK  status: ('A' for Active; 'I' for Inactive)
REMARK    1  A    between atoms: C6_7  and  N2_8 
REMARK    2  A    between atoms: C8_10  and  C9_11 
REMARK    3  A    between atoms: C13_15  and  O1_16 
REMARK    4  A    between atoms: C16_19  and  N3_20 
ROOT
HETATM    1  N2  UNL     1      24.603   2.610  50.584  1.00  0.00    -0.335 N 
HETATM    2  C7  UNL     1      23.430   2.121  50.967  1.00  0.00     0.106 A 
HETATM    3  C8  UNL     1      23.599   1.287  52.080  1.00  0.00     0.007 A 
HETATM    4  C15 UNL     1      24.947   1.335  52.304  1.00  0.00     0.062 A 
HETATM    5  C16 UNL     1      25.611   0.662  53.307  1.00  0.00     0.117 A 
HETATM    6  N4  UNL     1      26.954   0.820  53.383  1.00  0.00    -0.229 NA
HETATM    7  C17 UNL     1      27.595   1.608  52.502  1.00  0.00     0.237 A 
HETATM    8  N5  UNL     1      26.901   2.245  51.538  1.00  0.00    -0.223 NA
HETATM    9  C18 UNL     1      25.572   2.145  51.391  1.00  0.00     0.145 A 
ENDROOT
BRANCH   1  10
HETATM   10  C6  UNL     1      24.858   3.507  49.479  1.00  0.00     0.097 C 
HETATM   11  C5  UNL     1      26.106   4.341  49.614  1.00  0.00     0.031 C 
HETATM   12  C4  UNL     1      25.310   5.430  48.886  1.00  0.00    -0.003 C 
HETATM   13  C3  UNL     1      25.651   6.822  49.297  1.00  0.00     0.035 C 
HETATM   14  C19 UNL     1      24.099   4.839  49.553  1.00  0.00     0.041 C 
HETATM   15  C2  UNL     1      25.281   7.166  50.700  1.00  0.00     0.272 C 
HETATM   16  N1  UNL     1      23.975   6.682  51.083  1.00  0.00     0.084 N 
HETATM   17  C1  UNL     1      22.917   7.324  50.335  1.00  0.00     0.309 C 
HETATM   18  C20 UNL     1      23.917   5.245  50.976  1.00  0.00     0.279 C 
ENDBRANCH   1  10
BRANCH   3  19
HETATM   19  C9  UNL     1      22.432   0.657  52.682  1.00  0.00    -0.021 A 
HETATM   20  C10 UNL     1      22.269   0.132  53.923  1.00  0.00     0.012 A 
HETATM   21  C11 UNL     1      21.081  -0.445  54.318  1.00  0.00     0.004 A 
HETATM   22  C12 UNL     1      19.996  -0.518  53.469  1.00  0.00     0.036 A 
HETATM   23  C13 UNL     1      20.109  -0.006  52.214  1.00  0.00     0.066 A 
HETATM   24  C14 UNL     1      21.310   0.565  51.847  1.00  0.00     0.049 A 
BRANCH  23  25
HETATM   25  O1  UNL     1      19.040  -0.060  51.332  1.00  0.00    -0.361 OA
HETATM   26  H16 UNL     1      18.225   0.534  51.408  1.00  0.00     0.217 HD
ENDBRANCH  23  25
ENDBRANCH   3  19
BRANCH   5  27
HETATM   27  N3  UNL     1      24.966  -0.186  54.248  1.00  0.00    -0.286 NA
HETATM   28  H18 UNL     1      25.550  -1.013  54.480  1.00  0.00     0.125 HD
HETATM   29  H19 UNL     1      25.169  -1.094  54.751  1.00  0.00     0.125 HD
ENDBRANCH   5  27
TORSDOF 4
ENDMDL
MODEL 7
REMARK VINA RESULT:      -7.2      2.731      4.854
REMARK  4 active torsions:
REMARK  status: ('A' for Active; 'I' for Inactive)
REMARK    1  A    between atoms: C6_7  and  N2_8 
REMARK    2  A    between atoms: C8_10  and  C9_11 
REMARK    3  A    between atoms: C13_15  and  O1_16 
REMARK    4  A    between atoms: C16_19  and  N3_20 
ROOT
HETATM    1  N2  UNL     1      24.856   2.572  51.570  1.00  0.00    -0.335 N 
HETATM    2  C7  UNL     1      23.774   1.916  51.970  1.00  0.00     0.106 A 
HETATM    3  C8  UNL     1      24.132   0.907  52.874  1.00  0.00     0.007 A 
HETATM    4  C15 UNL     1      25.491   1.033  52.960  1.00  0.00     0.062 A 
HETATM    5  C16 UNL     1      26.315   0.247  53.736  1.00  0.00     0.117 A 
HETATM    6  N4  UNL     1      27.644   0.508  53.700  1.00  0.00    -0.229 NA
HETATM    7  C17 UNL     1      28.119   1.502  52.929  1.00  0.00     0.237 A 
HETATM    8  N5  UNL     1      27.272   2.243  52.188  1.00  0.00    -0.223 NA
HETATM    9  C18 UNL     1      25.945   2.053  52.164  1.00  0.00     0.145 A 
ENDROOT
BRANCH   1  10
HETATM   10  C6  UNL     1      24.914   3.680  50.643  1.00  0.00     0.097 C 
HETATM   11  C5  UNL     1      23.887   4.757  50.877  1.00  0.00     0.031 C 
HETATM   12  C4  UNL     1      23.875   4.906  49.351  1.00  0.00    -0.003 C 
HETATM   13  C3  UNL     1      22.554   5.293  48.779  1.00  0.00     0.035 C 
HETATM   14  C19 UNL     1      24.188   3.435  49.313  1.00  0.00     0.041 C 
HETATM   15  C2  UNL     1      21.488   4.260  48.917  1.00  0.00     0.272 C 
HETATM   16  N1  UNL     1      21.948   2.921  48.631  1.00  0.00     0.084 N 
HETATM   17  C1  UNL     1      22.330   2.763  47.244  1.00  0.00     0.309 C 
HETATM   18  C20 UNL     1      23.011   2.547  49.530  1.00  0.00     0.279 C 
ENDBRANCH   1  10
BRANCH   3  19
HETATM   19  C9  UNL     1      23.092   0.071  53.459  1.00  0.00    -0.021 A 
HETATM   20  C10 UNL     1      23.172  -0.854  54.449  1.00  0.00     0.012 A 
HETATM   21  C11 UNL     1      22.070  -1.567  54.868  1.00  0.00     0.004 A 
HETATM   22  C12 UNL     1      20.828  -1.376  54.300  1.00  0.00     0.036 A 
HETATM   23  C13 UNL     1      20.695  -0.460  53.304  1.00  0.00     0.066 A 
HETATM   24  C14 UNL     1      21.815   0.239  52.906  1.00  0.00     0.049 A 
BRANCH  23  25
HETATM   25  O1  UNL     1      19.462  -0.240  52.708  1.00  0.00    -0.361 OA
HETATM   26  H16 UNL     1      18.666   0.145  53.201  1.00  0.00     0.217 HD
ENDBRANCH  23  25
ENDBRANCH   3  19
BRANCH   5  27
HETATM   27  N3  UNL     1      25.848  -0.818  54.554  1.00  0.00    -0.286 NA
HETATM   28  H18 UNL     1      25.760  -0.526  55.547  1.00  0.00     0.125 HD
HETATM   29  H19 UNL     1      25.618  -0.979  55.574  1.00  0.00     0.125 HD
ENDBRANCH   5  27
TORSDOF 4
ENDMDL
MODEL 8
REMARK VINA RESULT:      -7.1      6.753     10.061
REMARK  4 active torsions:
REMARK  status: ('A' for Active; 'I' for Inactive)
REMARK    1  A    between atoms: C6_7  and  N2_8 
REMARK    2  A    between atoms: C8_10  and  C9_11 
REMARK    3  A    between atoms: C13_15  and  O1_16 
REMARK    4  A    between atoms: C16_19  and  N3_20 
ROOT
HETATM    1  N2  UNL     1      27.790   8.513  46.970  1.00  0.00    -0.335 N 
HETATM    2  C7  UNL     1      26.599   8.255  47.498  1.00  0.00     0.106 A 
HETATM    3  C8  UNL     1      26.631   7.027  48.173  1.00  0.00     0.007 A 
HETATM    4  C15 UNL     1      27.919   6.604  47.993  1.00  0.00     0.062 A 
HETATM    5  C16 UNL     1      28.444   5.426  48.476  1.00  0.00     0.117 A 
HETATM    6  N4  UNL     1      29.744   5.161  48.201  1.00  0.00    -0.229 NA
HETATM    7  C17 UNL     1      30.475   6.030  47.481  1.00  0.00     0.237 A 
HETATM    8  N5  UNL     1      29.915   7.170  47.030  1.00  0.00    -0.223 NA
HETATM    9  C18 UNL     1      28.638   7.510  47.256  1.00  0.00     0.145 A 
ENDROOT
BRANCH   1  10
HETATM   10  C6  UNL     1      28.171   9.675  46.199  1.00  0.00     0.097 C 
HETATM   11  C5  UNL     1      29.655   9.917  46.109  1.00  0.00     0.031 C 
HETATM   12  C4  UNL     1      29.290  11.406  46.124  1.00  0.00    -0.003 C 
HETATM   13  C3  UNL     1      30.293  12.281  46.795  1.00  0.00     0.035 C 
HETATM   14  C19 UNL     1      28.118  10.998  46.975  1.00  0.00     0.041 C 
HETATM   15  C2  UNL     1      30.428  12.062  48.264  1.00  0.00     0.272 C 
HETATM   16  N1  UNL     1      29.160  11.900  48.938  1.00  0.00     0.084 N 
HETATM   17  C1  UNL     1      28.364  13.106  48.893  1.00  0.00     0.309 C 
HETATM   18  C20 UNL     1      28.448  10.763  48.409  1.00  0.00     0.279 C 
ENDBRANCH   1  10
BRANCH   3  19
HETATM   19  C9  UNL     1      25.430   6.555  48.850  1.00  0.00    -0.021 A 
HETATM   20  C10 UNL     1      24.353   5.896  48.352  1.00  0.00     0.012 A 
HETATM   21  C11 UNL     1      23.289   5.536  49.151  1.00  0.00     0.004 A 
HETATM   22  C12 UNL     1      23.266   5.830  50.499  1.00  0.00     0.036 A 
HETATM   23  C13 UNL     1      24.322   6.489  51.045  1.00  0.00     0.066 A 
HETATM   24  C14 UNL     1      25.372   6.836  50.222  1.00  0.00     0.049 A 
BRANCH  23  25
HETATM   25  O1  UNL     1      24.336   6.801  52.397  1.00  0.00    -0.361 OA
HETATM   26  H16 UNL     1      24.832   6.256  53.090  1.00  0.00     0.217 HD
ENDBRANCH  23  25
ENDBRANCH   3  19
BRANCH   5  27
HETATM   27  N3  UNL     1      27.697   4.481  49.232  1.00  0.00    -0.286 NA
HETATM   28  H18 UNL     1      28.147   3.545  49.225  1.00  0.00     0.125 HD
HETATM   29  H19 UNL     1      27.765   3.458  49.493  1.00  0.00     0.125 HD
ENDBRANCH   5  27
TORSDOF 4
ENDMDL
MODEL 9
REMARK VINA RESULT:      -7.1      9.735     12.508
REMARK  4 active torsions:
REMARK  status: ('A' for Active; 'I' for Inactive)
REMARK    1  A    between atoms: C6_7  and  N2_8 
REMARK    2  A    between atoms: C8_10  and  C9_11 
REMARK    3  A    between atoms: C13_15  and  O1_16 
REMARK    4  A    between atoms: C16_19  and  N3_20 
ROOT
HETATM    1  N2  UNL     1      32.386   8.627  47.127  1.00  0.00    -0.335 N 
HETATM    2  C7  UNL     1      31.148   9.077  47.288  1.00  0.00     0.106 A 
HETATM    3  C8  UNL     1      30.345   8.078  47.855  1.00  0.00     0.007 A 
HETATM    4  C15 UNL     1      31.210   7.029  48.005  1.00  0.00     0.062 A 
HETATM    5  C16 UNL     1      30.883   5.797  48.526  1.00  0.00     0.117 A 
HETATM    6  N4  UNL     1      31.867   4.868  48.600  1.00  0.00    -0.229 NA
HETATM    7  C17 UNL     1      33.108   5.159  48.173  1.00  0.00     0.237 A 
HETATM    8  N5  UNL     1      33.378   6.380  47.670  1.00  0.00    -0.223 NA
HETATM    9  C18 UNL     1      32.466   7.357  47.561  1.00  0.00     0.145 A 
ENDROOT
BRANCH   1  10
HETATM   10  C6  UNL     1      33.514   9.346  46.577  1.00  0.00     0.097 C 
HETATM   11  C5  UNL     1      33.183  10.696  45.998  1.00  0.00     0.031 C 
HETATM   12  C4  UNL     1      34.279  10.389  44.971  1.00  0.00    -0.003 C 
HETATM   13  C3  UNL     1      34.035  10.962  43.617  1.00  0.00     0.035 C 
HETATM   14  C19 UNL     1      33.883   8.948  45.142  1.00  0.00     0.041 C 
HETATM   15  C2  UNL     1      32.871  10.376  42.893  1.00  0.00     0.272 C 
HETATM   16  N1  UNL     1      32.787   8.939  43.009  1.00  0.00     0.084 N 
HETATM   17  C1  UNL     1      33.899   8.277  42.361  1.00  0.00     0.309 C 
HETATM   18  C20 UNL     1      32.658   8.550  44.391  1.00  0.00     0.279 C 
ENDBRANCH   1  10
BRANCH   3  19
HETATM   19  C9  UNL     1      28.945   8.364  48.139  1.00  0.00    -0.021 A 
HETATM   20  C10 UNL     1      27.845   8.184  47.365  1.00  0.00     0.012 A 
HETATM   21  C11 UNL     1      26.585   8.531  47.803  1.00  0.00     0.004 A 
HETATM   22  C12 UNL     1      26.379   9.081  49.051  1.00  0.00     0.036 A 
HETATM   23  C13 UNL     1      27.450   9.282  49.864  1.00  0.00     0.066 A 
HETATM   24  C14 UNL     1      28.699   8.924  49.400  1.00  0.00     0.049 A 
BRANCH  23  25
HETATM   25  O1  UNL     1      27.284   9.832  51.127  1.00  0.00    -0.361 OA
HETATM   26  H16 UNL     1      27.125   9.279  51.959  1.00  0.00     0.217 HD
ENDBRANCH  23  25
ENDBRANCH   3  19
BRANCH   5  27
HETATM   27  N3  UNL     1      29.579   5.452  48.977  1.00  0.00    -0.286 NA
HETATM   28  H18 UNL     1      29.613   4.900  49.855  1.00  0.00     0.125 HD
HETATM   29  H19 UNL     1      29.144   4.923  49.783  1.00  0.00     0.125 HD
ENDBRANCH   5  27
TORSDOF 4
ENDMDL
