MODEL 1
REMARK VINA RESULT:      -8.9      0.000      0.000
REMARK  0 active torsions:
REMARK  status: ('A' for Active; 'I' for Inactive)
ROOT
HETATM    1  C1  UNL     1      26.380   1.395  50.957  1.00  0.00     0.019 C 
HETATM    2  C2  UNL     1      25.729   2.573  51.563  1.00  0.00    -0.002 C 
HETATM    3  C3  UNL     1      25.997   3.425  50.558  1.00  0.00     0.027 C 
HETATM    4  C4  UNL     1      25.970   4.723  49.872  1.00  0.00    -0.023 C 
HETATM    5  C5  UNL     1      25.634   6.015  49.790  1.00  0.00    -0.011 C 
HETATM    6  C6  UNL     1      24.946   7.088  50.513  1.00  0.00     0.148 C 
HETATM    7  N1  UNL     1      24.367   6.701  51.789  1.00  0.00    -0.369 N 
HETATM    8  C7  UNL     1      23.312   5.709  51.735  1.00  0.00     0.156 A 
HETATM    9  N2  UNL     1      22.328   6.240  51.026  1.00  0.00    -0.222 NA
HETATM   10  C8  UNL     1      21.220   5.477  50.804  1.00  0.00     0.238 A 
HETATM   11  N3  UNL     1      21.122   4.209  51.293  1.00  0.00    -0.215 NA
HETATM   12  C9  UNL     1      22.160   3.724  52.011  1.00  0.00     0.202 A 
HETATM   13  C10 UNL     1      23.313   4.422  52.284  1.00  0.00     0.129 A 
HETATM   14  N4  UNL     1      24.422   3.928  53.060  1.00  0.00    -0.374 N 
HETATM   15  C11 UNL     1      25.034   2.603  52.925  1.00  0.00     0.127 C 
HETATM   16  C12 UNL     1      24.123   1.508  53.145  1.00  0.00    -0.001 A 
HETATM   17  C13 UNL     1      24.674   0.359  53.661  1.00  0.00     0.012 A 
HETATM   18  C14 UNL     1      24.014  -0.840  53.970  1.00  0.00     0.001 A 
HETATM   19  C15 UNL     1      22.644  -0.766  53.688  1.00  0.00     0.003 A 
HETATM   20  C16 UNL     1      22.010   0.334  53.174  1.00  0.00     0.038 A 
HETATM   21  C17 UNL     1      22.744   1.478  52.899  1.00  0.00     0.086 A 
HETATM   22  O1  UNL     1      21.815   2.409  52.394  1.00  0.00    -0.289 OA
HETATM   23  H9  UNL     1      24.314   6.784  52.822  1.00  0.00     0.161 HD
HETATM   24  H11 UNL     1      24.798   4.607  53.777  1.00  0.00     0.160 HD
ENDROOT
TORSDOF 0
ENDMDL
MODEL 2
REMARK VINA RESULT:      -8.8      3.507      5.600
REMARK  0 active torsions:
REMARK  status: ('A' for Active; 'I' for Inactive)
ROOT
HETATM    1  C1  UNL     1      21.692   3.299  52.158  1.00  0.00     0.019 C 
HETATM    2  C2  UNL     1      22.552   2.099  52.223  1.00  0.00    -0.002 C 
HETATM    3  C3  UNL     1      23.588   2.692  52.842  1.00  0.00     0.027 C 
HETATM    4  C4  UNL     1      24.923   2.738  53.451  1.00  0.00    -0.023 C 
HETATM    5  C5  UNL     1      26.078   2.176  53.821  1.00  0.00    -0.011 C 
HETATM    6  C6  UNL     1      26.810   0.906  53.818  1.00  0.00     0.148 C 
HETATM    7  N1  UNL     1      26.094  -0.218  53.237  1.00  0.00    -0.369 N 
HETATM    8  C7  UNL     1      24.881  -0.621  53.919  1.00  0.00     0.156 A 
HETATM    9  N2  UNL     1      25.238  -0.997  55.138  1.00  0.00    -0.222 NA
HETATM   10  C8  UNL     1      24.255  -1.395  55.995  1.00  0.00     0.238 A 
HETATM   11  N3  UNL     1      22.946  -1.408  55.617  1.00  0.00    -0.215 NA
HETATM   12  C9  UNL     1      22.645  -1.014  54.359  1.00  0.00     0.202 A 
HETATM   13  C10 UNL     1      23.570  -0.599  53.429  1.00  0.00     0.129 A 
HETATM   14  N4  UNL     1      23.271  -0.191  52.080  1.00  0.00    -0.374 N 
HETATM   15  C11 UNL     1      22.189   0.715  51.684  1.00  0.00     0.127 C 
HETATM   16  C12 UNL     1      20.874   0.263  52.061  1.00  0.00    -0.001 A 
HETATM   17  C13 UNL     1      19.844   0.648  51.235  1.00  0.00     0.012 A 
HETATM   18  C14 UNL     1      18.482   0.343  51.371  1.00  0.00     0.001 A 
HETATM   19  C15 UNL     1      18.237  -0.446  52.502  1.00  0.00     0.003 A 
HETATM   20  C16 UNL     1      19.197  -0.875  53.379  1.00  0.00     0.038 A 
HETATM   21  C17 UNL     1      20.522  -0.524  53.165  1.00  0.00     0.086 A 
HETATM   22  O1  UNL     1      21.243  -1.114  54.221  1.00  0.00    -0.289 OA
HETATM   23  H9  UNL     1      26.000  -0.957  52.514  1.00  0.00     0.161 HD
HETATM   24  H11 UNL     1      23.906  -0.601  51.342  1.00  0.00     0.160 HD
ENDROOT
TORSDOF 0
ENDMDL
MODEL 3
REMARK VINA RESULT:      -8.8      0.994      1.070
REMARK  0 active torsions:
REMARK  status: ('A' for Active; 'I' for Inactive)
ROOT
HETATM    1  C1  UNL     1      26.542   0.568  51.508  1.00  0.00     0.019 C 
HETATM    2  C2  UNL     1      25.894   1.879  51.710  1.00  0.00    -0.002 C 
HETATM    3  C3  UNL     1      26.452   2.485  50.647  1.00  0.00     0.027 C 
HETATM    4  C4  UNL     1      26.699   3.610  49.735  1.00  0.00    -0.023 C 
HETATM    5  C5  UNL     1      26.515   4.870  49.329  1.00  0.00    -0.011 C 
HETATM    6  C6  UNL     1      25.797   6.106  49.654  1.00  0.00     0.148 C 
HETATM    7  N1  UNL     1      24.925   6.027  50.815  1.00  0.00    -0.369 N 
HETATM    8  C7  UNL     1      23.814   5.102  50.714  1.00  0.00     0.156 A 
HETATM    9  N2  UNL     1      23.059   5.522  49.710  1.00  0.00    -0.222 NA
HETATM   10  C8  UNL     1      21.955   4.787  49.393  1.00  0.00     0.238 A 
HETATM   11  N3  UNL     1      21.632   3.658  50.083  1.00  0.00    -0.215 NA
HETATM   12  C9  UNL     1      22.441   3.282  51.099  1.00  0.00     0.202 A 
HETATM   13  C10 UNL     1      23.572   3.961  51.488  1.00  0.00     0.129 A 
HETATM   14  N4  UNL     1      24.438   3.585  52.577  1.00  0.00    -0.374 N 
HETATM   15  C11 UNL     1      24.932   2.231  52.844  1.00  0.00     0.127 C 
HETATM   16  C12 UNL     1      23.893   1.256  53.058  1.00  0.00    -0.001 A 
HETATM   17  C13 UNL     1      24.207   0.214  53.900  1.00  0.00     0.012 A 
HETATM   18  C14 UNL     1      23.383  -0.856  54.276  1.00  0.00     0.001 A 
HETATM   19  C15 UNL     1      22.118  -0.773  53.680  1.00  0.00     0.003 A 
HETATM   20  C16 UNL     1      21.718   0.225  52.832  1.00  0.00     0.038 A 
HETATM   21  C17 UNL     1      22.602   1.246  52.515  1.00  0.00     0.086 A 
HETATM   22  O1  UNL     1      21.897   2.097  51.641  1.00  0.00    -0.289 OA
HETATM   23  H9  UNL     1      24.661   6.328  51.772  1.00  0.00     0.161 HD
HETATM   24  H11 UNL     1      24.717   4.379  53.215  1.00  0.00     0.160 HD
ENDROOT
TORSDOF 0
ENDMDL
MODEL 4
REMARK VINA RESULT:      -8.5      2.573      6.397
REMARK  0 active torsions:
REMARK  status: ('A' for Active; 'I' for Inactive)
ROOT
HETATM    1  C1  UNL     1      21.872   2.513  51.582  1.00  0.00     0.019 C 
HETATM    2  C2  UNL     1      22.958   2.132  52.507  1.00  0.00    -0.002 C 
HETATM    3  C3  UNL     1      22.390   0.993  52.943  1.00  0.00     0.027 C 
HETATM    4  C4  UNL     1      22.318  -0.236  53.742  1.00  0.00    -0.023 C 
HETATM    5  C5  UNL     1      22.811  -1.102  54.634  1.00  0.00    -0.011 C 
HETATM    6  C6  UNL     1      23.966  -1.350  55.501  1.00  0.00     0.148 C 
HETATM    7  N1  UNL     1      25.025  -0.356  55.421  1.00  0.00    -0.369 N 
HETATM    8  C7  UNL     1      25.687  -0.235  54.138  1.00  0.00     0.156 A 
HETATM    9  N2  UNL     1      26.257  -1.405  53.892  1.00  0.00    -0.222 NA
HETATM   10  C8  UNL     1      26.923  -1.553  52.712  1.00  0.00     0.238 A 
HETATM   11  N3  UNL     1      27.005  -0.535  51.811  1.00  0.00    -0.215 NA
HETATM   12  C9  UNL     1      26.404   0.636  52.120  1.00  0.00     0.202 A 
HETATM   13  C10 UNL     1      25.713   0.875  53.284  1.00  0.00     0.129 A 
HETATM   14  N4  UNL     1      25.080   2.120  53.639  1.00  0.00    -0.374 N 
HETATM   15  C11 UNL     1      24.238   2.930  52.754  1.00  0.00     0.127 C 
HETATM   16  C12 UNL     1      24.899   3.368  51.550  1.00  0.00    -0.001 A 
HETATM   17  C13 UNL     1      24.474   4.568  51.031  1.00  0.00     0.012 A 
HETATM   18  C14 UNL     1      24.949   5.216  49.881  1.00  0.00     0.001 A 
HETATM   19  C15 UNL     1      25.969   4.487  49.258  1.00  0.00     0.003 A 
HETATM   20  C16 UNL     1      26.456   3.286  49.702  1.00  0.00     0.038 A 
HETATM   21  C17 UNL     1      25.925   2.718  50.851  1.00  0.00     0.086 A 
HETATM   22  O1  UNL     1      26.630   1.513  51.036  1.00  0.00    -0.289 OA
HETATM   23  H9  UNL     1      25.610   0.381  55.857  1.00  0.00     0.161 HD
HETATM   24  H11 UNL     1      25.262   2.444  54.628  1.00  0.00     0.160 HD
ENDROOT
TORSDOF 0
ENDMDL
MODEL 5
REMARK VINA RESULT:      -8.5      2.456      6.095
REMARK  0 active torsions:
REMARK  status: ('A' for Active; 'I' for Inactive)
ROOT
HETATM    1  C1  UNL     1      22.674   3.548  48.194  1.00  0.00     0.019 C 
HETATM    2  C2  UNL     1      23.041   3.298  49.602  1.00  0.00    -0.002 C 
HETATM    3  C3  UNL     1      22.349   2.153  49.736  1.00  0.00     0.027 C 
HETATM    4  C4  UNL     1      21.857   0.973  50.459  1.00  0.00    -0.023 C 
HETATM    5  C5  UNL     1      21.769   0.200  51.545  1.00  0.00    -0.011 C 
HETATM    6  C6  UNL     1      22.224   0.084  52.933  1.00  0.00     0.148 C 
HETATM    7  N1  UNL     1      23.118   1.139  53.381  1.00  0.00    -0.369 N 
HETATM    8  C7  UNL     1      24.393   1.226  52.697  1.00  0.00     0.156 A 
HETATM    9  N2  UNL     1      25.024   0.084  52.925  1.00  0.00    -0.222 NA
HETATM   10  C8  UNL     1      26.248  -0.092  52.352  1.00  0.00     0.238 A 
HETATM   11  N3  UNL     1      26.811   0.872  51.571  1.00  0.00    -0.215 NA
HETATM   12  C9  UNL     1      26.118   2.017  51.378  1.00  0.00     0.202 A 
HETATM   13  C10 UNL     1      24.881   2.280  51.916  1.00  0.00     0.129 A 
HETATM   14  N4  UNL     1      24.134   3.499  51.735  1.00  0.00    -0.374 N 
HETATM   15  C11 UNL     1      23.935   4.194  50.460  1.00  0.00     0.127 C 
HETATM   16  C12 UNL     1      25.156   4.601  49.813  1.00  0.00    -0.001 A 
HETATM   17  C13 UNL     1      25.081   5.735  49.039  1.00  0.00     0.012 A 
HETATM   18  C14 UNL     1      26.115   6.342  48.312  1.00  0.00     0.001 A 
HETATM   19  C15 UNL     1      27.323   5.645  48.447  1.00  0.00     0.003 A 
HETATM   20  C16 UNL     1      27.491   4.510  49.194  1.00  0.00     0.038 A 
HETATM   21  C17 UNL     1      26.410   3.980  49.882  1.00  0.00     0.086 A 
HETATM   22  O1  UNL     1      26.906   2.838  50.541  1.00  0.00    -0.289 OA
HETATM   23  H9  UNL     1      23.334   1.940  54.005  1.00  0.00     0.161 HD
HETATM   24  H11 UNL     1      23.711   3.895  52.618  1.00  0.00     0.160 HD
ENDROOT
TORSDOF 0
ENDMDL
MODEL 6
REMARK VINA RESULT:      -8.3      1.580      2.446
REMARK  0 active torsions:
REMARK  status: ('A' for Active; 'I' for Inactive)
ROOT
HETATM    1  C1  UNL     1      26.480   2.622  49.544  1.00  0.00     0.019 C 
HETATM    2  C2  UNL     1      25.581   3.212  50.556  1.00  0.00    -0.002 C 
HETATM    3  C3  UNL     1      24.843   3.935  49.695  1.00  0.00     0.027 C 
HETATM    4  C4  UNL     1      23.768   4.862  49.317  1.00  0.00    -0.023 C 
HETATM    5  C5  UNL     1      22.734   5.659  49.603  1.00  0.00    -0.011 C 
HETATM    6  C6  UNL     1      21.920   6.157  50.715  1.00  0.00     0.148 C 
HETATM    7  N1  UNL     1      22.279   5.638  52.025  1.00  0.00    -0.369 N 
HETATM    8  C7  UNL     1      22.120   4.210  52.209  1.00  0.00     0.156 A 
HETATM    9  N2  UNL     1      20.832   3.947  52.045  1.00  0.00    -0.222 NA
HETATM   10  C8  UNL     1      20.432   2.647  52.139  1.00  0.00     0.238 A 
HETATM   11  N3  UNL     1      21.321   1.647  52.394  1.00  0.00    -0.215 NA
HETATM   12  C9  UNL     1      22.622   1.979  52.553  1.00  0.00     0.202 A 
HETATM   13  C10 UNL     1      23.114   3.261  52.476  1.00  0.00     0.129 A 
HETATM   14  N4  UNL     1      24.493   3.637  52.659  1.00  0.00    -0.374 N 
HETATM   15  C11 UNL     1      25.647   2.958  52.062  1.00  0.00     0.127 C 
HETATM   16  C12 UNL     1      25.762   1.567  52.419  1.00  0.00    -0.001 A 
HETATM   17  C13 UNL     1      27.039   1.060  52.467  1.00  0.00     0.012 A 
HETATM   18  C14 UNL     1      27.426  -0.250  52.789  1.00  0.00     0.001 A 
HETATM   19  C15 UNL     1      26.321  -1.060  53.080  1.00  0.00     0.003 A 
HETATM   20  C16 UNL     1      25.017  -0.643  53.058  1.00  0.00     0.038 A 
HETATM   21  C17 UNL     1      24.728   0.673  52.728  1.00  0.00     0.086 A 
HETATM   22  O1  UNL     1      23.326   0.780  52.798  1.00  0.00    -0.289 OA
HETATM   23  H9  UNL     1      22.621   5.783  52.994  1.00  0.00     0.161 HD
HETATM   24  H11 UNL     1      24.645   4.477  53.281  1.00  0.00     0.160 HD
ENDROOT
TORSDOF 0
ENDMDL
MODEL 7
REMARK VINA RESULT:      -8.1      4.623      6.872
REMARK  0 active torsions:
REMARK  status: ('A' for Active; 'I' for Inactive)
ROOT
HETATM    1  C1  UNL     1      24.858   4.521  49.399  1.00  0.00     0.019 C 
HETATM    2  C2  UNL     1      25.753   5.668  49.649  1.00  0.00    -0.002 C 
HETATM    3  C3  UNL     1      26.804   5.189  48.960  1.00  0.00     0.027 C 
HETATM    4  C4  UNL     1      28.169   5.228  48.418  1.00  0.00    -0.023 C 
HETATM    5  C5  UNL     1      29.358   5.811  48.239  1.00  0.00    -0.011 C 
HETATM    6  C6  UNL     1      30.124   7.018  48.564  1.00  0.00     0.148 C 
HETATM    7  N1  UNL     1      29.411   8.010  49.352  1.00  0.00    -0.369 N 
HETATM    8  C7  UNL     1      28.249   8.605  48.723  1.00  0.00     0.156 A 
HETATM    9  N2  UNL     1      28.681   9.232  47.640  1.00  0.00    -0.222 NA
HETATM   10  C8  UNL     1      27.758   9.851  46.851  1.00  0.00     0.238 A 
HETATM   11  N3  UNL     1      26.432   9.832  47.162  1.00  0.00    -0.215 NA
HETATM   12  C9  UNL     1      26.052   9.177  48.282  1.00  0.00     0.202 A 
HETATM   13  C10 UNL     1      26.913   8.526  49.135  1.00  0.00     0.129 A 
HETATM   14  N4  UNL     1      26.530   7.837  50.341  1.00  0.00    -0.374 N 
HETATM   15  C11 UNL     1      25.403   6.909  50.470  1.00  0.00     0.127 C 
HETATM   16  C12 UNL     1      24.123   7.487  50.146  1.00  0.00    -0.001 A 
HETATM   17  C13 UNL     1      23.039   6.968  50.814  1.00  0.00     0.012 A 
HETATM   18  C14 UNL     1      21.696   7.351  50.689  1.00  0.00     0.001 A 
HETATM   19  C15 UNL     1      21.535   8.383  49.756  1.00  0.00     0.003 A 
HETATM   20  C16 UNL     1      22.554   8.960  49.045  1.00  0.00     0.038 A 
HETATM   21  C17 UNL     1      23.854   8.517  49.235  1.00  0.00     0.086 A 
HETATM   22  O1  UNL     1      24.648   9.300  48.375  1.00  0.00    -0.289 OA
HETATM   23  H9  UNL     1      29.299   8.570  50.219  1.00  0.00     0.161 HD
HETATM   24  H11 UNL     1      27.135   8.044  51.181  1.00  0.00     0.160 HD
ENDROOT
TORSDOF 0
ENDMDL
MODEL 8
REMARK VINA RESULT:      -8.1      2.414      4.199
REMARK  0 active torsions:
REMARK  status: ('A' for Active; 'I' for Inactive)
ROOT
HETATM    1  C1  UNL     1      26.417   2.786  50.012  1.00  0.00     0.019 C 
HETATM    2  C2  UNL     1      25.315   2.821  50.994  1.00  0.00    -0.002 C 
HETATM    3  C3  UNL     1      24.318   2.896  50.096  1.00  0.00     0.027 C 
HETATM    4  C4  UNL     1      22.915   2.980  49.670  1.00  0.00    -0.023 C 
HETATM    5  C5  UNL     1      21.602   3.040  49.915  1.00  0.00    -0.011 C 
HETATM    6  C6  UNL     1      20.620   3.060  51.003  1.00  0.00     0.148 C 
HETATM    7  N1  UNL     1      21.179   2.965  52.342  1.00  0.00    -0.369 N 
HETATM    8  C7  UNL     1      21.883   1.738  52.652  1.00  0.00     0.156 A 
HETATM    9  N2  UNL     1      20.999   0.756  52.548  1.00  0.00    -0.222 NA
HETATM   10  C8  UNL     1      21.435  -0.518  52.765  1.00  0.00     0.238 A 
HETATM   11  N3  UNL     1      22.734  -0.780  53.079  1.00  0.00    -0.215 NA
HETATM   12  C9  UNL     1      23.587   0.265  53.172  1.00  0.00     0.202 A 
HETATM   13  C10 UNL     1      23.237   1.579  52.972  1.00  0.00     0.129 A 
HETATM   14  N4  UNL     1      24.127   2.707  53.083  1.00  0.00    -0.374 N 
HETATM   15  C11 UNL     1      25.476   2.785  52.514  1.00  0.00     0.127 C 
HETATM   16  C12 UNL     1      26.375   1.763  52.987  1.00  0.00    -0.001 A 
HETATM   17  C13 UNL     1      27.705   2.107  53.042  1.00  0.00     0.012 A 
HETATM   18  C14 UNL     1      28.777   1.307  53.464  1.00  0.00     0.001 A 
HETATM   19  C15 UNL     1      28.351   0.032  53.854  1.00  0.00     0.003 A 
HETATM   20  C16 UNL     1      27.051  -0.398  53.833  1.00  0.00     0.038 A 
HETATM   21  C17 UNL     1      26.054   0.463  53.400  1.00  0.00     0.086 A 
HETATM   22  O1  UNL     1      24.854  -0.267  53.500  1.00  0.00    -0.289 OA
HETATM   23  H9  UNL     1      21.344   3.365  53.286  1.00  0.00     0.161 HD
HETATM   24  H11 UNL     1      23.740   3.525  53.626  1.00  0.00     0.160 HD
ENDROOT
TORSDOF 0
ENDMDL
MODEL 9
REMARK VINA RESULT:      -8.1      2.461      4.588
REMARK  0 active torsions:
REMARK  status: ('A' for Active; 'I' for Inactive)
ROOT
HETATM    1  C1  UNL     1      22.599  -1.140  53.054  1.00  0.00     0.019 C 
HETATM    2  C2  UNL     1      23.409   0.094  53.112  1.00  0.00    -0.002 C 
HETATM    3  C3  UNL     1      24.608  -0.511  53.054  1.00  0.00     0.027 C 
HETATM    4  C4  UNL     1      26.075  -0.555  53.024  1.00  0.00    -0.023 C 
HETATM    5  C5  UNL     1      27.280   0.025  53.032  1.00  0.00    -0.011 C 
HETATM    6  C6  UNL     1      27.944   1.330  53.090  1.00  0.00     0.148 C 
HETATM    7  N1  UNL     1      27.051   2.476  53.142  1.00  0.00    -0.369 N 
HETATM    8  C7  UNL     1      26.200   2.672  51.986  1.00  0.00     0.156 A 
HETATM    9  N2  UNL     1      27.003   2.872  50.952  1.00  0.00    -0.222 NA
HETATM   10  C8  UNL     1      26.431   3.052  49.727  1.00  0.00     0.238 A 
HETATM   11  N3  UNL     1      25.079   3.028  49.565  1.00  0.00    -0.215 NA
HETATM   12  C9  UNL     1      24.312   2.820  50.659  1.00  0.00     0.202 A 
HETATM   13  C10 UNL     1      24.802   2.631  51.930  1.00  0.00     0.129 A 
HETATM   14  N4  UNL     1      24.001   2.425  53.111  1.00  0.00    -0.374 N 
HETATM   15  C11 UNL     1      22.856   1.516  53.215  1.00  0.00     0.127 C 
HETATM   16  C12 UNL     1      21.790   1.801  52.288  1.00  0.00    -0.001 A 
HETATM   17  C13 UNL     1      20.522   1.479  52.709  1.00  0.00     0.012 A 
HETATM   18  C14 UNL     1      19.319   1.655  52.009  1.00  0.00     0.001 A 
HETATM   19  C15 UNL     1      19.532   2.231  50.750  1.00  0.00     0.003 A 
HETATM   20  C16 UNL     1      20.756   2.584  50.248  1.00  0.00     0.038 A 
HETATM   21  C17 UNL     1      21.893   2.372  51.013  1.00  0.00     0.086 A 
HETATM   22  O1  UNL     1      22.967   2.836  50.228  1.00  0.00    -0.289 OA
HETATM   23  H9  UNL     1      26.678   3.313  53.630  1.00  0.00     0.161 HD
HETATM   24  H11 UNL     1      24.294   2.995  53.950  1.00  0.00     0.160 HD
ENDROOT
TORSDOF 0
ENDMDL
