MODEL 1
REMARK VINA RESULT:      -7.5      0.000      0.000
REMARK  6 active torsions:
REMARK  status: ('A' for Active; 'I' for Inactive)
REMARK    1  A    between atoms: O1_2  and  C2_3 
REMARK    2  A    between atoms: C7_9  and  C8_10 
REMARK    3  A    between atoms: C8_10  and  O2_11 
REMARK    4  A    between atoms: O2_11  and  C9_12 
REMARK    5  A    between atoms: C13_17  and  O3_18 
REMARK    6  A    between atoms: C17_22  and  O4_23 
ROOT
HETATM    1  C2  UNL     1      26.606   0.178  54.318  1.00  0.00     0.103 A 
HETATM    2  C3  UNL     1      25.504  -0.606  54.054  1.00  0.00     0.072 A 
HETATM    3  C4  UNL     1      24.390  -0.023  53.504  1.00  0.00     0.070 A 
HETATM    4  N1  UNL     1      23.320  -0.834  53.262  1.00  0.00    -0.260 NA
HETATM    5  C5  UNL     1      22.187  -0.348  52.727  1.00  0.00     0.118 A 
HETATM    6  C6  UNL     1      22.100   0.993  52.417  1.00  0.00     0.029 A 
HETATM    7  C7  UNL     1      23.132   1.882  52.627  1.00  0.00    -0.020 A 
HETATM    8  C15 UNL     1      24.284   1.325  53.184  1.00  0.00     0.004 A 
HETATM    9  C16 UNL     1      25.407   2.074  53.463  1.00  0.00     0.054 A 
HETATM   10  C17 UNL     1      26.559   1.520  54.022  1.00  0.00     0.102 A 
ENDROOT
BRANCH   7  11
HETATM   11  C8  UNL     1      23.195   3.321  52.352  1.00  0.00     0.215 C 
BRANCH  11  12
HETATM   12  O2  UNL     1      23.399   3.631  51.012  1.00  0.00    -0.342 OA
BRANCH  12  13
HETATM   13  C9  UNL     1      24.477   4.244  50.429  1.00  0.00     0.119 A 
HETATM   14  C10 UNL     1      25.623   3.887  49.706  1.00  0.00     0.129 A 
HETATM   15  N2  UNL     1      26.355   4.943  49.377  1.00  0.00    -0.365 N 
HETATM   16  C11 UNL     1      27.594   4.882  48.626  1.00  0.00     0.155 C 
HETATM   17  C12 UNL     1      25.719   6.009  49.867  1.00  0.00     0.129 A 
HETATM   18  C13 UNL     1      24.568   5.617  50.516  1.00  0.00     0.118 A 
BRANCH  18  19
HETATM   19  O3  UNL     1      23.724   6.542  51.118  1.00  0.00    -0.352 OA
HETATM   20  C14 UNL     1      23.585   7.858  50.671  1.00  0.00     0.210 C 
ENDBRANCH  18  19
ENDBRANCH  12  13
ENDBRANCH  11  12
ENDBRANCH   7  11
BRANCH  10  21
HETATM   21  O4  UNL     1      27.656   2.369  54.271  1.00  0.00    -0.353 OA
HETATM   22  C18 UNL     1      28.623   2.615  53.271  1.00  0.00     0.210 C 
ENDBRANCH  10  21
BRANCH   1  23
HETATM   23  O1  UNL     1      27.801  -0.266  54.872  1.00  0.00    -0.353 OA
HETATM   24  C1  UNL     1      28.897  -0.752  54.145  1.00  0.00     0.210 C 
ENDBRANCH   1  23
TORSDOF 6
ENDMDL
MODEL 2
REMARK VINA RESULT:      -7.5      2.242      3.277
REMARK  6 active torsions:
REMARK  status: ('A' for Active; 'I' for Inactive)
REMARK    1  A    between atoms: O1_2  and  C2_3 
REMARK    2  A    between atoms: C7_9  and  C8_10 
REMARK    3  A    between atoms: C8_10  and  O2_11 
REMARK    4  A    between atoms: O2_11  and  C9_12 
REMARK    5  A    between atoms: C13_17  and  O3_18 
REMARK    6  A    between atoms: C17_22  and  O4_23 
ROOT
HETATM    1  C2  UNL     1      27.457   0.631  53.599  1.00  0.00     0.103 A 
HETATM    2  C3  UNL     1      26.840  -0.166  54.538  1.00  0.00     0.072 A 
HETATM    3  C4  UNL     1      25.486  -0.372  54.449  1.00  0.00     0.070 A 
HETATM    4  N1  UNL     1      24.915  -1.164  55.401  1.00  0.00    -0.260 NA
HETATM    5  C5  UNL     1      23.596  -1.418  55.392  1.00  0.00     0.118 A 
HETATM    6  C6  UNL     1      22.802  -0.870  54.407  1.00  0.00     0.029 A 
HETATM    7  C7  UNL     1      23.296  -0.060  53.407  1.00  0.00    -0.020 A 
HETATM    8  C15 UNL     1      24.671   0.172  53.464  1.00  0.00     0.004 A 
HETATM    9  C16 UNL     1      25.327   0.962  52.544  1.00  0.00     0.054 A 
HETATM   10  C17 UNL     1      26.700   1.196  52.599  1.00  0.00     0.102 A 
ENDROOT
BRANCH   7  11
HETATM   11  C8  UNL     1      22.590   0.591  52.299  1.00  0.00     0.215 C 
BRANCH  11  12
HETATM   12  O2  UNL     1      21.894   1.736  52.668  1.00  0.00    -0.342 OA
BRANCH  12  13
HETATM   13  C9  UNL     1      22.055   3.019  52.217  1.00  0.00     0.119 A 
HETATM   14  C10 UNL     1      23.099   3.883  51.860  1.00  0.00     0.129 A 
HETATM   15  N2  UNL     1      22.655   5.073  51.477  1.00  0.00    -0.365 N 
HETATM   16  C11 UNL     1      23.503   6.169  51.050  1.00  0.00     0.155 C 
HETATM   17  C12 UNL     1      21.324   5.025  51.570  1.00  0.00     0.129 A 
HETATM   18  C13 UNL     1      20.925   3.784  52.019  1.00  0.00     0.118 A 
BRANCH  18  19
HETATM   19  O3  UNL     1      19.582   3.478  52.203  1.00  0.00    -0.352 OA
HETATM   20  C14 UNL     1      18.587   3.803  51.279  1.00  0.00     0.210 C 
ENDBRANCH  18  19
ENDBRANCH  12  13
ENDBRANCH  11  12
ENDBRANCH   7  11
BRANCH  10  21
HETATM   21  O4  UNL     1      27.278   2.020  51.612  1.00  0.00    -0.353 OA
HETATM   22  C18 UNL     1      26.470   2.807  50.761  1.00  0.00     0.210 C 
ENDBRANCH  10  21
BRANCH   1  23
HETATM   23  O1  UNL     1      28.814   0.932  53.558  1.00  0.00    -0.353 OA
HETATM   24  C1  UNL     1      29.852  -0.009  53.598  1.00  0.00     0.210 C 
ENDBRANCH   1  23
TORSDOF 6
ENDMDL
MODEL 3
REMARK VINA RESULT:      -7.2      2.608      5.628
REMARK  6 active torsions:
REMARK  status: ('A' for Active; 'I' for Inactive)
REMARK    1  A    between atoms: O1_2  and  C2_3 
REMARK    2  A    between atoms: C7_9  and  C8_10 
REMARK    3  A    between atoms: C8_10  and  O2_11 
REMARK    4  A    between atoms: O2_11  and  C9_12 
REMARK    5  A    between atoms: C13_17  and  O3_18 
REMARK    6  A    between atoms: C17_22  and  O4_23 
ROOT
HETATM    1  C2  UNL     1      27.406   0.149  53.705  1.00  0.00     0.103 A 
HETATM    2  C3  UNL     1      27.647   1.036  52.679  1.00  0.00     0.072 A 
HETATM    3  C4  UNL     1      26.585   1.667  52.082  1.00  0.00     0.070 A 
HETATM    4  N1  UNL     1      26.868   2.535  51.069  1.00  0.00    -0.260 NA
HETATM    5  C5  UNL     1      25.889   3.195  50.426  1.00  0.00     0.118 A 
HETATM    6  C6  UNL     1      24.576   2.995  50.795  1.00  0.00     0.029 A 
HETATM    7  C7  UNL     1      24.201   2.138  51.808  1.00  0.00    -0.020 A 
HETATM    8  C15 UNL     1      25.256   1.479  52.440  1.00  0.00     0.004 A 
HETATM    9  C16 UNL     1      25.057   0.584  53.470  1.00  0.00     0.054 A 
HETATM   10  C17 UNL     1      26.109  -0.078  54.103  1.00  0.00     0.102 A 
ENDROOT
BRANCH   7  11
HETATM   11  C8  UNL     1      22.862   1.822  52.314  1.00  0.00     0.215 C 
BRANCH  11  12
HETATM   12  O2  UNL     1      22.221   0.804  51.616  1.00  0.00    -0.342 OA
BRANCH  12  13
HETATM   13  C9  UNL     1      20.877   0.576  51.476  1.00  0.00     0.119 A 
HETATM   14  C10 UNL     1      19.890   0.696  50.489  1.00  0.00     0.129 A 
HETATM   15  N2  UNL     1      18.698   0.312  50.926  1.00  0.00    -0.365 N 
HETATM   16  C11 UNL     1      17.487   0.323  50.128  1.00  0.00     0.155 C 
HETATM   17  C12 UNL     1      18.865  -0.066  52.195  1.00  0.00     0.129 A 
HETATM   18  C13 UNL     1      20.186   0.083  52.563  1.00  0.00     0.118 A 
BRANCH  18  19
HETATM   19  O3  UNL     1      20.623  -0.242  53.840  1.00  0.00    -0.352 OA
HETATM   20  C14 UNL     1      20.980  -1.536  54.224  1.00  0.00     0.210 C 
ENDBRANCH  18  19
ENDBRANCH  12  13
ENDBRANCH  11  12
ENDBRANCH   7  11
BRANCH  10  21
HETATM   21  O4  UNL     1      25.803  -0.974  55.146  1.00  0.00    -0.353 OA
HETATM   22  C18 UNL     1      24.463  -1.221  55.521  1.00  0.00     0.210 C 
ENDBRANCH  10  21
BRANCH   1  23
HETATM   23  O1  UNL     1      28.374  -0.564  54.403  1.00  0.00    -0.353 OA
HETATM   24  C1  UNL     1      29.638  -0.911  53.906  1.00  0.00     0.210 C 
ENDBRANCH   1  23
TORSDOF 6
ENDMDL
MODEL 4
REMARK VINA RESULT:      -7.1      2.547      3.881
REMARK  6 active torsions:
REMARK  status: ('A' for Active; 'I' for Inactive)
REMARK    1  A    between atoms: O1_2  and  C2_3 
REMARK    2  A    between atoms: C7_9  and  C8_10 
REMARK    3  A    between atoms: C8_10  and  O2_11 
REMARK    4  A    between atoms: O2_11  and  C9_12 
REMARK    5  A    between atoms: C13_17  and  O3_18 
REMARK    6  A    between atoms: C17_22  and  O4_23 
ROOT
HETATM    1  C2  UNL     1      27.412   0.655  53.461  1.00  0.00     0.103 A 
HETATM    2  C3  UNL     1      26.858  -0.169  54.416  1.00  0.00     0.072 A 
HETATM    3  C4  UNL     1      25.501  -0.376  54.409  1.00  0.00     0.070 A 
HETATM    4  N1  UNL     1      24.993  -1.196  55.374  1.00  0.00    -0.260 NA
HETATM    5  C5  UNL     1      23.676  -1.453  55.444  1.00  0.00     0.118 A 
HETATM    6  C6  UNL     1      22.821  -0.881  54.526  1.00  0.00     0.029 A 
HETATM    7  C7  UNL     1      23.248  -0.044  53.518  1.00  0.00    -0.020 A 
HETATM    8  C15 UNL     1      24.624   0.190  53.493  1.00  0.00     0.004 A 
HETATM    9  C16 UNL     1      25.218   1.007  52.554  1.00  0.00     0.054 A 
HETATM   10  C17 UNL     1      26.591   1.244  52.527  1.00  0.00     0.102 A 
ENDROOT
BRANCH   7  11
HETATM   11  C8  UNL     1      22.471   0.634  52.476  1.00  0.00     0.215 C 
BRANCH  11  12
HETATM   12  O2  UNL     1      21.509   1.509  52.968  1.00  0.00    -0.342 OA
BRANCH  12  13
HETATM   13  C9  UNL     1      20.808   2.476  52.297  1.00  0.00     0.119 A 
HETATM   14  C10 UNL     1      19.524   2.665  51.767  1.00  0.00     0.129 A 
HETATM   15  N2  UNL     1      19.390   3.854  51.195  1.00  0.00    -0.365 N 
HETATM   16  C11 UNL     1      18.175   4.330  50.563  1.00  0.00     0.155 C 
HETATM   17  C12 UNL     1      20.566   4.473  51.332  1.00  0.00     0.129 A 
HETATM   18  C13 UNL     1      21.454   3.658  52.001  1.00  0.00     0.118 A 
BRANCH  18  19
HETATM   19  O3  UNL     1      22.753   4.070  52.271  1.00  0.00    -0.352 OA
HETATM   20  C14 UNL     1      23.295   5.263  51.788  1.00  0.00     0.210 C 
ENDBRANCH  18  19
ENDBRANCH  12  13
ENDBRANCH  11  12
ENDBRANCH   7  11
BRANCH  10  21
HETATM   21  O4  UNL     1      27.103   2.095  51.527  1.00  0.00    -0.353 OA
HETATM   22  C18 UNL     1      26.237   2.836  50.693  1.00  0.00     0.210 C 
ENDBRANCH  10  21
BRANCH   1  23
HETATM   23  O1  UNL     1      28.762   0.961  53.341  1.00  0.00    -0.353 OA
HETATM   24  C1  UNL     1      29.819   0.087  53.636  1.00  0.00     0.210 C 
ENDBRANCH   1  23
TORSDOF 6
ENDMDL
MODEL 5
REMARK VINA RESULT:      -6.9      2.586      4.593
REMARK  6 active torsions:
REMARK  status: ('A' for Active; 'I' for Inactive)
REMARK    1  A    between atoms: O1_2  and  C2_3 
REMARK    2  A    between atoms: C7_9  and  C8_10 
REMARK    3  A    between atoms: C8_10  and  O2_11 
REMARK    4  A    between atoms: O2_11  and  C9_12 
REMARK    5  A    between atoms: C13_17  and  O3_18 
REMARK    6  A    between atoms: C17_22  and  O4_23 
ROOT
HETATM    1  C2  UNL     1      27.363   0.157  53.552  1.00  0.00     0.103 A 
HETATM    2  C3  UNL     1      27.639   1.187  52.679  1.00  0.00     0.072 A 
HETATM    3  C4  UNL     1      26.610   1.746  51.964  1.00  0.00     0.070 A 
HETATM    4  N1  UNL     1      26.927   2.760  51.109  1.00  0.00    -0.260 NA
HETATM    5  C5  UNL     1      25.984   3.365  50.368  1.00  0.00     0.118 A 
HETATM    6  C6  UNL     1      24.671   2.956  50.470  1.00  0.00     0.029 A 
HETATM    7  C7  UNL     1      24.262   1.941  51.309  1.00  0.00    -0.020 A 
HETATM    8  C15 UNL     1      25.282   1.348  52.054  1.00  0.00     0.004 A 
HETATM    9  C16 UNL     1      25.048   0.316  52.938  1.00  0.00     0.054 A 
HETATM   10  C17 UNL     1      26.065  -0.279  53.683  1.00  0.00     0.102 A 
ENDROOT
BRANCH   7  11
HETATM   11  C8  UNL     1      22.919   1.397  51.530  1.00  0.00     0.215 C 
BRANCH  11  12
HETATM   12  O2  UNL     1      22.087   2.231  52.268  1.00  0.00    -0.342 OA
BRANCH  12  13
HETATM   13  C9  UNL     1      20.824   2.667  51.966  1.00  0.00     0.119 A 
HETATM   14  C10 UNL     1      19.512   2.174  51.982  1.00  0.00     0.129 A 
HETATM   15  N2  UNL     1      18.634   3.076  51.562  1.00  0.00    -0.365 N 
HETATM   16  C11 UNL     1      17.204   2.852  51.471  1.00  0.00     0.155 C 
HETATM   17  C12 UNL     1      19.335   4.173  51.264  1.00  0.00     0.129 A 
HETATM   18  C13 UNL     1      20.676   3.956  51.499  1.00  0.00     0.118 A 
BRANCH  18  19
HETATM   19  O3  UNL     1      21.622   4.946  51.266  1.00  0.00    -0.352 OA
HETATM   20  C14 UNL     1      21.316   6.177  50.682  1.00  0.00     0.210 C 
ENDBRANCH  18  19
ENDBRANCH  12  13
ENDBRANCH  11  12
ENDBRANCH   7  11
BRANCH  10  21
HETATM   21  O4  UNL     1      25.725  -1.329  54.560  1.00  0.00    -0.353 OA
HETATM   22  C18 UNL     1      24.772  -1.136  55.585  1.00  0.00     0.210 C 
ENDBRANCH  10  21
BRANCH   1  23
HETATM   23  O1  UNL     1      28.295  -0.507  54.340  1.00  0.00    -0.353 OA
HETATM   24  C1  UNL     1      29.545  -0.967  53.901  1.00  0.00     0.210 C 
ENDBRANCH   1  23
TORSDOF 6
ENDMDL
MODEL 6
REMARK VINA RESULT:      -6.8      3.200      6.379
REMARK  6 active torsions:
REMARK  status: ('A' for Active; 'I' for Inactive)
REMARK    1  A    between atoms: O1_2  and  C2_3 
REMARK    2  A    between atoms: C7_9  and  C8_10 
REMARK    3  A    between atoms: C8_10  and  O2_11 
REMARK    4  A    between atoms: O2_11  and  C9_12 
REMARK    5  A    between atoms: C13_17  and  O3_18 
REMARK    6  A    between atoms: C17_22  and  O4_23 
ROOT
HETATM    1  C2  UNL     1      18.597  -0.266  52.274  1.00  0.00     0.103 A 
HETATM    2  C3  UNL     1      19.147  -0.992  53.308  1.00  0.00     0.072 A 
HETATM    3  C4  UNL     1      20.478  -0.828  53.600  1.00  0.00     0.070 A 
HETATM    4  N1  UNL     1      20.984  -1.567  54.628  1.00  0.00    -0.260 NA
HETATM    5  C5  UNL     1      22.277  -1.473  54.981  1.00  0.00     0.118 A 
HETATM    6  C6  UNL     1      23.110  -0.614  54.295  1.00  0.00     0.029 A 
HETATM    7  C7  UNL     1      22.683   0.170  53.245  1.00  0.00    -0.020 A 
HETATM    8  C15 UNL     1      21.333   0.032  52.920  1.00  0.00     0.004 A 
HETATM    9  C16 UNL     1      20.743   0.739  51.894  1.00  0.00     0.054 A 
HETATM   10  C17 UNL     1      19.395   0.601  51.566  1.00  0.00     0.102 A 
ENDROOT
BRANCH   7  11
HETATM   11  C8  UNL     1      23.437   1.123  52.426  1.00  0.00     0.215 C 
BRANCH  11  12
HETATM   12  O2  UNL     1      24.678   0.653  52.011  1.00  0.00    -0.342 OA
BRANCH  12  13
HETATM   13  C9  UNL     1      25.912   0.904  52.549  1.00  0.00     0.119 A 
HETATM   14  C10 UNL     1      26.812   0.301  53.439  1.00  0.00     0.129 A 
HETATM   15  N2  UNL     1      27.912   1.024  53.603  1.00  0.00    -0.365 N 
HETATM   16  C11 UNL     1      29.019   0.652  54.462  1.00  0.00     0.155 C 
HETATM   17  C12 UNL     1      27.769   2.107  52.835  1.00  0.00     0.129 A 
HETATM   18  C13 UNL     1      26.558   2.065  52.178  1.00  0.00     0.118 A 
BRANCH  18  19
HETATM   19  O3  UNL     1      26.167   3.080  51.314  1.00  0.00    -0.352 OA
HETATM   20  C14 UNL     1      26.461   3.083  49.950  1.00  0.00     0.210 C 
ENDBRANCH  18  19
ENDBRANCH  12  13
ENDBRANCH  11  12
ENDBRANCH   7  11
BRANCH  10  21
HETATM   21  O4  UNL     1      18.885   1.368  50.499  1.00  0.00    -0.353 OA
HETATM   22  C18 UNL     1      18.660   2.755  50.646  1.00  0.00     0.210 C 
ENDBRANCH  10  21
BRANCH   1  23
HETATM   23  O1  UNL     1      17.271  -0.325  51.861  1.00  0.00    -0.353 OA
HETATM   24  C1  UNL     1      16.175  -0.584  52.696  1.00  0.00     0.210 C 
ENDBRANCH   1  23
TORSDOF 6
ENDMDL
MODEL 7
REMARK VINA RESULT:      -6.7      2.896      7.596
REMARK  6 active torsions:
REMARK  status: ('A' for Active; 'I' for Inactive)
REMARK    1  A    between atoms: O1_2  and  C2_3 
REMARK    2  A    between atoms: C7_9  and  C8_10 
REMARK    3  A    between atoms: C8_10  and  O2_11 
REMARK    4  A    between atoms: O2_11  and  C9_12 
REMARK    5  A    between atoms: C13_17  and  O3_18 
REMARK    6  A    between atoms: C17_22  and  O4_23 
ROOT
HETATM    1  C2  UNL     1      27.832   7.723  47.831  1.00  0.00     0.103 A 
HETATM    2  C3  UNL     1      26.508   7.821  48.200  1.00  0.00     0.072 A 
HETATM    3  C4  UNL     1      25.879   6.716  48.717  1.00  0.00     0.070 A 
HETATM    4  N1  UNL     1      24.567   6.855  49.066  1.00  0.00    -0.260 NA
HETATM    5  C5  UNL     1      23.872   5.826  49.578  1.00  0.00     0.118 A 
HETATM    6  C6  UNL     1      24.491   4.607  49.755  1.00  0.00     0.029 A 
HETATM    7  C7  UNL     1      25.811   4.378  49.431  1.00  0.00    -0.020 A 
HETATM    8  C15 UNL     1      26.485   5.480  48.903  1.00  0.00     0.004 A 
HETATM    9  C16 UNL     1      27.809   5.425  48.522  1.00  0.00     0.054 A 
HETATM   10  C17 UNL     1      28.485   6.523  47.992  1.00  0.00     0.102 A 
ENDROOT
BRANCH   7  11
HETATM   11  C8  UNL     1      26.605   3.153  49.560  1.00  0.00     0.215 C 
BRANCH  11  12
HETATM   12  O2  UNL     1      26.990   2.864  50.864  1.00  0.00    -0.342 OA
BRANCH  12  13
HETATM   13  C9  UNL     1      26.438   1.969  51.742  1.00  0.00     0.119 A 
HETATM   14  C10 UNL     1      25.191   1.381  51.995  1.00  0.00     0.129 A 
HETATM   15  N2  UNL     1      25.234   0.544  53.024  1.00  0.00    -0.365 N 
HETATM   16  C11 UNL     1      24.098  -0.211  53.517  1.00  0.00     0.155 C 
HETATM   17  C12 UNL     1      26.493   0.557  53.468  1.00  0.00     0.129 A 
HETATM   18  C13 UNL     1      27.254   1.418  52.707  1.00  0.00     0.118 A 
BRANCH  18  19
HETATM   19  O3  UNL     1      28.605   1.613  52.967  1.00  0.00    -0.352 OA
HETATM   20  C14 UNL     1      29.361   0.764  53.778  1.00  0.00     0.210 C 
ENDBRANCH  18  19
ENDBRANCH  12  13
ENDBRANCH  11  12
ENDBRANCH   7  11
BRANCH  10  21
HETATM   21  O4  UNL     1      29.838   6.366  47.632  1.00  0.00    -0.353 OA
HETATM   22  C18 UNL     1      30.822   6.097  48.610  1.00  0.00     0.210 C 
ENDBRANCH  10  21
BRANCH   1  23
HETATM   23  O1  UNL     1      28.600   8.749  47.294  1.00  0.00    -0.353 OA
HETATM   24  C1  UNL     1      28.093   9.915  46.703  1.00  0.00     0.210 C 
ENDBRANCH   1  23
TORSDOF 6
ENDMDL
MODEL 8
REMARK VINA RESULT:      -6.7      2.073      5.174
REMARK  6 active torsions:
REMARK  status: ('A' for Active; 'I' for Inactive)
REMARK    1  A    between atoms: O1_2  and  C2_3 
REMARK    2  A    between atoms: C7_9  and  C8_10 
REMARK    3  A    between atoms: C8_10  and  O2_11 
REMARK    4  A    between atoms: O2_11  and  C9_12 
REMARK    5  A    between atoms: C13_17  and  O3_18 
REMARK    6  A    between atoms: C17_22  and  O4_23 
ROOT
HETATM    1  C2  UNL     1      27.566   0.350  53.632  1.00  0.00     0.103 A 
HETATM    2  C3  UNL     1      27.856   1.084  52.503  1.00  0.00     0.072 A 
HETATM    3  C4  UNL     1      26.912   1.950  52.012  1.00  0.00     0.070 A 
HETATM    4  N1  UNL     1      27.238   2.655  50.891  1.00  0.00    -0.260 NA
HETATM    5  C5  UNL     1      26.374   3.523  50.340  1.00  0.00     0.118 A 
HETATM    6  C6  UNL     1      25.134   3.708  50.915  1.00  0.00     0.029 A 
HETATM    7  C7  UNL     1      24.723   3.040  52.048  1.00  0.00    -0.020 A 
HETATM    8  C15 UNL     1      25.658   2.150  52.577  1.00  0.00     0.004 A 
HETATM    9  C16 UNL     1      25.408   1.398  53.705  1.00  0.00     0.054 A 
HETATM   10  C17 UNL     1      26.339   0.507  54.235  1.00  0.00     0.102 A 
ENDROOT
BRANCH   7  11
HETATM   11  C8  UNL     1      23.452   3.127  52.772  1.00  0.00     0.215 C 
BRANCH  11  12
HETATM   12  O2  UNL     1      22.433   2.358  52.220  1.00  0.00    -0.342 OA
BRANCH  12  13
HETATM   13  C9  UNL     1      21.757   1.305  52.777  1.00  0.00     0.119 A 
HETATM   14  C10 UNL     1      22.037   0.029  53.287  1.00  0.00     0.129 A 
HETATM   15  N2  UNL     1      20.945  -0.588  53.716  1.00  0.00    -0.365 N 
HETATM   16  C11 UNL     1      20.925  -1.917  54.296  1.00  0.00     0.155 C 
HETATM   17  C12 UNL     1      19.929   0.252  53.504  1.00  0.00     0.129 A 
HETATM   18  C13 UNL     1      20.391   1.418  52.931  1.00  0.00     0.118 A 
BRANCH  18  19
HETATM   19  O3  UNL     1      19.529   2.458  52.609  1.00  0.00    -0.352 OA
HETATM   20  C14 UNL     1      18.988   2.639  51.335  1.00  0.00     0.210 C 
ENDBRANCH  18  19
ENDBRANCH  12  13
ENDBRANCH  11  12
ENDBRANCH   7  11
BRANCH  10  21
HETATM   21  O4  UNL     1      25.989  -0.218  55.392  1.00  0.00    -0.353 OA
HETATM   22  C18 UNL     1      24.868  -1.079  55.395  1.00  0.00     0.210 C 
ENDBRANCH  10  21
BRANCH   1  23
HETATM   23  O1  UNL     1      28.416  -0.564  54.244  1.00  0.00    -0.353 OA
HETATM   24  C1  UNL     1      29.427  -1.287  53.596  1.00  0.00     0.210 C 
ENDBRANCH   1  23
TORSDOF 6
ENDMDL
MODEL 9
REMARK VINA RESULT:      -6.5      4.894      9.059
REMARK  6 active torsions:
REMARK  status: ('A' for Active; 'I' for Inactive)
REMARK    1  A    between atoms: O1_2  and  C2_3 
REMARK    2  A    between atoms: C7_9  and  C8_10 
REMARK    3  A    between atoms: C8_10  and  O2_11 
REMARK    4  A    between atoms: O2_11  and  C9_12 
REMARK    5  A    between atoms: C13_17  and  O3_18 
REMARK    6  A    between atoms: C17_22  and  O4_23 
ROOT
HETATM    1  C2  UNL     1      25.545   5.852  49.025  1.00  0.00     0.103 A 
HETATM    2  C3  UNL     1      25.992   7.090  48.620  1.00  0.00     0.072 A 
HETATM    3  C4  UNL     1      27.300   7.230  48.229  1.00  0.00     0.070 A 
HETATM    4  N1  UNL     1      27.702   8.474  47.839  1.00  0.00    -0.260 NA
HETATM    5  C5  UNL     1      28.965   8.703  47.443  1.00  0.00     0.118 A 
HETATM    6  C6  UNL     1      29.873   7.665  47.429  1.00  0.00     0.029 A 
HETATM    7  C7  UNL     1      29.553   6.379  47.805  1.00  0.00    -0.020 A 
HETATM    8  C15 UNL     1      28.229   6.197  48.208  1.00  0.00     0.004 A 
HETATM    9  C16 UNL     1      27.742   4.975  48.619  1.00  0.00     0.054 A 
HETATM   10  C17 UNL     1      26.421   4.791  49.024  1.00  0.00     0.102 A 
ENDROOT
BRANCH   7  11
HETATM   11  C8  UNL     1      30.396   5.180  47.843  1.00  0.00     0.215 C 
BRANCH  11  12
HETATM   12  O2  UNL     1      31.460   5.267  48.733  1.00  0.00    -0.342 OA
BRANCH  12  13
HETATM   13  C9  UNL     1      32.710   5.789  48.526  1.00  0.00     0.119 A 
HETATM   14  C10 UNL     1      33.350   7.034  48.590  1.00  0.00     0.129 A 
HETATM   15  N2  UNL     1      34.634   6.952  48.269  1.00  0.00    -0.365 N 
HETATM   16  C11 UNL     1      35.550   8.077  48.248  1.00  0.00     0.155 C 
HETATM   17  C12 UNL     1      34.871   5.668  47.990  1.00  0.00     0.129 A 
HETATM   18  C13 UNL     1      33.716   4.931  48.137  1.00  0.00     0.118 A 
BRANCH  18  19
HETATM   19  O3  UNL     1      33.696   3.562  47.903  1.00  0.00    -0.352 OA
HETATM   20  C14 UNL     1      33.289   2.996  46.693  1.00  0.00     0.210 C 
ENDBRANCH  18  19
ENDBRANCH  12  13
ENDBRANCH  11  12
ENDBRANCH   7  11
BRANCH  10  21
HETATM   21  O4  UNL     1      26.019   3.502  49.428  1.00  0.00    -0.353 OA
HETATM   22  C18 UNL     1      26.555   2.907  50.592  1.00  0.00     0.210 C 
ENDBRANCH  10  21
BRANCH   1  23
HETATM   23  O1  UNL     1      24.254   5.555  49.448  1.00  0.00    -0.353 OA
HETATM   24  C1  UNL     1      23.124   5.501  48.620  1.00  0.00     0.210 C 
ENDBRANCH   1  23
TORSDOF 6
ENDMDL
