MODEL 1
REMARK VINA RESULT:      -9.6      0.000      0.000
REMARK  4 active torsions:
REMARK  status: ('A' for Active; 'I' for Inactive)
REMARK    1  A    between atoms: C5_5  and  C6_6 
REMARK    2  A    between atoms: C7_8  and  C8_9 
REMARK    3  A    between atoms: C10_11  and  O1_13 
REMARK    4  A    between atoms: C18_23  and  C19_24 
ROOT
HETATM    1  C6  UNL     1      25.395   1.721  51.582  1.00  0.00     0.084 A 
HETATM    2  N1  UNL     1      24.072   1.480  51.520  1.00  0.00    -0.233 NA
HETATM    3  C7  UNL     1      23.677   0.655  52.503  1.00  0.00     0.113 A 
HETATM    4  N2  UNL     1      24.742   0.336  53.237  1.00  0.00    -0.314 N 
HETATM    5  C13 UNL     1      25.784   0.983  52.680  1.00  0.00     0.065 A 
HETATM    6  C14 UNL     1      27.078   0.714  53.383  1.00  0.00     0.232 C 
HETATM    7  N3  UNL     1      27.152  -0.653  53.776  1.00  0.00    -0.190 NA
HETATM    8  N4  UNL     1      26.169  -1.208  54.242  1.00  0.00    -0.177 NA
HETATM    9  C15 UNL     1      24.932  -0.484  54.395  1.00  0.00     0.304 C 
ENDROOT
BRANCH   1  10
HETATM   10  C5  UNL     1      26.215   2.530  50.709  1.00  0.00     0.041 C 
HETATM   11  C4  UNL     1      26.100   3.771  50.299  1.00  0.00    -0.050 C 
HETATM   12  C3  UNL     1      24.953   4.589  50.751  1.00  0.00     0.097 C 
HETATM   13  C16 UNL     1      27.178   4.187  49.419  1.00  0.00     0.010 C 
HETATM   14  C2  UNL     1      24.474   5.556  49.717  1.00  0.00     0.030 C 
HETATM   15  C1  UNL     1      23.158   5.621  49.606  1.00  0.00     0.040 C 
HETATM   16  N5  UNL     1      25.212   6.395  48.856  1.00  0.00    -0.253 NA
HETATM   17  C18 UNL     1      26.410   6.285  48.374  1.00  0.00     0.067 C 
HETATM   18  C17 UNL     1      27.357   5.211  48.606  1.00  0.00     0.033 C 
BRANCH  17  19
HETATM   19  C19 UNL     1      26.775   7.397  47.513  1.00  0.00    -0.007 A 
HETATM   20  C20 UNL     1      28.101   7.648  47.256  1.00  0.00     0.014 A 
HETATM   21  C21 UNL     1      28.554   8.670  46.457  1.00  0.00     0.001 A 
HETATM   22  C22 UNL     1      27.647   9.508  45.867  1.00  0.00     0.000 A 
HETATM   23  C23 UNL     1      26.305   9.291  46.100  1.00  0.00     0.001 A 
HETATM   24  C24 UNL     1      25.915   8.254  46.906  1.00  0.00     0.014 A 
ENDBRANCH  17  19
ENDBRANCH   1  10
BRANCH   3  25
HETATM   25  C8  UNL     1      22.272   0.240  52.649  1.00  0.00     0.061 C 
HETATM   26  C9  UNL     1      21.534   0.570  53.872  1.00  0.00     0.049 C 
HETATM   27  C10 UNL     1      21.087  -0.869  54.017  1.00  0.00     0.056 C 
HETATM   28  C11 UNL     1      19.638  -1.114  53.645  1.00  0.00     0.045 C 
HETATM   29  C12 UNL     1      22.075  -1.246  52.948  1.00  0.00     0.049 C 
BRANCH  27  30
HETATM   30  O1  UNL     1      21.393  -1.496  55.208  1.00  0.00    -0.390 OA
HETATM   31  H12 UNL     1      20.887  -2.309  55.406  1.00  0.00     0.210 HD
ENDBRANCH  27  30
ENDBRANCH   3  25
TORSDOF 4
ENDMDL
MODEL 2
REMARK VINA RESULT:      -9.6      3.936      9.213
REMARK  4 active torsions:
REMARK  status: ('A' for Active; 'I' for Inactive)
REMARK    1  A    between atoms: C5_5  and  C6_6 
REMARK    2  A    between atoms: C7_8  and  C8_9 
REMARK    3  A    between atoms: C10_11  and  O1_13 
REMARK    4  A    between atoms: C18_23  and  C19_24 
ROOT
HETATM    1  C6  UNL     1      23.748   0.758  52.632  1.00  0.00     0.084 A 
HETATM    2  N1  UNL     1      24.920   0.129  52.833  1.00  0.00    -0.233 NA
HETATM    3  C7  UNL     1      25.942   0.805  52.282  1.00  0.00     0.113 A 
HETATM    4  N2  UNL     1      25.455   1.902  51.704  1.00  0.00    -0.314 N 
HETATM    5  C13 UNL     1      24.125   1.874  51.916  1.00  0.00     0.065 A 
HETATM    6  C14 UNL     1      23.414   3.043  51.306  1.00  0.00     0.232 C 
HETATM    7  N3  UNL     1      23.977   3.354  50.035  1.00  0.00    -0.190 NA
HETATM    8  N4  UNL     1      25.188   3.329  49.880  1.00  0.00    -0.177 NA
HETATM    9  C15 UNL     1      26.053   2.984  50.982  1.00  0.00     0.304 C 
ENDROOT
BRANCH   1  10
HETATM   10  C5  UNL     1      22.419   0.361  53.040  1.00  0.00     0.041 C 
HETATM   11  C4  UNL     1      21.332   0.104  52.353  1.00  0.00    -0.050 C 
HETATM   12  C3  UNL     1      21.353   0.213  50.878  1.00  0.00     0.097 C 
HETATM   13  C16 UNL     1      20.203  -0.277  53.185  1.00  0.00     0.010 C 
HETATM   14  C2  UNL     1      20.060   0.693  50.302  1.00  0.00     0.030 C 
HETATM   15  C1  UNL     1      20.197   1.596  49.345  1.00  0.00     0.040 C 
HETATM   16  N5  UNL     1      18.737   0.328  50.627  1.00  0.00    -0.253 NA
HETATM   17  C18 UNL     1      18.221  -0.124  51.726  1.00  0.00     0.067 C 
HETATM   18  C17 UNL     1      18.905  -0.387  52.978  1.00  0.00     0.033 C 
BRANCH  17  19
HETATM   19  C19 UNL     1      16.793  -0.369  51.617  1.00  0.00    -0.007 A 
HETATM   20  C20 UNL     1      16.225  -0.525  50.375  1.00  0.00     0.014 A 
HETATM   21  C21 UNL     1      14.889  -0.761  50.161  1.00  0.00     0.001 A 
HETATM   22  C22 UNL     1      14.045  -0.851  51.235  1.00  0.00     0.000 A 
HETATM   23  C23 UNL     1      14.575  -0.700  52.499  1.00  0.00     0.001 A 
HETATM   24  C24 UNL     1      15.917  -0.467  52.649  1.00  0.00     0.014 A 
ENDBRANCH  17  19
ENDBRANCH   1  10
BRANCH   3  25
HETATM   25  C8  UNL     1      27.329   0.320  52.368  1.00  0.00     0.061 C 
HETATM   26  C9  UNL     1      27.624  -0.941  53.053  1.00  0.00     0.049 C 
HETATM   27  C10 UNL     1      28.706  -0.269  53.872  1.00  0.00     0.056 C 
HETATM   28  C11 UNL     1      30.118  -0.600  53.432  1.00  0.00     0.045 C 
HETATM   29  C12 UNL     1      28.199   1.060  53.383  1.00  0.00     0.049 C 
BRANCH  27  30
HETATM   30  O1  UNL     1      28.592  -0.361  55.244  1.00  0.00    -0.390 OA
HETATM   31  H12 UNL     1      28.720  -1.253  55.625  1.00  0.00     0.210 HD
ENDBRANCH  27  30
ENDBRANCH   3  25
TORSDOF 4
ENDMDL
MODEL 3
REMARK VINA RESULT:      -9.4      2.607      4.479
REMARK  4 active torsions:
REMARK  status: ('A' for Active; 'I' for Inactive)
REMARK    1  A    between atoms: C5_5  and  C6_6 
REMARK    2  A    between atoms: C7_8  and  C8_9 
REMARK    3  A    between atoms: C10_11  and  O1_13 
REMARK    4  A    between atoms: C18_23  and  C19_24 
ROOT
HETATM    1  C6  UNL     1      24.103   2.664  52.777  1.00  0.00     0.084 A 
HETATM    2  N1  UNL     1      25.324   2.149  53.010  1.00  0.00    -0.233 NA
HETATM    3  C7  UNL     1      25.256   0.840  53.304  1.00  0.00     0.113 A 
HETATM    4  N2  UNL     1      23.978   0.467  53.269  1.00  0.00    -0.314 N 
HETATM    5  C13 UNL     1      23.278   1.574  52.949  1.00  0.00     0.065 A 
HETATM    6  C14 UNL     1      21.802   1.329  52.885  1.00  0.00     0.232 C 
HETATM    7  N3  UNL     1      21.401   0.450  53.931  1.00  0.00    -0.190 NA
HETATM    8  N4  UNL     1      22.088  -0.520  54.211  1.00  0.00    -0.177 NA
HETATM    9  C15 UNL     1      23.307  -0.778  53.485  1.00  0.00     0.304 C 
ENDROOT
BRANCH   1  10
HETATM   10  C5  UNL     1      23.736   4.024  52.452  1.00  0.00     0.041 C 
HETATM   11  C4  UNL     1      23.933   4.753  51.379  1.00  0.00    -0.050 C 
HETATM   12  C3  UNL     1      24.657   4.177  50.225  1.00  0.00     0.097 C 
HETATM   13  C16 UNL     1      23.375   6.091  51.483  1.00  0.00     0.010 C 
HETATM   14  C2  UNL     1      25.492   5.178  49.493  1.00  0.00     0.030 C 
HETATM   15  C1  UNL     1      26.691   4.737  49.155  1.00  0.00     0.040 C 
HETATM   16  N5  UNL     1      25.189   6.503  49.116  1.00  0.00    -0.253 NA
HETATM   17  C18 UNL     1      24.378   7.373  49.631  1.00  0.00     0.067 C 
HETATM   18  C17 UNL     1      23.524   7.204  50.791  1.00  0.00     0.033 C 
BRANCH  17  19
HETATM   19  C19 UNL     1      24.380   8.637  48.913  1.00  0.00    -0.007 A 
HETATM   20  C20 UNL     1      23.193   9.159  48.458  1.00  0.00     0.014 A 
HETATM   21  C21 UNL     1      23.083  10.344  47.771  1.00  0.00     0.001 A 
HETATM   22  C22 UNL     1      24.212  11.071  47.509  1.00  0.00     0.000 A 
HETATM   23  C23 UNL     1      25.425  10.582  47.948  1.00  0.00     0.001 A 
HETATM   24  C24 UNL     1      25.470   9.394  48.629  1.00  0.00     0.014 A 
ENDBRANCH  17  19
ENDBRANCH   1  10
BRANCH   3  25
HETATM   25  C8  UNL     1      26.462   0.047  53.598  1.00  0.00     0.061 C 
HETATM   26  C9  UNL     1      27.461   0.555  54.542  1.00  0.00     0.049 C 
HETATM   27  C10 UNL     1      28.568   0.297  53.542  1.00  0.00     0.056 C 
HETATM   28  C11 UNL     1      29.423  -0.915  53.855  1.00  0.00     0.045 C 
HETATM   29  C12 UNL     1      27.518   0.063  52.493  1.00  0.00     0.049 C 
BRANCH  27  30
HETATM   30  O1  UNL     1      29.363   1.375  53.207  1.00  0.00    -0.390 OA
HETATM   31  H12 UNL     1      29.520   1.509  52.251  1.00  0.00     0.210 HD
ENDBRANCH  27  30
ENDBRANCH   3  25
TORSDOF 4
ENDMDL
MODEL 4
REMARK VINA RESULT:      -9.4      2.426      3.270
REMARK  4 active torsions:
REMARK  status: ('A' for Active; 'I' for Inactive)
REMARK    1  A    between atoms: C5_5  and  C6_6 
REMARK    2  A    between atoms: C7_8  and  C8_9 
REMARK    3  A    between atoms: C10_11  and  O1_13 
REMARK    4  A    between atoms: C18_23  and  C19_24 
ROOT
HETATM    1  C6  UNL     1      22.947   1.299  51.971  1.00  0.00     0.084 A 
HETATM    2  N1  UNL     1      21.669   1.488  51.592  1.00  0.00    -0.233 NA
HETATM    3  C7  UNL     1      20.810   0.990  52.497  1.00  0.00     0.113 A 
HETATM    4  N2  UNL     1      21.513   0.462  53.497  1.00  0.00    -0.314 N 
HETATM    5  C13 UNL     1      22.809   0.649  53.179  1.00  0.00     0.065 A 
HETATM    6  C14 UNL     1      23.746   0.088  54.204  1.00  0.00     0.232 C 
HETATM    7  N3  UNL     1      23.254  -1.155  54.696  1.00  0.00    -0.190 NA
HETATM    8  N4  UNL     1      22.064  -1.289  54.934  1.00  0.00    -0.177 NA
HETATM    9  C15 UNL     1      21.153  -0.192  54.718  1.00  0.00     0.304 C 
ENDROOT
BRANCH   1  10
HETATM   10  C5  UNL     1      24.164   1.661  51.281  1.00  0.00     0.041 C 
HETATM   11  C4  UNL     1      24.670   2.825  50.948  1.00  0.00    -0.050 C 
HETATM   12  C3  UNL     1      23.943   4.066  51.292  1.00  0.00     0.097 C 
HETATM   13  C16 UNL     1      25.945   2.721  50.259  1.00  0.00     0.010 C 
HETATM   14  C2  UNL     1      24.105   5.147  50.273  1.00  0.00     0.030 C 
HETATM   15  C1  UNL     1      22.986   5.790  49.984  1.00  0.00     0.040 C 
HETATM   16  N5  UNL     1      25.261   5.573  49.586  1.00  0.00    -0.253 NA
HETATM   17  C18 UNL     1      26.348   4.943  49.269  1.00  0.00     0.067 C 
HETATM   18  C17 UNL     1      26.679   3.560  49.554  1.00  0.00     0.033 C 
BRANCH  17  19
HETATM   19  C19 UNL     1      27.293   5.780  48.549  1.00  0.00    -0.007 A 
HETATM   20  C20 UNL     1      26.864   6.959  47.989  1.00  0.00     0.014 A 
HETATM   21  C21 UNL     1      27.673   7.822  47.290  1.00  0.00     0.001 A 
HETATM   22  C22 UNL     1      28.996   7.511  47.124  1.00  0.00     0.000 A 
HETATM   23  C23 UNL     1      29.467   6.336  47.671  1.00  0.00     0.001 A 
HETATM   24  C24 UNL     1      28.611   5.516  48.358  1.00  0.00     0.014 A 
ENDBRANCH  17  19
ENDBRANCH   1  10
BRANCH   3  25
HETATM   25  C8  UNL     1      19.352   1.075  52.311  1.00  0.00     0.061 C 
HETATM   26  C9  UNL     1      18.633  -0.017  51.648  1.00  0.00     0.049 C 
HETATM   27  C10 UNL     1      17.955   0.965  50.717  1.00  0.00     0.056 C 
HETATM   28  C11 UNL     1      16.500   1.235  51.046  1.00  0.00     0.045 C 
HETATM   29  C12 UNL     1      18.907   2.024  51.199  1.00  0.00     0.049 C 
BRANCH  27  30
HETATM   30  O1  UNL     1      18.112   0.745  49.363  1.00  0.00    -0.390 OA
HETATM   31  H12 UNL     1      18.884   0.205  49.105  1.00  0.00     0.210 HD
ENDBRANCH  27  30
ENDBRANCH   3  25
TORSDOF 4
ENDMDL
MODEL 5
REMARK VINA RESULT:      -9.1      4.029     10.323
REMARK  4 active torsions:
REMARK  status: ('A' for Active; 'I' for Inactive)
REMARK    1  A    between atoms: C5_5  and  C6_6 
REMARK    2  A    between atoms: C7_8  and  C8_9 
REMARK    3  A    between atoms: C10_11  and  O1_13 
REMARK    4  A    between atoms: C18_23  and  C19_24 
ROOT
HETATM    1  C6  UNL     1      21.857   2.454  51.487  1.00  0.00     0.084 A 
HETATM    2  N1  UNL     1      23.087   1.966  51.737  1.00  0.00    -0.233 NA
HETATM    3  C7  UNL     1      23.987   2.953  51.878  1.00  0.00     0.113 A 
HETATM    4  N2  UNL     1      23.361   4.118  51.722  1.00  0.00    -0.314 N 
HETATM    5  C13 UNL     1      22.069   3.817  51.486  1.00  0.00     0.065 A 
HETATM    6  C14 UNL     1      21.220   5.030  51.267  1.00  0.00     0.232 C 
HETATM    7  N3  UNL     1      21.929   5.998  50.499  1.00  0.00    -0.190 NA
HETATM    8  N4  UNL     1      23.110   6.210  50.725  1.00  0.00    -0.177 NA
HETATM    9  C15 UNL     1      23.791   5.483  51.767  1.00  0.00     0.304 C 
ENDROOT
BRANCH   1  10
HETATM   10  C5  UNL     1      20.624   1.738  51.254  1.00  0.00     0.041 C 
HETATM   11  C4  UNL     1      19.936   0.910  52.003  1.00  0.00    -0.050 C 
HETATM   12  C3  UNL     1      20.421   0.572  53.358  1.00  0.00     0.097 C 
HETATM   13  C16 UNL     1      18.727   0.423  51.360  1.00  0.00     0.010 C 
HETATM   14  C2  UNL     1      20.113  -0.834  53.762  1.00  0.00     0.030 C 
HETATM   15  C1  UNL     1      21.112  -1.455  54.365  1.00  0.00     0.040 C 
HETATM   16  N5  UNL     1      18.928  -1.582  53.596  1.00  0.00    -0.253 NA
HETATM   17  C18 UNL     1      17.981  -1.497  52.715  1.00  0.00     0.067 C 
HETATM   18  C17 UNL     1      17.886  -0.561  51.611  1.00  0.00     0.033 C 
BRANCH  17  19
HETATM   19  C19 UNL     1      16.933  -2.483  52.920  1.00  0.00    -0.007 A 
HETATM   20  C20 UNL     1      17.204  -3.618  53.647  1.00  0.00     0.014 A 
HETATM   21  C21 UNL     1      16.288  -4.610  53.900  1.00  0.00     0.001 A 
HETATM   22  C22 UNL     1      15.017  -4.487  53.408  1.00  0.00     0.000 A 
HETATM   23  C23 UNL     1      14.704  -3.364  52.672  1.00  0.00     0.001 A 
HETATM   24  C24 UNL     1      15.661  -2.408  52.453  1.00  0.00     0.014 A 
ENDBRANCH  17  19
ENDBRANCH   1  10
BRANCH   3  25
HETATM   25  C8  UNL     1      25.405   2.674  52.159  1.00  0.00     0.061 C 
HETATM   26  C9  UNL     1      25.979   1.372  51.809  1.00  0.00     0.049 C 
HETATM   27  C10 UNL     1      26.553   1.227  53.203  1.00  0.00     0.056 C 
HETATM   28  C11 UNL     1      28.050   1.454  53.289  1.00  0.00     0.045 C 
HETATM   29  C12 UNL     1      25.721   2.404  53.629  1.00  0.00     0.049 C 
BRANCH  27  30
HETATM   30  O1  UNL     1      26.195   0.094  53.906  1.00  0.00    -0.390 OA
HETATM   31  H12 UNL     1      26.586  -0.745  53.593  1.00  0.00     0.210 HD
ENDBRANCH  27  30
ENDBRANCH   3  25
TORSDOF 4
ENDMDL
MODEL 6
REMARK VINA RESULT:      -9.1      4.109      8.717
REMARK  4 active torsions:
REMARK  status: ('A' for Active; 'I' for Inactive)
REMARK    1  A    between atoms: C5_5  and  C6_6 
REMARK    2  A    between atoms: C7_8  and  C8_9 
REMARK    3  A    between atoms: C10_11  and  O1_13 
REMARK    4  A    between atoms: C18_23  and  C19_24 
ROOT
HETATM    1  C6  UNL     1      22.088   4.566  48.933  1.00  0.00     0.084 A 
HETATM    2  N1  UNL     1      21.875   5.871  49.179  1.00  0.00    -0.233 NA
HETATM    3  C7  UNL     1      21.416   6.508  48.088  1.00  0.00     0.113 A 
HETATM    4  N2  UNL     1      21.318   5.624  47.097  1.00  0.00    -0.314 N 
HETATM    5  C13 UNL     1      21.725   4.446  47.608  1.00  0.00     0.065 A 
HETATM    6  C14 UNL     1      21.693   3.334  46.605  1.00  0.00     0.232 C 
HETATM    7  N3  UNL     1      22.129   3.804  45.333  1.00  0.00    -0.190 NA
HETATM    8  N4  UNL     1      21.764   4.897  44.927  1.00  0.00    -0.177 NA
HETATM    9  C15 UNL     1      20.891   5.715  45.733  1.00  0.00     0.304 C 
ENDROOT
BRANCH   1  10
HETATM   10  C5  UNL     1      22.594   3.543  49.820  1.00  0.00     0.041 C 
HETATM   11  C4  UNL     1      23.763   3.379  50.393  1.00  0.00    -0.050 C 
HETATM   12  C3  UNL     1      24.840   4.363  50.156  1.00  0.00     0.097 C 
HETATM   13  C16 UNL     1      23.831   2.192  51.229  1.00  0.00     0.010 C 
HETATM   14  C2  UNL     1      26.204   3.752  50.130  1.00  0.00     0.030 C 
HETATM   15  C1  UNL     1      26.981   4.204  49.160  1.00  0.00     0.040 C 
HETATM   16  N5  UNL     1      26.772   2.779  50.978  1.00  0.00    -0.253 NA
HETATM   17  C18 UNL     1      26.228   1.835  51.681  1.00  0.00     0.067 C 
HETATM   18  C17 UNL     1      24.817   1.516  51.786  1.00  0.00     0.033 C 
BRANCH  17  19
HETATM   19  C19 UNL     1      27.204   1.050  52.418  1.00  0.00    -0.007 A 
HETATM   20  C20 UNL     1      27.105  -0.321  52.423  1.00  0.00     0.014 A 
HETATM   21  C21 UNL     1      27.973  -1.156  53.085  1.00  0.00     0.001 A 
HETATM   22  C22 UNL     1      29.011  -0.614  53.793  1.00  0.00     0.000 A 
HETATM   23  C23 UNL     1      29.146   0.758  53.815  1.00  0.00     0.001 A 
HETATM   24  C24 UNL     1      28.248   1.538  53.134  1.00  0.00     0.014 A 
ENDBRANCH  17  19
ENDBRANCH   1  10
BRANCH   3  25
HETATM   25  C8  UNL     1      21.104   7.947  48.104  1.00  0.00     0.061 C 
HETATM   26  C9  UNL     1      21.205   8.705  49.354  1.00  0.00     0.049 C 
HETATM   27  C10 UNL     1      19.816   9.272  49.148  1.00  0.00     0.056 C 
HETATM   28  C11 UNL     1      19.793  10.719  48.698  1.00  0.00     0.045 C 
HETATM   29  C12 UNL     1      19.613   8.274  48.041  1.00  0.00     0.049 C 
BRANCH  27  30
HETATM   30  O1  UNL     1      18.906   9.067  50.165  1.00  0.00    -0.390 OA
HETATM   31  H12 UNL     1      19.251   8.621  50.964  1.00  0.00     0.210 HD
ENDBRANCH  27  30
ENDBRANCH   3  25
TORSDOF 4
ENDMDL
MODEL 7
REMARK VINA RESULT:      -9.0      3.076      9.795
REMARK  4 active torsions:
REMARK  status: ('A' for Active; 'I' for Inactive)
REMARK    1  A    between atoms: C5_5  and  C6_6 
REMARK    2  A    between atoms: C7_8  and  C8_9 
REMARK    3  A    between atoms: C10_11  and  O1_13 
REMARK    4  A    between atoms: C18_23  and  C19_24 
ROOT
HETATM    1  C6  UNL     1      25.556   5.591  48.804  1.00  0.00     0.084 A 
HETATM    2  N1  UNL     1      26.842   5.308  48.524  1.00  0.00    -0.233 NA
HETATM    3  C7  UNL     1      27.517   6.409  48.152  1.00  0.00     0.113 A 
HETATM    4  N2  UNL     1      26.680   7.445  48.184  1.00  0.00    -0.314 N 
HETATM    5  C13 UNL     1      25.491   6.950  48.579  1.00  0.00     0.065 A 
HETATM    6  C14 UNL     1      24.420   7.995  48.649  1.00  0.00     0.232 C 
HETATM    7  N3  UNL     1      24.543   8.902  47.557  1.00  0.00    -0.190 NA
HETATM    8  N4  UNL     1      25.646   9.294  47.210  1.00  0.00    -0.177 NA
HETATM    9  C15 UNL     1      26.828   8.840  47.902  1.00  0.00     0.304 C 
ENDROOT
BRANCH   1  10
HETATM   10  C5  UNL     1      24.496   4.699  49.216  1.00  0.00     0.041 C 
HETATM   11  C4  UNL     1      24.349   3.944  50.279  1.00  0.00    -0.050 C 
HETATM   12  C3  UNL     1      25.404   3.924  51.315  1.00  0.00     0.097 C 
HETATM   13  C16 UNL     1      23.099   3.203  50.288  1.00  0.00     0.010 C 
HETATM   14  C2  UNL     1      25.562   2.590  51.970  1.00  0.00     0.030 C 
HETATM   15  C1  UNL     1      26.820   2.218  52.142  1.00  0.00     0.040 C 
HETATM   16  N5  UNL     1      24.580   1.684  52.423  1.00  0.00    -0.253 NA
HETATM   17  C18 UNL     1      23.357   1.488  52.042  1.00  0.00     0.067 C 
HETATM   18  C17 UNL     1      22.640   2.186  50.991  1.00  0.00     0.033 C 
BRANCH  17  19
HETATM   19  C19 UNL     1      22.695   0.436  52.794  1.00  0.00    -0.007 A 
HETATM   20  C20 UNL     1      23.377  -0.213  53.795  1.00  0.00     0.014 A 
HETATM   21  C21 UNL     1      22.847  -1.219  54.565  1.00  0.00     0.001 A 
HETATM   22  C22 UNL     1      21.558  -1.622  54.343  1.00  0.00     0.000 A 
HETATM   23  C23 UNL     1      20.838  -0.996  53.346  1.00  0.00     0.001 A 
HETATM   24  C24 UNL     1      21.422   0.001  52.611  1.00  0.00     0.014 A 
ENDBRANCH  17  19
ENDBRANCH   1  10
BRANCH   3  25
HETATM   25  C8  UNL     1      28.944   6.360  47.795  1.00  0.00     0.061 C 
HETATM   26  C9  UNL     1      29.731   5.158  48.087  1.00  0.00     0.049 C 
HETATM   27  C10 UNL     1      30.801   5.995  48.756  1.00  0.00     0.056 C 
HETATM   28  C11 UNL     1      32.060   6.177  47.932  1.00  0.00     0.045 C 
HETATM   29  C12 UNL     1      29.858   7.166  48.716  1.00  0.00     0.049 C 
BRANCH  27  30
HETATM   30  O1  UNL     1      31.119   5.668  50.059  1.00  0.00    -0.390 OA
HETATM   31  H12 UNL     1      32.068   5.703  50.289  1.00  0.00     0.210 HD
ENDBRANCH  27  30
ENDBRANCH   3  25
TORSDOF 4
ENDMDL
MODEL 8
REMARK VINA RESULT:      -9.0      4.171      8.718
REMARK  4 active torsions:
REMARK  status: ('A' for Active; 'I' for Inactive)
REMARK    1  A    between atoms: C5_5  and  C6_6 
REMARK    2  A    between atoms: C7_8  and  C8_9 
REMARK    3  A    between atoms: C10_11  and  O1_13 
REMARK    4  A    between atoms: C18_23  and  C19_24 
ROOT
HETATM    1  C6  UNL     1      22.171   4.744  48.983  1.00  0.00     0.084 A 
HETATM    2  N1  UNL     1      21.812   4.670  47.688  1.00  0.00    -0.233 NA
HETATM    3  C7  UNL     1      21.408   5.863  47.222  1.00  0.00     0.113 A 
HETATM    4  N2  UNL     1      21.496   6.752  48.210  1.00  0.00    -0.314 N 
HETATM    5  C13 UNL     1      21.959   6.074  49.279  1.00  0.00     0.065 A 
HETATM    6  C14 UNL     1      22.100   6.934  50.496  1.00  0.00     0.232 C 
HETATM    7  N3  UNL     1      21.009   7.845  50.587  1.00  0.00    -0.190 NA
HETATM    8  N4  UNL     1      20.599   8.408  49.583  1.00  0.00    -0.177 NA
HETATM    9  C15 UNL     1      21.215   8.152  48.305  1.00  0.00     0.304 C 
ENDROOT
BRANCH   1  10
HETATM   10  C5  UNL     1      22.639   3.694  49.859  1.00  0.00     0.041 C 
HETATM   11  C4  UNL     1      23.805   3.476  50.421  1.00  0.00    -0.050 C 
HETATM   12  C3  UNL     1      24.922   4.414  50.180  1.00  0.00     0.097 C 
HETATM   13  C16 UNL     1      23.828   2.282  51.249  1.00  0.00     0.010 C 
HETATM   14  C2  UNL     1      26.258   3.744  50.138  1.00  0.00     0.030 C 
HETATM   15  C1  UNL     1      27.045   4.168  49.163  1.00  0.00     0.040 C 
HETATM   16  N5  UNL     1      26.790   2.741  50.974  1.00  0.00    -0.253 NA
HETATM   17  C18 UNL     1      26.212   1.817  51.676  1.00  0.00     0.067 C 
HETATM   18  C17 UNL     1      24.789   1.559  51.792  1.00  0.00     0.033 C 
BRANCH  17  19
HETATM   19  C19 UNL     1      27.159   0.985  52.399  1.00  0.00    -0.007 A 
HETATM   20  C20 UNL     1      28.197   1.575  53.081  1.00  0.00     0.014 A 
HETATM   21  C21 UNL     1      29.144   0.883  53.795  1.00  0.00     0.001 A 
HETATM   22  C22 UNL     1      29.075  -0.483  53.848  1.00  0.00     0.000 A 
HETATM   23  C23 UNL     1      28.049  -1.115  53.177  1.00  0.00     0.001 A 
HETATM   24  C24 UNL     1      27.133  -0.369  52.481  1.00  0.00     0.014 A 
ENDBRANCH  17  19
ENDBRANCH   1  10
BRANCH   3  25
HETATM   25  C8  UNL     1      20.966   6.043  45.829  1.00  0.00     0.061 C 
HETATM   26  C9  UNL     1      19.931   5.167  45.270  1.00  0.00     0.049 C 
HETATM   27  C10 UNL     1      20.798   4.877  44.063  1.00  0.00     0.056 C 
HETATM   28  C11 UNL     1      20.364   5.589  42.797  1.00  0.00     0.045 C 
HETATM   29  C12 UNL     1      21.949   5.529  44.778  1.00  0.00     0.049 C 
BRANCH  27  30
HETATM   30  O1  UNL     1      21.073   3.550  43.802  1.00  0.00    -0.390 OA
HETATM   31  H12 UNL     1      21.437   3.355  42.915  1.00  0.00     0.210 HD
ENDBRANCH  27  30
ENDBRANCH   3  25
TORSDOF 4
ENDMDL
MODEL 9
REMARK VINA RESULT:      -8.9      4.505      9.869
REMARK  4 active torsions:
REMARK  status: ('A' for Active; 'I' for Inactive)
REMARK    1  A    between atoms: C5_5  and  C6_6 
REMARK    2  A    between atoms: C7_8  and  C8_9 
REMARK    3  A    between atoms: C10_11  and  O1_13 
REMARK    4  A    between atoms: C18_23  and  C19_24 
ROOT
HETATM    1  C6  UNL     1      29.531   6.185  48.220  1.00  0.00     0.084 A 
HETATM    2  N1  UNL     1      29.371   7.511  48.387  1.00  0.00    -0.233 NA
HETATM    3  C7  UNL     1      30.437   8.195  47.939  1.00  0.00     0.113 A 
HETATM    4  N2  UNL     1      31.326   7.323  47.465  1.00  0.00    -0.314 N 
HETATM    5  C13 UNL     1      30.777   6.104  47.636  1.00  0.00     0.065 A 
HETATM    6  C14 UNL     1      31.667   4.995  47.166  1.00  0.00     0.232 C 
HETATM    7  N3  UNL     1      33.023   5.273  47.502  1.00  0.00    -0.190 NA
HETATM    8  N4  UNL     1      33.465   6.403  47.366  1.00  0.00    -0.177 NA
HETATM    9  C15 UNL     1      32.619   7.459  46.868  1.00  0.00     0.304 C 
ENDROOT
BRANCH   1  10
HETATM   10  C5  UNL     1      28.638   5.107  48.583  1.00  0.00     0.041 C 
HETATM   11  C4  UNL     1      27.355   5.086  48.854  1.00  0.00    -0.050 C 
HETATM   12  C3  UNL     1      26.576   6.342  48.814  1.00  0.00     0.097 C 
HETATM   13  C16 UNL     1      26.856   3.757  49.165  1.00  0.00     0.010 C 
HETATM   14  C2  UNL     1      25.482   6.391  49.831  1.00  0.00     0.030 C 
HETATM   15  C1  UNL     1      25.378   7.551  50.458  1.00  0.00     0.040 C 
HETATM   16  N5  UNL     1      24.559   5.395  50.211  1.00  0.00    -0.253 NA
HETATM   17  C18 UNL     1      24.633   4.102  50.175  1.00  0.00     0.067 C 
HETATM   18  C17 UNL     1      25.746   3.296  49.707  1.00  0.00     0.033 C 
BRANCH  17  19
HETATM   19  C19 UNL     1      23.432   3.455  50.675  1.00  0.00    -0.007 A 
HETATM   20  C20 UNL     1      22.521   4.185  51.400  1.00  0.00     0.014 A 
HETATM   21  C21 UNL     1      21.356   3.673  51.917  1.00  0.00     0.001 A 
HETATM   22  C22 UNL     1      21.059   2.353  51.714  1.00  0.00     0.000 A 
HETATM   23  C23 UNL     1      21.947   1.584  50.991  1.00  0.00     0.001 A 
HETATM   24  C24 UNL     1      23.093   2.152  50.500  1.00  0.00     0.014 A 
ENDBRANCH  17  19
ENDBRANCH   1  10
BRANCH   3  25
HETATM   25  C8  UNL     1      30.502   9.664  48.009  1.00  0.00     0.061 C 
HETATM   26  C9  UNL     1      30.540  10.334  49.312  1.00  0.00     0.049 C 
HETATM   27  C10 UNL     1      29.409  11.252  48.896  1.00  0.00     0.056 C 
HETATM   28  C11 UNL     1      29.842  12.666  48.565  1.00  0.00     0.045 C 
HETATM   29  C12 UNL     1      29.185  10.374  47.697  1.00  0.00     0.049 C 
BRANCH  27  30
HETATM   30  O1  UNL     1      28.293  11.266  49.707  1.00  0.00    -0.390 OA
HETATM   31  H12 UNL     1      27.475  11.620  49.304  1.00  0.00     0.210 HD
ENDBRANCH  27  30
ENDBRANCH   3  25
TORSDOF 4
ENDMDL
