MODEL 1
REMARK VINA RESULT:      -8.3      0.000      0.000
REMARK  6 active torsions:
REMARK  status: ('A' for Active; 'I' for Inactive)
REMARK    1  A    between atoms: C3_4  and  N1_5 
REMARK    2  A    between atoms: N1_5  and  C4_6 
REMARK    3  A    between atoms: C6_8  and  C7_9 
REMARK    4  A    between atoms: C15_20  and  O1_21 
REMARK    5  A    between atoms: O1_21  and  C16_22 
REMARK    6  A    between atoms: C16_22  and  C17_23 
ROOT
HETATM    1  N1  UNL     1      21.564   1.104  52.550  1.00  0.00    -0.341 N 
HETATM    2  H2  UNL     1      20.526   0.948  52.506  1.00  0.00     0.167 HD
ENDROOT
BRANCH   1   3
HETATM    3  C3  UNL     1      22.026   2.140  51.704  1.00  0.00     0.035 A 
HETATM    4  C2  UNL     1      22.231   1.945  50.335  1.00  0.00     0.056 A 
HETATM    5  C1  UNL     1      22.678   2.935  49.509  1.00  0.00     0.069 A 
HETATM    6 CL1  UNL     1      22.890   2.549  47.814  1.00  0.00    -0.081 Cl
HETATM    7  C15 UNL     1      22.954   4.197  49.986  1.00  0.00     0.091 A 
HETATM    8  C14 UNL     1      22.773   4.452  51.326  1.00  0.00     0.041 A 
HETATM    9  C13 UNL     1      22.321   3.420  52.117  1.00  0.00     0.032 A 
BRANCH   7  10
HETATM   10  O1  UNL     1      23.403   5.133  49.067  1.00  0.00    -0.345 OA
BRANCH  10  11
HETATM   11  C16 UNL     1      24.477   6.001  49.396  1.00  0.00     0.214 C 
BRANCH  11  12
HETATM   12  C17 UNL     1      25.787   5.401  49.128  1.00  0.00    -0.034 A 
HETATM   13  C18 UNL     1      26.403   4.250  49.301  1.00  0.00     0.009 A 
HETATM   14  C19 UNL     1      27.570   4.855  48.670  1.00  0.00     0.001 A 
HETATM   15  C20 UNL     1      26.955   6.004  48.497  1.00  0.00     0.009 A 
ENDBRANCH  11  12
ENDBRANCH  10  11
ENDBRANCH   7  10
ENDBRANCH   1   3
BRANCH   1  16
HETATM   16  C4  UNL     1      22.311   0.276  53.426  1.00  0.00     0.131 A 
HETATM   17  C5  UNL     1      23.687   0.283  53.342  1.00  0.00     0.083 A 
HETATM   18  C6  UNL     1      24.478  -0.491  54.156  1.00  0.00     0.073 A 
HETATM   19  N3  UNL     1      23.877  -1.279  55.063  1.00  0.00    -0.241 NA
HETATM   20  C12 UNL     1      22.537  -1.320  55.182  1.00  0.00     0.235 A 
HETATM   21  N4  UNL     1      21.829  -0.545  54.364  1.00  0.00    -0.224 NA
BRANCH  18  22
HETATM   22  C7  UNL     1      25.931  -0.514  54.101  1.00  0.00     0.010 A 
HETATM   23  C8  UNL     1      26.543  -1.107  53.031  1.00  0.00     0.017 A 
HETATM   24  C9  UNL     1      27.921  -1.137  52.965  1.00  0.00     0.020 A 
HETATM   25  C10 UNL     1      28.732  -0.595  53.932  1.00  0.00     0.116 A 
HETATM   26  N2  UNL     1      28.114  -0.020  54.971  1.00  0.00    -0.272 NA
HETATM   27  C11 UNL     1      26.772   0.020  55.053  1.00  0.00     0.130 A 
ENDBRANCH  18  22
ENDBRANCH   1  16
TORSDOF 6
ENDMDL
MODEL 2
REMARK VINA RESULT:      -8.1      3.570      5.133
REMARK  6 active torsions:
REMARK  status: ('A' for Active; 'I' for Inactive)
REMARK    1  A    between atoms: C3_4  and  N1_5 
REMARK    2  A    between atoms: N1_5  and  C4_6 
REMARK    3  A    between atoms: C6_8  and  C7_9 
REMARK    4  A    between atoms: C15_20  and  O1_21 
REMARK    5  A    between atoms: O1_21  and  C16_22 
REMARK    6  A    between atoms: C16_22  and  C17_23 
ROOT
HETATM    1  N1  UNL     1      25.692   3.757  49.594  1.00  0.00    -0.341 N 
HETATM    2  H2  UNL     1      25.170   3.329  48.790  1.00  0.00     0.167 HD
ENDROOT
BRANCH   1   3
HETATM    3  C3  UNL     1      26.418   4.923  49.253  1.00  0.00     0.035 A 
HETATM    4  C2  UNL     1      25.948   6.205  49.554  1.00  0.00     0.056 A 
HETATM    5  C1  UNL     1      26.637   7.337  49.230  1.00  0.00     0.069 A 
HETATM    6 CL1  UNL     1      25.929   8.877  49.668  1.00  0.00    -0.081 Cl
HETATM    7  C15 UNL     1      27.850   7.277  48.580  1.00  0.00     0.091 A 
HETATM    8  C14 UNL     1      28.367   6.043  48.256  1.00  0.00     0.041 A 
HETATM    9  C13 UNL     1      27.633   4.932  48.604  1.00  0.00     0.032 A 
BRANCH   7  10
HETATM   10  O1  UNL     1      28.472   8.483  48.295  1.00  0.00    -0.345 OA
BRANCH  10  11
HETATM   11  C16 UNL     1      29.371   9.062  49.229  1.00  0.00     0.214 C 
BRANCH  11  12
HETATM   12  C17 UNL     1      30.770   8.743  48.934  1.00  0.00    -0.034 A 
HETATM   13  C18 UNL     1      31.752   9.194  48.181  1.00  0.00     0.009 A 
HETATM   14  C19 UNL     1      32.575   8.120  48.725  1.00  0.00     0.001 A 
HETATM   15  C20 UNL     1      31.594   7.669  49.476  1.00  0.00     0.009 A 
ENDBRANCH  11  12
ENDBRANCH  10  11
ENDBRANCH   7  10
ENDBRANCH   1   3
BRANCH   1  16
HETATM   16  C4  UNL     1      25.587   3.117  50.854  1.00  0.00     0.131 A 
HETATM   17  C5  UNL     1      26.555   2.208  51.227  1.00  0.00     0.083 A 
HETATM   18  C6  UNL     1      26.522   1.549  52.431  1.00  0.00     0.073 A 
HETATM   19  N3  UNL     1      25.503   1.807  53.269  1.00  0.00    -0.241 NA
HETATM   20  C12 UNL     1      24.536   2.685  52.949  1.00  0.00     0.235 A 
HETATM   21  N4  UNL     1      24.628   3.290  51.769  1.00  0.00    -0.224 NA
BRANCH  18  22
HETATM   22  C7  UNL     1      27.521   0.583  52.861  1.00  0.00     0.010 A 
HETATM   23  C8  UNL     1      28.740   1.036  53.287  1.00  0.00     0.017 A 
HETATM   24  C9  UNL     1      29.696   0.132  53.698  1.00  0.00     0.020 A 
HETATM   25  C10 UNL     1      29.494  -1.226  53.705  1.00  0.00     0.116 A 
HETATM   26  N2  UNL     1      28.295  -1.650  53.284  1.00  0.00    -0.272 NA
HETATM   27  C11 UNL     1      27.349  -0.784  52.880  1.00  0.00     0.130 A 
ENDBRANCH  18  22
ENDBRANCH   1  16
TORSDOF 6
ENDMDL
MODEL 3
REMARK VINA RESULT:      -7.9      2.012      2.761
REMARK  6 active torsions:
REMARK  status: ('A' for Active; 'I' for Inactive)
REMARK    1  A    between atoms: C3_4  and  N1_5 
REMARK    2  A    between atoms: N1_5  and  C4_6 
REMARK    3  A    between atoms: C6_8  and  C7_9 
REMARK    4  A    between atoms: C15_20  and  O1_21 
REMARK    5  A    between atoms: O1_21  and  C16_22 
REMARK    6  A    between atoms: C16_22  and  C17_23 
ROOT
HETATM    1  N1  UNL     1      23.039   2.612  51.039  1.00  0.00    -0.341 N 
HETATM    2  H2  UNL     1      22.047   2.702  50.705  1.00  0.00     0.167 HD
ENDROOT
BRANCH   1   3
HETATM    3  C3  UNL     1      23.890   3.653  50.599  1.00  0.00     0.035 A 
HETATM    4  C2  UNL     1      23.682   4.987  50.963  1.00  0.00     0.056 A 
HETATM    5  C1  UNL     1      24.495   6.000  50.545  1.00  0.00     0.069 A 
HETATM    6 CL1  UNL     1      24.114   7.624  51.077  1.00  0.00    -0.081 Cl
HETATM    7  C15 UNL     1      25.579   5.760  49.730  1.00  0.00     0.091 A 
HETATM    8  C14 UNL     1      25.838   4.467  49.337  1.00  0.00     0.041 A 
HETATM    9  C13 UNL     1      24.988   3.481  49.786  1.00  0.00     0.032 A 
BRANCH   7  10
HETATM   10  O1  UNL     1      26.343   6.856  49.361  1.00  0.00    -0.345 OA
BRANCH  10  11
HETATM   11  C16 UNL     1      26.851   6.961  48.039  1.00  0.00     0.214 C 
BRANCH  11  12
HETATM   12  C17 UNL     1      28.273   6.615  47.954  1.00  0.00    -0.034 A 
HETATM   13  C18 UNL     1      29.053   5.575  48.162  1.00  0.00     0.009 A 
HETATM   14  C19 UNL     1      30.173   6.418  47.761  1.00  0.00     0.001 A 
HETATM   15  C20 UNL     1      29.394   7.457  47.554  1.00  0.00     0.009 A 
ENDBRANCH  11  12
ENDBRANCH  10  11
ENDBRANCH   7  10
ENDBRANCH   1   3
BRANCH   1  16
HETATM   16  C4  UNL     1      23.354   1.496  51.853  1.00  0.00     0.131 A 
HETATM   17  C5  UNL     1      24.655   1.319  52.274  1.00  0.00     0.083 A 
HETATM   18  C6  UNL     1      25.037   0.263  53.064  1.00  0.00     0.073 A 
HETATM   19  N3  UNL     1      24.099  -0.625  53.435  1.00  0.00    -0.241 NA
HETATM   20  C12 UNL     1      22.816  -0.495  53.050  1.00  0.00     0.235 A 
HETATM   21  N4  UNL     1      22.513   0.551  52.286  1.00  0.00    -0.224 NA
BRANCH  18  22
HETATM   22  C7  UNL     1      26.397   0.040  53.528  1.00  0.00     0.010 A 
HETATM   23  C8  UNL     1      27.210  -0.800  52.817  1.00  0.00     0.017 A 
HETATM   24  C9  UNL     1      28.502  -1.021  53.246  1.00  0.00     0.020 A 
HETATM   25  C10 UNL     1      29.032  -0.436  54.369  1.00  0.00     0.116 A 
HETATM   26  N2  UNL     1      28.221   0.382  55.052  1.00  0.00    -0.272 NA
HETATM   27  C11 UNL     1      26.958   0.610  54.650  1.00  0.00     0.130 A 
ENDBRANCH  18  22
ENDBRANCH   1  16
TORSDOF 6
ENDMDL
MODEL 4
REMARK VINA RESULT:      -7.7      5.058      8.540
REMARK  6 active torsions:
REMARK  status: ('A' for Active; 'I' for Inactive)
REMARK    1  A    between atoms: C3_4  and  N1_5 
REMARK    2  A    between atoms: N1_5  and  C4_6 
REMARK    3  A    between atoms: C6_8  and  C7_9 
REMARK    4  A    between atoms: C15_20  and  O1_21 
REMARK    5  A    between atoms: O1_21  and  C16_22 
REMARK    6  A    between atoms: C16_22  and  C17_23 
ROOT
HETATM    1  N1  UNL     1      27.481   6.415  48.218  1.00  0.00    -0.341 N 
HETATM    2  H2  UNL     1      26.898   6.940  47.519  1.00  0.00     0.167 HD
ENDROOT
BRANCH   1   3
HETATM    3  C3  UNL     1      26.757   5.458  48.967  1.00  0.00     0.035 A 
HETATM    4  C2  UNL     1      25.611   5.795  49.693  1.00  0.00     0.056 A 
HETATM    5  C1  UNL     1      24.905   4.882  50.420  1.00  0.00     0.069 A 
HETATM    6 CL1  UNL     1      23.488   5.444  51.282  1.00  0.00    -0.081 Cl
HETATM    7  C15 UNL     1      25.289   3.561  50.479  1.00  0.00     0.091 A 
HETATM    8  C14 UNL     1      26.410   3.166  49.786  1.00  0.00     0.041 A 
HETATM    9  C13 UNL     1      27.087   4.125  49.068  1.00  0.00     0.032 A 
BRANCH   7  10
HETATM   10  O1  UNL     1      24.505   2.711  51.245  1.00  0.00    -0.345 OA
BRANCH  10  11
HETATM   11  C16 UNL     1      24.909   2.356  52.560  1.00  0.00     0.214 C 
BRANCH  11  12
HETATM   12  C17 UNL     1      25.399   0.978  52.644  1.00  0.00    -0.034 A 
HETATM   13  C18 UNL     1      25.036  -0.172  53.172  1.00  0.00     0.009 A 
HETATM   14  C19 UNL     1      26.253  -0.742  52.606  1.00  0.00     0.001 A 
HETATM   15  C20 UNL     1      26.616   0.407  52.079  1.00  0.00     0.009 A 
ENDBRANCH  11  12
ENDBRANCH  10  11
ENDBRANCH   7  10
ENDBRANCH   1   3
BRANCH   1  16
HETATM   16  C4  UNL     1      28.859   6.741  48.293  1.00  0.00     0.131 A 
HETATM   17  C5  UNL     1      29.793   5.774  47.988  1.00  0.00     0.083 A 
HETATM   18  C6  UNL     1      31.145   6.013  48.037  1.00  0.00     0.073 A 
HETATM   19  N3  UNL     1      31.559   7.240  48.399  1.00  0.00    -0.241 NA
HETATM   20  C12 UNL     1      30.685   8.216  48.705  1.00  0.00     0.235 A 
HETATM   21  N4  UNL     1      29.391   7.918  48.637  1.00  0.00    -0.224 NA
BRANCH  18  22
HETATM   22  C7  UNL     1      32.162   5.023  47.725  1.00  0.00     0.010 A 
HETATM   23  C8  UNL     1      31.804   3.905  47.022  1.00  0.00     0.017 A 
HETATM   24  C9  UNL     1      32.759   2.957  46.719  1.00  0.00     0.020 A 
HETATM   25  C10 UNL     1      34.077   3.071  47.089  1.00  0.00     0.116 A 
HETATM   26  N2  UNL     1      34.407   4.172  47.776  1.00  0.00    -0.272 NA
HETATM   27  C11 UNL     1      33.491   5.108  48.081  1.00  0.00     0.130 A 
ENDBRANCH  18  22
ENDBRANCH   1  16
TORSDOF 6
ENDMDL
MODEL 5
REMARK VINA RESULT:      -7.7      4.097      7.089
REMARK  6 active torsions:
REMARK  status: ('A' for Active; 'I' for Inactive)
REMARK    1  A    between atoms: C3_4  and  N1_5 
REMARK    2  A    between atoms: N1_5  and  C4_6 
REMARK    3  A    between atoms: C6_8  and  C7_9 
REMARK    4  A    between atoms: C15_20  and  O1_21 
REMARK    5  A    between atoms: O1_21  and  C16_22 
REMARK    6  A    between atoms: C16_22  and  C17_23 
ROOT
HETATM    1  N1  UNL     1      22.908   2.984  52.229  1.00  0.00    -0.341 N 
HETATM    2  H2  UNL     1      22.539   3.942  52.451  1.00  0.00     0.167 HD
ENDROOT
BRANCH   1   3
HETATM    3  C3  UNL     1      21.981   1.942  52.467  1.00  0.00     0.035 A 
HETATM    4  C2  UNL     1      22.215   0.941  53.416  1.00  0.00     0.056 A 
HETATM    5  C1  UNL     1      21.330  -0.069  53.654  1.00  0.00     0.069 A 
HETATM    6 CL1  UNL     1      21.753  -1.254  54.871  1.00  0.00    -0.081 Cl
HETATM    7  C15 UNL     1      20.142  -0.160  52.963  1.00  0.00     0.091 A 
HETATM    8  C14 UNL     1      19.853   0.795  52.015  1.00  0.00     0.041 A 
HETATM    9  C13 UNL     1      20.779   1.794  51.812  1.00  0.00     0.032 A 
BRANCH   7  10
HETATM   10  O1  UNL     1      19.310  -1.224  53.278  1.00  0.00    -0.345 OA
BRANCH  10  11
HETATM   11  C16 UNL     1      17.903  -1.099  53.133  1.00  0.00     0.214 C 
BRANCH  11  12
HETATM   12  C17 UNL     1      17.216  -2.392  53.186  1.00  0.00    -0.034 A 
HETATM   13  C18 UNL     1      17.405  -3.593  53.690  1.00  0.00     0.009 A 
HETATM   14  C19 UNL     1      16.120  -3.967  53.110  1.00  0.00     0.001 A 
HETATM   15  C20 UNL     1      15.932  -2.767  52.606  1.00  0.00     0.009 A 
ENDBRANCH  11  12
ENDBRANCH  10  11
ENDBRANCH   7  10
ENDBRANCH   1   3
BRANCH   1  16
HETATM   16  C4  UNL     1      24.236   2.893  51.740  1.00  0.00     0.131 A 
HETATM   17  C5  UNL     1      25.148   2.116  52.421  1.00  0.00     0.083 A 
HETATM   18  C6  UNL     1      26.451   1.979  52.009  1.00  0.00     0.073 A 
HETATM   19  N3  UNL     1      26.839   2.632  50.900  1.00  0.00    -0.241 NA
HETATM   20  C12 UNL     1      25.984   3.402  50.203  1.00  0.00     0.235 A 
HETATM   21  N4  UNL     1      24.737   3.492  50.655  1.00  0.00    -0.224 NA
BRANCH  18  22
HETATM   22  C7  UNL     1      27.445   1.170  52.697  1.00  0.00     0.010 A 
HETATM   23  C8  UNL     1      27.354  -0.193  52.627  1.00  0.00     0.017 A 
HETATM   24  C9  UNL     1      28.290  -0.972  53.275  1.00  0.00     0.020 A 
HETATM   25  C10 UNL     1      29.329  -0.449  54.003  1.00  0.00     0.116 A 
HETATM   26  N2  UNL     1      29.401   0.887  54.061  1.00  0.00    -0.272 NA
HETATM   27  C11 UNL     1      28.499   1.664  53.436  1.00  0.00     0.130 A 
ENDBRANCH  18  22
ENDBRANCH   1  16
TORSDOF 6
ENDMDL
MODEL 6
REMARK VINA RESULT:      -7.6      4.948      8.168
REMARK  6 active torsions:
REMARK  status: ('A' for Active; 'I' for Inactive)
REMARK    1  A    between atoms: C3_4  and  N1_5 
REMARK    2  A    between atoms: N1_5  and  C4_6 
REMARK    3  A    between atoms: C6_8  and  C7_9 
REMARK    4  A    between atoms: C15_20  and  O1_21 
REMARK    5  A    between atoms: O1_21  and  C16_22 
REMARK    6  A    between atoms: C16_22  and  C17_23 
ROOT
HETATM    1  N1  UNL     1      19.839  -0.919  54.282  1.00  0.00    -0.341 N 
HETATM    2  H2  UNL     1      19.708  -0.977  55.323  1.00  0.00     0.167 HD
ENDROOT
BRANCH   1   3
HETATM    3  C3  UNL     1      21.162  -0.609  53.886  1.00  0.00     0.035 A 
HETATM    4  C2  UNL     1      21.436   0.148  52.743  1.00  0.00     0.056 A 
HETATM    5  C1  UNL     1      22.706   0.453  52.349  1.00  0.00     0.069 A 
HETATM    6 CL1  UNL     1      22.903   1.409  50.896  1.00  0.00    -0.081 Cl
HETATM    7  C15 UNL     1      23.802   0.026  53.067  1.00  0.00     0.091 A 
HETATM    8  C14 UNL     1      23.597  -0.724  54.203  1.00  0.00     0.041 A 
HETATM    9  C13 UNL     1      22.297  -1.005  54.557  1.00  0.00     0.032 A 
BRANCH   7  10
HETATM   10  O1  UNL     1      25.050   0.388  52.585  1.00  0.00    -0.345 OA
BRANCH  10  11
HETATM   11  C16 UNL     1      26.110  -0.556  52.563  1.00  0.00     0.214 C 
BRANCH  11  12
HETATM   12  C17 UNL     1      27.144  -0.263  53.559  1.00  0.00    -0.034 A 
HETATM   13  C18 UNL     1      27.238   0.250  54.768  1.00  0.00     0.009 A 
HETATM   14  C19 UNL     1      28.675   0.019  54.684  1.00  0.00     0.001 A 
HETATM   15  C20 UNL     1      28.582  -0.493  53.476  1.00  0.00     0.009 A 
ENDBRANCH  11  12
ENDBRANCH  10  11
ENDBRANCH   7  10
ENDBRANCH   1   3
BRANCH   1  16
HETATM   16  C4  UNL     1      18.703  -1.156  53.468  1.00  0.00     0.131 A 
HETATM   17  C5  UNL     1      17.970  -2.308  53.660  1.00  0.00     0.083 A 
HETATM   18  C6  UNL     1      16.858  -2.607  52.911  1.00  0.00     0.073 A 
HETATM   19  N3  UNL     1      16.481  -1.736  51.959  1.00  0.00    -0.241 NA
HETATM   20  C12 UNL     1      17.165  -0.600  51.735  1.00  0.00     0.235 A 
HETATM   21  N4  UNL     1      18.232  -0.370  52.495  1.00  0.00    -0.224 NA
BRANCH  18  22
HETATM   22  C7  UNL     1      16.058  -3.809  53.080  1.00  0.00     0.010 A 
HETATM   23  C8  UNL     1      16.401  -4.700  54.060  1.00  0.00     0.017 A 
HETATM   24  C9  UNL     1      15.651  -5.845  54.231  1.00  0.00     0.020 A 
HETATM   25  C10 UNL     1      14.557  -6.150  53.460  1.00  0.00     0.116 A 
HETATM   26  N2  UNL     1      14.238  -5.266  52.506  1.00  0.00    -0.272 NA
HETATM   27  C11 UNL     1      14.957  -4.144  52.323  1.00  0.00     0.130 A 
ENDBRANCH  18  22
ENDBRANCH   1  16
TORSDOF 6
ENDMDL
MODEL 7
REMARK VINA RESULT:      -7.6      3.410      6.848
REMARK  6 active torsions:
REMARK  status: ('A' for Active; 'I' for Inactive)
REMARK    1  A    between atoms: C3_4  and  N1_5 
REMARK    2  A    between atoms: N1_5  and  C4_6 
REMARK    3  A    between atoms: C6_8  and  C7_9 
REMARK    4  A    between atoms: C15_20  and  O1_21 
REMARK    5  A    between atoms: O1_21  and  C16_22 
REMARK    6  A    between atoms: C16_22  and  C17_23 
ROOT
HETATM    1  N1  UNL     1      22.138   3.397  51.828  1.00  0.00    -0.341 N 
HETATM    2  H2  UNL     1      21.863   4.252  52.373  1.00  0.00     0.167 HD
ENDROOT
BRANCH   1   3
HETATM    3  C3  UNL     1      23.510   3.067  51.930  1.00  0.00     0.035 A 
HETATM    4  C2  UNL     1      24.401   3.254  50.869  1.00  0.00     0.056 A 
HETATM    5  C1  UNL     1      25.725   2.939  50.954  1.00  0.00     0.069 A 
HETATM    6 CL1  UNL     1      26.725   3.226  49.546  1.00  0.00    -0.081 Cl
HETATM    7  C15 UNL     1      26.264   2.412  52.107  1.00  0.00     0.091 A 
HETATM    8  C14 UNL     1      25.438   2.204  53.188  1.00  0.00     0.041 A 
HETATM    9  C13 UNL     1      24.110   2.538  53.051  1.00  0.00     0.032 A 
BRANCH   7  10
HETATM   10  O1  UNL     1      27.621   2.126  52.094  1.00  0.00    -0.345 OA
BRANCH  10  11
HETATM   11  C16 UNL     1      28.312   1.882  53.310  1.00  0.00     0.214 C 
BRANCH  11  12
HETATM   12  C17 UNL     1      28.856   0.523  53.384  1.00  0.00    -0.034 A 
HETATM   13  C18 UNL     1      30.011  -0.070  53.598  1.00  0.00     0.009 A 
HETATM   14  C19 UNL     1      29.315  -1.341  53.428  1.00  0.00     0.001 A 
HETATM   15  C20 UNL     1      28.162  -0.748  53.214  1.00  0.00     0.009 A 
ENDBRANCH  11  12
ENDBRANCH  10  11
ENDBRANCH   7  10
ENDBRANCH   1   3
BRANCH   1  16
HETATM   16  C4  UNL     1      21.119   2.731  51.101  1.00  0.00     0.131 A 
HETATM   17  C5  UNL     1      20.356   1.777  51.739  1.00  0.00     0.083 A 
HETATM   18  C6  UNL     1      19.351   1.090  51.102  1.00  0.00     0.073 A 
HETATM   19  N3  UNL     1      19.113   1.368  49.808  1.00  0.00    -0.241 NA
HETATM   20  C12 UNL     1      19.832   2.292  49.144  1.00  0.00     0.235 A 
HETATM   21  N4  UNL     1      20.789   2.921  49.819  1.00  0.00    -0.224 NA
BRANCH  18  22
HETATM   22  C7  UNL     1      18.524   0.077  51.736  1.00  0.00     0.010 A 
HETATM   23  C8  UNL     1      19.018  -0.598  52.819  1.00  0.00     0.017 A 
HETATM   24  C9  UNL     1      18.245  -1.563  53.431  1.00  0.00     0.020 A 
HETATM   25  C10 UNL     1      16.981  -1.893  53.007  1.00  0.00     0.116 A 
HETATM   26  N2  UNL     1      16.515  -1.222  51.946  1.00  0.00    -0.272 NA
HETATM   27  C11 UNL     1      17.254  -0.279  51.336  1.00  0.00     0.130 A 
ENDBRANCH  18  22
ENDBRANCH   1  16
TORSDOF 6
ENDMDL
MODEL 8
REMARK VINA RESULT:      -7.5      4.703      8.355
REMARK  6 active torsions:
REMARK  status: ('A' for Active; 'I' for Inactive)
REMARK    1  A    between atoms: C3_4  and  N1_5 
REMARK    2  A    between atoms: N1_5  and  C4_6 
REMARK    3  A    between atoms: C6_8  and  C7_9 
REMARK    4  A    between atoms: C15_20  and  O1_21 
REMARK    5  A    between atoms: O1_21  and  C16_22 
REMARK    6  A    between atoms: C16_22  and  C17_23 
ROOT
HETATM    1  N1  UNL     1      26.416   5.437  48.538  1.00  0.00    -0.341 N 
HETATM    2  H2  UNL     1      25.851   5.424  47.653  1.00  0.00     0.167 HD
ENDROOT
BRANCH   1   3
HETATM    3  C3  UNL     1      25.852   4.678  49.591  1.00  0.00     0.035 A 
HETATM    4  C2  UNL     1      26.421   3.478  50.029  1.00  0.00     0.056 A 
HETATM    5  C1  UNL     1      25.888   2.736  51.042  1.00  0.00     0.069 A 
HETATM    6 CL1  UNL     1      26.706   1.253  51.486  1.00  0.00    -0.081 Cl
HETATM    7  C15 UNL     1      24.743   3.135  51.697  1.00  0.00     0.091 A 
HETATM    8  C14 UNL     1      24.135   4.308  51.312  1.00  0.00     0.041 A 
HETATM    9  C13 UNL     1      24.713   5.020  50.285  1.00  0.00     0.032 A 
BRANCH   7  10
HETATM   10  O1  UNL     1      24.280   2.312  52.712  1.00  0.00    -0.345 OA
BRANCH  10  11
HETATM   11  C16 UNL     1      22.930   1.874  52.718  1.00  0.00     0.214 C 
BRANCH  11  12
HETATM   12  C17 UNL     1      22.769   0.558  53.343  1.00  0.00    -0.034 A 
HETATM   13  C18 UNL     1      23.512  -0.473  53.685  1.00  0.00     0.009 A 
HETATM   14  C19 UNL     1      22.293  -1.104  54.179  1.00  0.00     0.001 A 
HETATM   15  C20 UNL     1      21.551  -0.074  53.837  1.00  0.00     0.009 A 
ENDBRANCH  11  12
ENDBRANCH  10  11
ENDBRANCH   7  10
ENDBRANCH   1   3
BRANCH   1  16
HETATM   16  C4  UNL     1      27.617   6.190  48.535  1.00  0.00     0.131 A 
HETATM   17  C5  UNL     1      28.815   5.539  48.334  1.00  0.00     0.083 A 
HETATM   18  C6  UNL     1      30.019   6.200  48.316  1.00  0.00     0.073 A 
HETATM   19  N3  UNL     1      30.015   7.531  48.504  1.00  0.00    -0.241 NA
HETATM   20  C12 UNL     1      28.871   8.210  48.703  1.00  0.00     0.235 A 
HETATM   21  N4  UNL     1      27.740   7.510  48.708  1.00  0.00    -0.224 NA
BRANCH  18  22
HETATM   22  C7  UNL     1      31.304   5.552  48.109  1.00  0.00     0.010 A 
HETATM   23  C8  UNL     1      31.356   4.410  47.357  1.00  0.00     0.017 A 
HETATM   24  C9  UNL     1      32.568   3.785  47.153  1.00  0.00     0.020 A 
HETATM   25  C10 UNL     1      33.752   4.251  47.670  1.00  0.00     0.116 A 
HETATM   26  N2  UNL     1      33.680   5.369  48.403  1.00  0.00    -0.272 NA
HETATM   27  C11 UNL     1      32.508   5.993  48.614  1.00  0.00     0.130 A 
ENDBRANCH  18  22
ENDBRANCH   1  16
TORSDOF 6
ENDMDL
MODEL 9
REMARK VINA RESULT:      -7.5      2.808      4.833
REMARK  6 active torsions:
REMARK  status: ('A' for Active; 'I' for Inactive)
REMARK    1  A    between atoms: C3_4  and  N1_5 
REMARK    2  A    between atoms: N1_5  and  C4_6 
REMARK    3  A    between atoms: C6_8  and  C7_9 
REMARK    4  A    between atoms: C15_20  and  O1_21 
REMARK    5  A    between atoms: O1_21  and  C16_22 
REMARK    6  A    between atoms: C16_22  and  C17_23 
ROOT
HETATM    1  N1  UNL     1      26.478   2.508  50.171  1.00  0.00    -0.341 N 
HETATM    2  H2  UNL     1      26.497   1.853  49.351  1.00  0.00     0.167 HD
ENDROOT
BRANCH   1   3
HETATM    3  C3  UNL     1      26.441   3.877  49.814  1.00  0.00     0.035 A 
HETATM    4  C2  UNL     1      25.481   4.754  50.330  1.00  0.00     0.056 A 
HETATM    5  C1  UNL     1      25.434   6.074  49.992  1.00  0.00     0.069 A 
HETATM    6 CL1  UNL     1      24.177   7.056  50.714  1.00  0.00    -0.081 Cl
HETATM    7  C15 UNL     1      26.341   6.623  49.113  1.00  0.00     0.091 A 
HETATM    8  C14 UNL     1      27.311   5.812  48.571  1.00  0.00     0.041 A 
HETATM    9  C13 UNL     1      27.316   4.486  48.943  1.00  0.00     0.032 A 
BRANCH   7  10
HETATM   10  O1  UNL     1      26.209   7.975  48.835  1.00  0.00    -0.345 OA
BRANCH  10  11
HETATM   11  C16 UNL     1      26.991   8.930  49.537  1.00  0.00     0.214 C 
BRANCH  11  12
HETATM   12  C17 UNL     1      28.238   9.256  48.840  1.00  0.00    -0.034 A 
HETATM   13  C18 UNL     1      28.627   9.862  47.738  1.00  0.00     0.009 A 
HETATM   14  C19 UNL     1      29.998   9.558  48.133  1.00  0.00     0.001 A 
HETATM   15  C20 UNL     1      29.609   8.953  49.234  1.00  0.00     0.009 A 
ENDBRANCH  11  12
ENDBRANCH  10  11
ENDBRANCH   7  10
ENDBRANCH   1   3
BRANCH   1  16
HETATM   16  C4  UNL     1      26.492   1.932  51.466  1.00  0.00     0.131 A 
HETATM   17  C5  UNL     1      25.361   1.291  51.926  1.00  0.00     0.083 A 
HETATM   18  C6  UNL     1      25.297   0.708  53.168  1.00  0.00     0.073 A 
HETATM   19  N3  UNL     1      26.385   0.772  53.955  1.00  0.00    -0.241 NA
HETATM   20  C12 UNL     1      27.512   1.386  53.550  1.00  0.00     0.235 A 
HETATM   21  N4  UNL     1      27.507   1.929  52.336  1.00  0.00    -0.224 NA
BRANCH  18  22
HETATM   22  C7  UNL     1      24.126   0.025  53.691  1.00  0.00     0.010 A 
HETATM   23  C8  UNL     1      22.924   0.193  53.060  1.00  0.00     0.017 A 
HETATM   24  C9  UNL     1      21.804  -0.449  53.546  1.00  0.00     0.020 A 
HETATM   25  C10 UNL     1      21.824  -1.264  54.650  1.00  0.00     0.116 A 
HETATM   26  N2  UNL     1      23.009  -1.416  55.255  1.00  0.00    -0.272 NA
HETATM   27  C11 UNL     1      24.112  -0.799  54.796  1.00  0.00     0.130 A 
ENDBRANCH  18  22
ENDBRANCH   1  16
TORSDOF 6
ENDMDL
