MODEL 1
REMARK VINA RESULT:      -8.0      0.000      0.000
REMARK  6 active torsions:
REMARK  status: ('A' for Active; 'I' for Inactive)
REMARK    1  A    between atoms: C1_2  and  C2_3 
REMARK       I    between atoms: C1_2  and  N2_15 
REMARK    2  A    between atoms: C2_3  and  C3_4 
REMARK    3  A    between atoms: C3_4  and  C4_5 
REMARK    4  A    between atoms: N2_15  and  C12_16 
REMARK    5  A    between atoms: C12_16  and  C13_17 
REMARK    6  A    between atoms: C13_17  and  C14_18 
ROOT
HETATM    1  C2  UNL     1      23.220   2.245  52.035  1.00  0.00     0.104 C 
ENDROOT
BRANCH   1   2
HETATM    2  C1  UNL     1      23.745   3.071  50.892  1.00  0.00     0.217 C 
HETATM    3  O1  UNL     1      23.184   2.942  49.770  1.00  0.00    -0.274 OA
HETATM    4  N2  UNL     1      24.840   3.933  51.186  1.00  0.00    -0.361 N 
HETATM    5  H11 UNL     1      25.236   3.965  52.162  1.00  0.00     0.162 HD
BRANCH   4   6
HETATM    6  C12 UNL     1      25.370   4.740  50.120  1.00  0.00     0.127 C 
BRANCH   6   7
HETATM    7  C13 UNL     1      26.536   4.151  49.396  1.00  0.00     0.054 C 
BRANCH   7   8
HETATM    8  C14 UNL     1      27.306   5.233  48.729  1.00  0.00    -0.075 A 
HETATM    9  C15 UNL     1      26.858   6.421  48.366  1.00  0.00     0.003 A 
HETATM   10  C16 UNL     1      27.869   7.260  47.731  1.00  0.00    -0.003 A 
HETATM   11  C17 UNL     1      28.970   6.529  47.720  1.00  0.00    -0.022 A 
HETATM   12  C18 UNL     1      28.725   5.197  48.341  1.00  0.00     0.061 A 
ENDBRANCH   7   8
ENDBRANCH   6   7
ENDBRANCH   4   6
ENDBRANCH   1   2
BRANCH   1  13
HETATM   13  C3  UNL     1      24.251   2.128  53.132  1.00  0.00     0.025 C 
BRANCH  13  14
HETATM   14  C4  UNL     1      25.092   0.872  52.970  1.00  0.00     0.083 A 
HETATM   15  C5  UNL     1      24.645  -0.242  53.813  1.00  0.00     0.086 A 
HETATM   16  S1  UNL     1      23.151  -0.900  53.784  1.00  0.00    -0.065 SA
HETATM   17  N1  UNL     1      25.761  -0.609  54.633  1.00  0.00    -0.350 N 
HETATM   18  C6  UNL     1      26.880   0.233  54.331  1.00  0.00     0.040 A 
HETATM   19  H6  UNL     1      25.765  -1.385  55.354  1.00  0.00     0.166 HD
HETATM   20  C7  UNL     1      28.151   0.235  54.874  1.00  0.00     0.030 A 
HETATM   21  C11 UNL     1      26.504   1.118  53.348  1.00  0.00    -0.021 A 
HETATM   22  C8  UNL     1      29.076   1.158  54.417  1.00  0.00     0.002 A 
HETATM   23  C9  UNL     1      28.709   2.044  53.437  1.00  0.00     0.001 A 
HETATM   24  C10 UNL     1      27.425   2.031  52.897  1.00  0.00     0.010 A 
ENDBRANCH  13  14
ENDBRANCH   1  13
TORSDOF 6
ENDMDL
MODEL 2
REMARK VINA RESULT:      -8.0      3.155      6.154
REMARK  6 active torsions:
REMARK  status: ('A' for Active; 'I' for Inactive)
REMARK    1  A    between atoms: C1_2  and  C2_3 
REMARK       I    between atoms: C1_2  and  N2_15 
REMARK    2  A    between atoms: C2_3  and  C3_4 
REMARK    3  A    between atoms: C3_4  and  C4_5 
REMARK    4  A    between atoms: N2_15  and  C12_16 
REMARK    5  A    between atoms: C12_16  and  C13_17 
REMARK    6  A    between atoms: C13_17  and  C14_18 
ROOT
HETATM    1  C2  UNL     1      24.622   3.440  51.001  1.00  0.00     0.104 C 
ENDROOT
BRANCH   1   2
HETATM    2  C1  UNL     1      26.014   2.914  51.219  1.00  0.00     0.217 C 
HETATM    3  O1  UNL     1      26.791   2.882  50.225  1.00  0.00    -0.274 OA
HETATM    4  N2  UNL     1      26.332   2.493  52.542  1.00  0.00    -0.361 N 
HETATM    5  H11 UNL     1      25.607   2.561  53.303  1.00  0.00     0.162 HD
BRANCH   4   6
HETATM    6  C12 UNL     1      27.654   1.983  52.790  1.00  0.00     0.127 C 
BRANCH   6   7
HETATM    7  C13 UNL     1      27.779   1.097  53.986  1.00  0.00     0.054 C 
BRANCH   7   8
HETATM    8  C14 UNL     1      27.993  -0.306  53.544  1.00  0.00    -0.075 A 
HETATM    9  C15 UNL     1      29.109  -1.006  53.632  1.00  0.00     0.003 A 
HETATM   10  C16 UNL     1      28.993  -2.363  53.107  1.00  0.00    -0.003 A 
HETATM   11  C17 UNL     1      27.744  -2.468  52.690  1.00  0.00    -0.022 A 
HETATM   12  C18 UNL     1      27.001  -1.198  52.922  1.00  0.00     0.061 A 
ENDBRANCH   7   8
ENDBRANCH   6   7
ENDBRANCH   4   6
ENDBRANCH   1   2
BRANCH   1  13
HETATM   13  C3  UNL     1      23.746   3.156  52.198  1.00  0.00     0.025 C 
BRANCH  13  14
HETATM   14  C4  UNL     1      22.664   2.141  51.864  1.00  0.00     0.083 A 
HETATM   15  C5  UNL     1      21.311   2.709  51.873  1.00  0.00     0.086 A 
HETATM   16  S1  UNL     1      20.813   3.962  50.953  1.00  0.00    -0.065 SA
HETATM   17  N1  UNL     1      20.556   1.951  52.826  1.00  0.00    -0.350 N 
HETATM   18  C6  UNL     1      21.387   0.939  53.407  1.00  0.00     0.040 A 
HETATM   19  H6  UNL     1      19.537   2.110  53.068  1.00  0.00     0.166 HD
HETATM   20  C7  UNL     1      21.079  -0.011  54.362  1.00  0.00     0.030 A 
HETATM   21  C11 UNL     1      22.641   1.035  52.850  1.00  0.00    -0.021 A 
HETATM   22  C8  UNL     1      22.062  -0.894  54.775  1.00  0.00     0.002 A 
HETATM   23  C9  UNL     1      23.315  -0.805  54.225  1.00  0.00     0.001 A 
HETATM   24  C10 UNL     1      23.613   0.157  53.262  1.00  0.00     0.010 A 
ENDBRANCH  13  14
ENDBRANCH   1  13
TORSDOF 6
ENDMDL
MODEL 3
REMARK VINA RESULT:      -7.9      2.832      4.799
REMARK  6 active torsions:
REMARK  status: ('A' for Active; 'I' for Inactive)
REMARK    1  A    between atoms: C1_2  and  C2_3 
REMARK       I    between atoms: C1_2  and  N2_15 
REMARK    2  A    between atoms: C2_3  and  C3_4 
REMARK    3  A    between atoms: C3_4  and  C4_5 
REMARK    4  A    between atoms: N2_15  and  C12_16 
REMARK    5  A    between atoms: C12_16  and  C13_17 
REMARK    6  A    between atoms: C13_17  and  C14_18 
ROOT
HETATM    1  C2  UNL     1      26.976   2.147  51.626  1.00  0.00     0.104 C 
ENDROOT
BRANCH   1   2
HETATM    2  C1  UNL     1      26.059   3.007  50.798  1.00  0.00     0.217 C 
HETATM    3  O1  UNL     1      26.262   3.050  49.554  1.00  0.00    -0.274 OA
HETATM    4  N2  UNL     1      25.035   3.701  51.504  1.00  0.00    -0.361 N 
HETATM    5  H11 UNL     1      24.953   3.595  52.549  1.00  0.00     0.162 HD
BRANCH   4   6
HETATM    6  C12 UNL     1      24.138   4.533  50.748  1.00  0.00     0.127 C 
BRANCH   6   7
HETATM    7  C13 UNL     1      22.702   4.127  50.795  1.00  0.00     0.054 C 
BRANCH   7   8
HETATM    8  C14 UNL     1      22.433   3.124  49.732  1.00  0.00    -0.075 A 
HETATM    9  C15 UNL     1      22.917   3.117  48.504  1.00  0.00     0.003 A 
HETATM   10  C16 UNL     1      22.461   1.988  47.699  1.00  0.00    -0.003 A 
HETATM   11  C17 UNL     1      21.667   1.294  48.495  1.00  0.00    -0.022 A 
HETATM   12  C18 UNL     1      21.575   1.933  49.837  1.00  0.00     0.061 A 
ENDBRANCH   7   8
ENDBRANCH   6   7
ENDBRANCH   4   6
ENDBRANCH   1   2
BRANCH   1  13
HETATM   13  C3  UNL     1      26.298   0.854  52.012  1.00  0.00     0.025 C 
BRANCH  13  14
HETATM   14  C4  UNL     1      25.792   0.900  53.445  1.00  0.00     0.083 A 
HETATM   15  C5  UNL     1      26.540   0.027  54.356  1.00  0.00     0.086 A 
HETATM   16  S1  UNL     1      28.148   0.108  54.624  1.00  0.00    -0.065 SA
HETATM   17  N1  UNL     1      25.588  -0.874  54.933  1.00  0.00    -0.350 N 
HETATM   18  C6  UNL     1      24.282  -0.594  54.415  1.00  0.00     0.040 A 
HETATM   19  H6  UNL     1      25.810  -1.635  55.636  1.00  0.00     0.166 HD
HETATM   20  C7  UNL     1      23.075  -1.209  54.692  1.00  0.00     0.030 A 
HETATM   21  C11 UNL     1      24.381   0.455  53.532  1.00  0.00    -0.021 A 
HETATM   22  C8  UNL     1      21.929  -0.759  54.060  1.00  0.00     0.002 A 
HETATM   23  C9  UNL     1      22.020   0.286  53.177  1.00  0.00     0.001 A 
HETATM   24  C10 UNL     1      23.242   0.899  52.907  1.00  0.00     0.010 A 
ENDBRANCH  13  14
ENDBRANCH   1  13
TORSDOF 6
ENDMDL
MODEL 4
REMARK VINA RESULT:      -7.7      2.722      6.086
REMARK  6 active torsions:
REMARK  status: ('A' for Active; 'I' for Inactive)
REMARK    1  A    between atoms: C1_2  and  C2_3 
REMARK       I    between atoms: C1_2  and  N2_15 
REMARK    2  A    between atoms: C2_3  and  C3_4 
REMARK    3  A    between atoms: C3_4  and  C4_5 
REMARK    4  A    between atoms: N2_15  and  C12_16 
REMARK    5  A    between atoms: C12_16  and  C13_17 
REMARK    6  A    between atoms: C13_17  and  C14_18 
ROOT
HETATM    1  C2  UNL     1      22.107   0.593  53.045  1.00  0.00     0.104 C 
ENDROOT
BRANCH   1   2
HETATM    2  C1  UNL     1      23.145  -0.318  53.644  1.00  0.00     0.217 C 
HETATM    3  O1  UNL     1      22.753  -1.196  54.460  1.00  0.00    -0.274 OA
HETATM    4  N2  UNL     1      24.490  -0.101  53.230  1.00  0.00    -0.361 N 
HETATM    5  H11 UNL     1      24.711   0.664  52.540  1.00  0.00     0.162 HD
BRANCH   4   6
HETATM    6  C12 UNL     1      25.512  -0.952  53.781  1.00  0.00     0.127 C 
BRANCH   6   7
HETATM    7  C13 UNL     1      26.530  -1.437  52.802  1.00  0.00     0.054 C 
BRANCH   7   8
HETATM    8  C14 UNL     1      27.855  -0.849  53.130  1.00  0.00    -0.075 A 
HETATM    9  C15 UNL     1      28.124   0.421  53.367  1.00  0.00     0.003 A 
HETATM   10  C16 UNL     1      29.531   0.678  53.661  1.00  0.00    -0.003 A 
HETATM   11  C17 UNL     1      30.120  -0.503  53.594  1.00  0.00    -0.022 A 
HETATM   12  C18 UNL     1      29.133  -1.567  53.258  1.00  0.00     0.061 A 
ENDBRANCH   7   8
ENDBRANCH   6   7
ENDBRANCH   4   6
ENDBRANCH   1   2
BRANCH   1  13
HETATM   13  C3  UNL     1      22.586   1.163  51.731  1.00  0.00     0.025 C 
BRANCH  13  14
HETATM   14  C4  UNL     1      23.001   2.618  51.878  1.00  0.00     0.083 A 
HETATM   15  C5  UNL     1      22.047   3.559  51.280  1.00  0.00     0.086 A 
HETATM   16  S1  UNL     1      20.468   3.676  51.680  1.00  0.00    -0.065 SA
HETATM   17  N1  UNL     1      22.775   4.321  50.310  1.00  0.00    -0.350 N 
HETATM   18  C6  UNL     1      24.141   3.888  50.283  1.00  0.00     0.040 A 
HETATM   19  H6  UNL     1      22.372   5.088  49.701  1.00  0.00     0.166 HD
HETATM   20  C7  UNL     1      25.192   4.339  49.506  1.00  0.00     0.030 A 
HETATM   21  C11 UNL     1      24.295   2.880  51.205  1.00  0.00    -0.021 A 
HETATM   22  C8  UNL     1      26.439   3.759  49.658  1.00  0.00     0.002 A 
HETATM   23  C9  UNL     1      26.601   2.753  50.575  1.00  0.00     0.001 A 
HETATM   24  C10 UNL     1      25.534   2.307  51.353  1.00  0.00     0.010 A 
ENDBRANCH  13  14
ENDBRANCH   1  13
TORSDOF 6
ENDMDL
MODEL 5
REMARK VINA RESULT:      -7.6      3.918      6.216
REMARK  6 active torsions:
REMARK  status: ('A' for Active; 'I' for Inactive)
REMARK    1  A    between atoms: C1_2  and  C2_3 
REMARK       I    between atoms: C1_2  and  N2_15 
REMARK    2  A    between atoms: C2_3  and  C3_4 
REMARK    3  A    between atoms: C3_4  and  C4_5 
REMARK    4  A    between atoms: N2_15  and  C12_16 
REMARK    5  A    between atoms: C12_16  and  C13_17 
REMARK    6  A    between atoms: C13_17  and  C14_18 
ROOT
HETATM    1  C2  UNL     1      23.129   3.061  51.562  1.00  0.00     0.104 C 
ENDROOT
BRANCH   1   2
HETATM    2  C1  UNL     1      24.189   3.077  52.630  1.00  0.00     0.217 C 
HETATM    3  O1  UNL     1      24.094   3.947  53.538  1.00  0.00    -0.274 OA
HETATM    4  N2  UNL     1      25.216   2.096  52.516  1.00  0.00    -0.361 N 
HETATM    5  H11 UNL     1      25.203   1.412  51.714  1.00  0.00     0.162 HD
BRANCH   4   6
HETATM    6  C12 UNL     1      26.248   2.078  53.518  1.00  0.00     0.127 C 
BRANCH   6   7
HETATM    7  C13 UNL     1      26.294   0.847  54.361  1.00  0.00     0.054 C 
BRANCH   7   8
HETATM    8  C14 UNL     1      27.517   0.066  54.035  1.00  0.00    -0.075 A 
HETATM    9  C15 UNL     1      27.607  -0.965  53.216  1.00  0.00     0.003 A 
HETATM   10  C16 UNL     1      28.956  -1.514  53.110  1.00  0.00    -0.003 A 
HETATM   11  C17 UNL     1      29.698  -0.766  53.907  1.00  0.00    -0.022 A 
HETATM   12  C18 UNL     1      28.874   0.290  54.559  1.00  0.00     0.061 A 
ENDBRANCH   7   8
ENDBRANCH   6   7
ENDBRANCH   4   6
ENDBRANCH   1   2
BRANCH   1  13
HETATM   13  C3  UNL     1      23.186   1.779  50.766  1.00  0.00     0.025 C 
BRANCH  13  14
HETATM   14  C4  UNL     1      21.964   0.912  51.025  1.00  0.00     0.083 A 
HETATM   15  C5  UNL     1      20.701   1.656  50.972  1.00  0.00     0.086 A 
HETATM   16  S1  UNL     1      20.169   2.514  49.689  1.00  0.00    -0.065 SA
HETATM   17  N1  UNL     1      20.063   1.471  52.242  1.00  0.00    -0.350 N 
HETATM   18  C6  UNL     1      20.882   0.644  53.077  1.00  0.00     0.040 A 
HETATM   19  H6  UNL     1      19.129   1.881  52.526  1.00  0.00     0.166 HD
HETATM   20  C7  UNL     1      20.662   0.210  54.371  1.00  0.00     0.030 A 
HETATM   21  C11 UNL     1      22.013   0.302  52.375  1.00  0.00    -0.021 A 
HETATM   22  C8  UNL     1      21.611  -0.592  54.982  1.00  0.00     0.002 A 
HETATM   23  C9  UNL     1      22.742  -0.937  54.288  1.00  0.00     0.001 A 
HETATM   24  C10 UNL     1      22.951  -0.494  52.984  1.00  0.00     0.010 A 
ENDBRANCH  13  14
ENDBRANCH   1  13
TORSDOF 6
ENDMDL
MODEL 6
REMARK VINA RESULT:      -7.4      4.144      6.660
REMARK  6 active torsions:
REMARK  status: ('A' for Active; 'I' for Inactive)
REMARK    1  A    between atoms: C1_2  and  C2_3 
REMARK       I    between atoms: C1_2  and  N2_15 
REMARK    2  A    between atoms: C2_3  and  C3_4 
REMARK    3  A    between atoms: C3_4  and  C4_5 
REMARK    4  A    between atoms: N2_15  and  C12_16 
REMARK    5  A    between atoms: C12_16  and  C13_17 
REMARK    6  A    between atoms: C13_17  and  C14_18 
ROOT
HETATM    1  C2  UNL     1      24.927  -0.810  54.666  1.00  0.00     0.104 C 
ENDROOT
BRANCH   1   2
HETATM    2  C1  UNL     1      23.449  -1.080  54.754  1.00  0.00     0.217 C 
HETATM    3  O1  UNL     1      23.009  -1.592  55.820  1.00  0.00    -0.274 OA
HETATM    4  N2  UNL     1      22.673  -0.729  53.613  1.00  0.00    -0.361 N 
HETATM    5  H11 UNL     1      23.141  -0.306  52.769  1.00  0.00     0.162 HD
BRANCH   4   6
HETATM    6  C12 UNL     1      21.256  -0.972  53.658  1.00  0.00     0.127 C 
BRANCH   6   7
HETATM    7  C13 UNL     1      20.408   0.245  53.838  1.00  0.00     0.054 C 
BRANCH   7   8
HETATM    8  C14 UNL     1      20.103   0.839  52.511  1.00  0.00    -0.075 A 
HETATM    9  C15 UNL     1      20.201   0.250  51.334  1.00  0.00     0.003 A 
HETATM   10  C16 UNL     1      19.825   1.109  50.214  1.00  0.00    -0.003 A 
HETATM   11  C17 UNL     1      19.487   2.263  50.761  1.00  0.00    -0.022 A 
HETATM   12  C18 UNL     1      19.627   2.206  52.243  1.00  0.00     0.061 A 
ENDBRANCH   7   8
ENDBRANCH   6   7
ENDBRANCH   4   6
ENDBRANCH   1   2
BRANCH   1  13
HETATM   13  C3  UNL     1      25.396  -0.849  53.231  1.00  0.00     0.025 C 
BRANCH  13  14
HETATM   14  C4  UNL     1      26.028   0.471  52.820  1.00  0.00     0.083 A 
HETATM   15  C5  UNL     1      26.841   1.082  53.877  1.00  0.00     0.086 A 
HETATM   16  S1  UNL     1      28.119   0.374  54.606  1.00  0.00    -0.065 SA
HETATM   17  N1  UNL     1      26.289   2.382  54.118  1.00  0.00    -0.350 N 
HETATM   18  C6  UNL     1      25.168   2.598  53.253  1.00  0.00     0.040 A 
HETATM   19  H6  UNL     1      26.651   3.081  54.826  1.00  0.00     0.166 HD
HETATM   20  C7  UNL     1      24.342   3.702  53.143  1.00  0.00     0.030 A 
HETATM   21  C11 UNL     1      24.996   1.477  52.475  1.00  0.00    -0.021 A 
HETATM   22  C8  UNL     1      23.308   3.679  52.223  1.00  0.00     0.002 A 
HETATM   23  C9  UNL     1      23.130   2.564  51.444  1.00  0.00     0.001 A 
HETATM   24  C10 UNL     1      23.970   1.459  51.564  1.00  0.00     0.010 A 
ENDBRANCH  13  14
ENDBRANCH   1  13
TORSDOF 6
ENDMDL
MODEL 7
REMARK VINA RESULT:      -7.4      4.182      7.501
REMARK  6 active torsions:
REMARK  status: ('A' for Active; 'I' for Inactive)
REMARK    1  A    between atoms: C1_2  and  C2_3 
REMARK       I    between atoms: C1_2  and  N2_15 
REMARK    2  A    between atoms: C2_3  and  C3_4 
REMARK    3  A    between atoms: C3_4  and  C4_5 
REMARK    4  A    between atoms: N2_15  and  C12_16 
REMARK    5  A    between atoms: C12_16  and  C13_17 
REMARK    6  A    between atoms: C13_17  and  C14_18 
ROOT
HETATM    1  C2  UNL     1      22.373   1.414  51.358  1.00  0.00     0.104 C 
ENDROOT
BRANCH   1   2
HETATM    2  C1  UNL     1      23.633   1.425  52.181  1.00  0.00     0.217 C 
HETATM    3  O1  UNL     1      24.054   2.540  52.593  1.00  0.00    -0.274 OA
HETATM    4  N2  UNL     1      24.241   0.160  52.422  1.00  0.00    -0.361 N 
HETATM    5  H11 UNL     1      23.806  -0.716  52.030  1.00  0.00     0.162 HD
BRANCH   4   6
HETATM    6  C12 UNL     1      25.448   0.129  53.205  1.00  0.00     0.127 C 
BRANCH   6   7
HETATM    7  C13 UNL     1      26.294  -1.088  53.020  1.00  0.00     0.054 C 
BRANCH   7   8
HETATM    8  C14 UNL     1      27.719  -0.743  53.262  1.00  0.00    -0.075 A 
HETATM    9  C15 UNL     1      28.212   0.446  53.554  1.00  0.00     0.003 A 
HETATM   10  C16 UNL     1      29.661   0.453  53.734  1.00  0.00    -0.003 A 
HETATM   11  C17 UNL     1      30.040  -0.797  53.538  1.00  0.00    -0.022 A 
HETATM   12  C18 UNL     1      28.868  -1.662  53.227  1.00  0.00     0.061 A 
ENDBRANCH   7   8
ENDBRANCH   6   7
ENDBRANCH   4   6
ENDBRANCH   1   2
BRANCH   1  13
HETATM   13  C3  UNL     1      21.567   0.165  51.624  1.00  0.00     0.025 C 
BRANCH  13  14
HETATM   14  C4  UNL     1      20.386   0.453  52.536  1.00  0.00     0.083 A 
HETATM   15  C5  UNL     1      20.343  -0.408  53.724  1.00  0.00     0.086 A 
HETATM   16  S1  UNL     1      21.532  -0.532  54.836  1.00  0.00    -0.065 SA
HETATM   17  N1  UNL     1      19.082  -1.086  53.694  1.00  0.00    -0.350 N 
HETATM   18  C6  UNL     1      18.343  -0.680  52.535  1.00  0.00     0.040 A 
HETATM   19  H6  UNL     1      18.741  -1.783  54.415  1.00  0.00     0.166 HD
HETATM   20  C7  UNL     1      17.089  -1.076  52.108  1.00  0.00     0.030 A 
HETATM   21  C11 UNL     1      19.098   0.232  51.836  1.00  0.00    -0.021 A 
HETATM   22  C8  UNL     1      16.576  -0.540  50.940  1.00  0.00     0.002 A 
HETATM   23  C9  UNL     1      17.323   0.370  50.237  1.00  0.00     0.001 A 
HETATM   24  C10 UNL     1      18.586   0.761  50.678  1.00  0.00     0.010 A 
ENDBRANCH  13  14
ENDBRANCH   1  13
TORSDOF 6
ENDMDL
MODEL 8
REMARK VINA RESULT:      -7.3      3.004      4.242
REMARK  6 active torsions:
REMARK  status: ('A' for Active; 'I' for Inactive)
REMARK    1  A    between atoms: C1_2  and  C2_3 
REMARK       I    between atoms: C1_2  and  N2_15 
REMARK    2  A    between atoms: C2_3  and  C3_4 
REMARK    3  A    between atoms: C3_4  and  C4_5 
REMARK    4  A    between atoms: N2_15  and  C12_16 
REMARK    5  A    between atoms: C12_16  and  C13_17 
REMARK    6  A    between atoms: C13_17  and  C14_18 
ROOT
HETATM    1  C2  UNL     1      21.954   2.662  51.477  1.00  0.00     0.104 C 
ENDROOT
BRANCH   1   2
HETATM    2  C1  UNL     1      23.335   3.246  51.602  1.00  0.00     0.217 C 
HETATM    3  O1  UNL     1      23.492   4.214  52.394  1.00  0.00    -0.274 OA
HETATM    4  N2  UNL     1      24.350   2.645  50.804  1.00  0.00    -0.361 N 
HETATM    5  H11 UNL     1      24.111   1.837  50.171  1.00  0.00     0.162 HD
BRANCH   4   6
HETATM    6  C12 UNL     1      25.684   3.175  50.895  1.00  0.00     0.127 C 
BRANCH   6   7
HETATM    7  C13 UNL     1      26.488   3.092  49.639  1.00  0.00     0.054 C 
BRANCH   7   8
HETATM    8  C14 UNL     1      26.771   4.463  49.138  1.00  0.00    -0.075 A 
HETATM    9  C15 UNL     1      25.947   5.494  49.137  1.00  0.00     0.003 A 
HETATM   10  C16 UNL     1      26.529   6.709  48.573  1.00  0.00    -0.003 A 
HETATM   11  C17 UNL     1      27.759   6.375  48.226  1.00  0.00    -0.022 A 
HETATM   12  C18 UNL     1      28.028   4.945  48.545  1.00  0.00     0.061 A 
ENDBRANCH   7   8
ENDBRANCH   6   7
ENDBRANCH   4   6
ENDBRANCH   1   2
BRANCH   1  13
HETATM   13  C3  UNL     1      21.940   1.519  50.490  1.00  0.00     0.025 C 
BRANCH  13  14
HETATM   14  C4  UNL     1      21.212   0.310  51.053  1.00  0.00     0.083 A 
HETATM   15  C5  UNL     1      19.783   0.549  51.290  1.00  0.00     0.086 A 
HETATM   16  S1  UNL     1      18.709   1.019  50.154  1.00  0.00    -0.065 SA
HETATM   17  N1  UNL     1      19.550   0.288  52.679  1.00  0.00    -0.350 N 
HETATM   18  C6  UNL     1      20.776  -0.101  53.310  1.00  0.00     0.040 A 
HETATM   19  H6  UNL     1      18.615   0.369  53.171  1.00  0.00     0.166 HD
HETATM   20  C7  UNL     1      21.018  -0.443  54.628  1.00  0.00     0.030 A 
HETATM   21  C11 UNL     1      21.773  -0.095  52.363  1.00  0.00    -0.021 A 
HETATM   22  C8  UNL     1      22.303  -0.787  55.009  1.00  0.00     0.002 A 
HETATM   23  C9  UNL     1      23.302  -0.783  54.071  1.00  0.00     0.001 A 
HETATM   24  C10 UNL     1      23.046  -0.437  52.745  1.00  0.00     0.010 A 
ENDBRANCH  13  14
ENDBRANCH   1  13
TORSDOF 6
ENDMDL
MODEL 9
REMARK VINA RESULT:      -7.3      2.186      3.686
REMARK  6 active torsions:
REMARK  status: ('A' for Active; 'I' for Inactive)
REMARK    1  A    between atoms: C1_2  and  C2_3 
REMARK       I    between atoms: C1_2  and  N2_15 
REMARK    2  A    between atoms: C2_3  and  C3_4 
REMARK    3  A    between atoms: C3_4  and  C4_5 
REMARK    4  A    between atoms: N2_15  and  C12_16 
REMARK    5  A    between atoms: C12_16  and  C13_17 
REMARK    6  A    between atoms: C13_17  and  C14_18 
ROOT
HETATM    1  C2  UNL     1      22.827   3.296  51.320  1.00  0.00     0.104 C 
ENDROOT
BRANCH   1   2
HETATM    2  C1  UNL     1      23.859   4.337  50.980  1.00  0.00     0.217 C 
HETATM    3  O1  UNL     1      23.653   5.517  51.375  1.00  0.00    -0.274 OA
HETATM    4  N2  UNL     1      24.985   3.889  50.233  1.00  0.00    -0.361 N 
HETATM    5  H11 UNL     1      25.060   2.876  49.951  1.00  0.00     0.162 HD
BRANCH   4   6
HETATM    6  C12 UNL     1      25.995   4.854  49.887  1.00  0.00     0.127 C 
BRANCH   6   7
HETATM    7  C13 UNL     1      27.105   4.335  49.035  1.00  0.00     0.054 C 
BRANCH   7   8
HETATM    8  C14 UNL     1      27.846   5.475  48.433  1.00  0.00    -0.075 A 
HETATM    9  C15 UNL     1      27.343   6.631  48.041  1.00  0.00     0.003 A 
HETATM   10  C16 UNL     1      28.338   7.547  47.490  1.00  0.00    -0.003 A 
HETATM   11  C17 UNL     1      29.486   6.896  47.562  1.00  0.00    -0.022 A 
HETATM   12  C18 UNL     1      29.289   5.544  48.158  1.00  0.00     0.061 A 
ENDBRANCH   7   8
ENDBRANCH   6   7
ENDBRANCH   4   6
ENDBRANCH   1   2
BRANCH   1  13
HETATM   13  C3  UNL     1      23.442   1.917  51.347  1.00  0.00     0.025 C 
BRANCH  13  14
HETATM   14  C4  UNL     1      23.710   1.457  52.771  1.00  0.00     0.083 A 
HETATM   15  C5  UNL     1      24.926   0.647  52.902  1.00  0.00     0.086 A 
HETATM   16  S1  UNL     1      26.426   1.130  52.477  1.00  0.00    -0.065 SA
HETATM   17  N1  UNL     1      24.523  -0.608  53.464  1.00  0.00    -0.350 N 
HETATM   18  C6  UNL     1      23.107  -0.607  53.683  1.00  0.00     0.040 A 
HETATM   19  H6  UNL     1      25.169  -1.418  53.685  1.00  0.00     0.166 HD
HETATM   20  C7  UNL     1      22.296  -1.599  54.203  1.00  0.00     0.030 A 
HETATM   21  C11 UNL     1      22.606   0.609  53.279  1.00  0.00    -0.021 A 
HETATM   22  C8  UNL     1      20.937  -1.364  54.320  1.00  0.00     0.002 A 
HETATM   23  C9  UNL     1      20.430  -0.155  53.919  1.00  0.00     0.001 A 
HETATM   24  C10 UNL     1      21.258   0.837  53.397  1.00  0.00     0.010 A 
ENDBRANCH  13  14
ENDBRANCH   1  13
TORSDOF 6
ENDMDL
