MODEL 1
REMARK VINA RESULT:      -8.6      0.000      0.000
REMARK  8 active torsions:
REMARK  status: ('A' for Active; 'I' for Inactive)
REMARK    1  A    between atoms: O1_1  and  N1_2 
REMARK    2  A    between atoms: N1_2  and  C1_3 
REMARK    3  A    between atoms: N1_2  and  C4_9 
REMARK    4  A    between atoms: C2_5  and  O2_6 
REMARK    5  A    between atoms: C4_9  and  C5_10 
REMARK    6  A    between atoms: C4_9  and  C13_19 
REMARK    7  A    between atoms: C5_10  and  C6_11 
REMARK    8  A    between atoms: C6_11  and  C7_12 
ROOT
HETATM    1  C4  UNL     1      25.869   1.129  52.457  1.00  0.00     0.150 C 
ENDROOT
BRANCH   1   2
HETATM    2  N1  UNL     1      26.634   0.850  53.624  1.00  0.00    -0.227 N 
BRANCH   2   3
HETATM    3  O1  UNL     1      26.344   1.647  54.674  1.00  0.00    -0.285 OA
HETATM    4  H1  UNL     1      25.487   2.104  54.486  1.00  0.00     0.245 HD
ENDBRANCH   2   3
BRANCH   2   5
HETATM    5  C1  UNL     1      27.571  -0.189  53.545  1.00  0.00     0.195 A 
HETATM    6  N2  UNL     1      27.634  -1.373  53.405  1.00  0.00    -0.198 NA
HETATM    7  C2  UNL     1      28.787  -2.054  53.382  1.00  0.00     0.171 A 
HETATM    8  C3  UNL     1      30.061  -1.332  53.534  1.00  0.00     0.111 A 
HETATM    9  S1  UNL     1      29.374   0.392  53.708  1.00  0.00    -0.058 SA
BRANCH   7  10
HETATM   10  O2  UNL     1      28.640  -3.445  53.206  1.00  0.00    -0.344 OA
HETATM   11  H2  UNL     1      29.441  -4.027  52.975  1.00  0.00     0.219 HD
ENDBRANCH   7  10
ENDBRANCH   2   5
ENDBRANCH   1   2
BRANCH   1  12
HETATM   12  C5  UNL     1      25.968   2.554  51.957  1.00  0.00     0.037 C 
BRANCH  12  13
HETATM   13  C6  UNL     1      26.437   2.456  50.520  1.00  0.00     0.041 C 
BRANCH  13  14
HETATM   14  C7  UNL     1      26.292   3.744  49.796  1.00  0.00    -0.058 A 
HETATM   15  C8  UNL     1      27.331   4.419  49.187  1.00  0.00     0.008 A 
HETATM   16  C9  UNL     1      27.220   5.601  48.517  1.00  0.00     0.019 A 
HETATM   17  C10 UNL     1      25.941   6.118  48.477  1.00  0.00     0.011 A 
HETATM   18 BR1  UNL     1      25.581   7.759  47.588  1.00  0.00    -0.051 Br
HETATM   19  C11 UNL     1      24.839   5.500  49.063  1.00  0.00     0.019 A 
HETATM   20  C12 UNL     1      25.024   4.293  49.733  1.00  0.00     0.008 A 
ENDBRANCH  13  14
ENDBRANCH  12  13
ENDBRANCH   1  12
BRANCH   1  21
HETATM   21  C13 UNL     1      24.464   0.757  52.763  1.00  0.00    -0.033 A 
HETATM   22  C14 UNL     1      23.458   1.672  52.518  1.00  0.00     0.009 A 
HETATM   23  C15 UNL     1      22.124   1.356  52.794  1.00  0.00     0.001 A 
HETATM   24  C16 UNL     1      21.816   0.121  53.314  1.00  0.00     0.000 A 
HETATM   25  C17 UNL     1      22.790  -0.818  53.572  1.00  0.00     0.001 A 
HETATM   26  C18 UNL     1      24.075  -0.461  53.286  1.00  0.00     0.009 A 
ENDBRANCH   1  21
TORSDOF 8
ENDMDL
MODEL 2
REMARK VINA RESULT:      -8.5      1.950      2.081
REMARK  8 active torsions:
REMARK  status: ('A' for Active; 'I' for Inactive)
REMARK    1  A    between atoms: O1_1  and  N1_2 
REMARK    2  A    between atoms: N1_2  and  C1_3 
REMARK    3  A    between atoms: N1_2  and  C4_9 
REMARK    4  A    between atoms: C2_5  and  O2_6 
REMARK    5  A    between atoms: C4_9  and  C5_10 
REMARK    6  A    between atoms: C4_9  and  C13_19 
REMARK    7  A    between atoms: C5_10  and  C6_11 
REMARK    8  A    between atoms: C6_11  and  C7_12 
ROOT
HETATM    1  C4  UNL     1      25.218   1.641  51.886  1.00  0.00     0.150 C 
ENDROOT
BRANCH   1   2
HETATM    2  N1  UNL     1      25.719   2.296  53.046  1.00  0.00    -0.227 N 
BRANCH   2   3
HETATM    3  O1  UNL     1      24.851   3.170  53.601  1.00  0.00    -0.285 OA
HETATM    4  H1  UNL     1      24.745   3.933  52.980  1.00  0.00     0.245 HD
ENDBRANCH   2   3
BRANCH   2   5
HETATM    5  C1  UNL     1      27.016   1.966  53.461  1.00  0.00     0.195 A 
HETATM    6  N2  UNL     1      27.940   2.420  54.066  1.00  0.00    -0.198 NA
HETATM    7  C2  UNL     1      29.088   1.759  54.265  1.00  0.00     0.171 A 
HETATM    8  C3  UNL     1      29.249   0.400  53.722  1.00  0.00     0.111 A 
HETATM    9  S1  UNL     1      27.575   0.230  52.920  1.00  0.00    -0.058 SA
BRANCH   7  10
HETATM   10  O2  UNL     1      30.052   2.474  55.006  1.00  0.00    -0.344 OA
HETATM   11  H2  UNL     1      30.752   3.041  54.536  1.00  0.00     0.219 HD
ENDBRANCH   7  10
ENDBRANCH   2   5
ENDBRANCH   1   2
BRANCH   1  12
HETATM   12  C5  UNL     1      24.982   2.546  50.697  1.00  0.00     0.037 C 
BRANCH  12  13
HETATM   13  C6  UNL     1      26.349   2.810  50.101  1.00  0.00     0.041 C 
BRANCH  13  14
HETATM   14  C7  UNL     1      26.430   4.146  49.457  1.00  0.00    -0.058 A 
HETATM   15  C8  UNL     1      27.570   4.667  48.879  1.00  0.00     0.008 A 
HETATM   16  C9  UNL     1      27.666   5.889  48.283  1.00  0.00     0.019 A 
HETATM   17  C10 UNL     1      26.496   6.621  48.289  1.00  0.00     0.011 A 
HETATM   18 BR1  UNL     1      26.425   8.352  47.506  1.00  0.00    -0.051 Br
HETATM   19  C11 UNL     1      25.304   6.170  48.850  1.00  0.00     0.019 A 
HETATM   20  C12 UNL     1      25.276   4.909  49.444  1.00  0.00     0.008 A 
ENDBRANCH  13  14
ENDBRANCH  12  13
ENDBRANCH   1  12
BRANCH   1  21
HETATM   21  C13 UNL     1      23.973   0.939  52.291  1.00  0.00    -0.033 A 
HETATM   22  C14 UNL     1      22.800   1.207  51.612  1.00  0.00     0.009 A 
HETATM   23  C15 UNL     1      21.609   0.565  51.966  1.00  0.00     0.001 A 
HETATM   24  C16 UNL     1      21.612  -0.341  53.001  1.00  0.00     0.000 A 
HETATM   25  C17 UNL     1      22.760  -0.635  53.701  1.00  0.00     0.001 A 
HETATM   26  C18 UNL     1      23.895   0.018  53.317  1.00  0.00     0.009 A 
ENDBRANCH   1  21
TORSDOF 8
ENDMDL
MODEL 3
REMARK VINA RESULT:      -8.1      2.803      5.265
REMARK  8 active torsions:
REMARK  status: ('A' for Active; 'I' for Inactive)
REMARK    1  A    between atoms: O1_1  and  N1_2 
REMARK    2  A    between atoms: N1_2  and  C1_3 
REMARK    3  A    between atoms: N1_2  and  C4_9 
REMARK    4  A    between atoms: C2_5  and  O2_6 
REMARK    5  A    between atoms: C4_9  and  C5_10 
REMARK    6  A    between atoms: C4_9  and  C13_19 
REMARK    7  A    between atoms: C5_10  and  C6_11 
REMARK    8  A    between atoms: C6_11  and  C7_12 
ROOT
HETATM    1  C4  UNL     1      25.403   1.141  53.601  1.00  0.00     0.150 C 
ENDROOT
BRANCH   1   2
HETATM    2  N1  UNL     1      26.808   1.272  53.785  1.00  0.00    -0.227 N 
BRANCH   2   3
HETATM    3  O1  UNL     1      27.203   2.516  54.132  1.00  0.00    -0.285 OA
HETATM    4  H1  UNL     1      28.038   2.438  54.656  1.00  0.00     0.245 HD
ENDBRANCH   2   3
BRANCH   2   5
HETATM    5  C1  UNL     1      27.592   0.127  53.590  1.00  0.00     0.195 A 
HETATM    6  N2  UNL     1      27.491  -1.029  53.311  1.00  0.00    -0.198 NA
HETATM    7  C2  UNL     1      28.539  -1.860  53.215  1.00  0.00     0.171 A 
HETATM    8  C3  UNL     1      29.897  -1.348  53.459  1.00  0.00     0.111 A 
HETATM    9  S1  UNL     1      29.455   0.424  53.831  1.00  0.00    -0.058 SA
BRANCH   7  10
HETATM   10  O2  UNL     1      28.202  -3.186  52.875  1.00  0.00    -0.344 OA
HETATM   11  H2  UNL     1      27.490  -3.378  52.175  1.00  0.00     0.219 HD
ENDBRANCH   7  10
ENDBRANCH   2   5
ENDBRANCH   1   2
BRANCH   1  12
HETATM   12  C5  UNL     1      24.942  -0.235  53.177  1.00  0.00     0.037 C 
BRANCH  12  13
HETATM   13  C6  UNL     1      23.805  -0.596  54.112  1.00  0.00     0.041 C 
BRANCH  13  14
HETATM   14  C7  UNL     1      22.477  -0.403  53.479  1.00  0.00    -0.058 A 
HETATM   15  C8  UNL     1      22.283   0.096  52.206  1.00  0.00     0.008 A 
HETATM   16  C9  UNL     1      21.073   0.281  51.606  1.00  0.00     0.019 A 
HETATM   17  C10 UNL     1      19.989  -0.078  52.381  1.00  0.00     0.011 A 
HETATM   18 BR1  UNL     1      18.216   0.105  51.722  1.00  0.00    -0.051 Br
HETATM   19  C11 UNL     1      20.097  -0.588  53.672  1.00  0.00     0.019 A 
HETATM   20  C12 UNL     1      21.366  -0.752  54.226  1.00  0.00     0.008 A 
ENDBRANCH  13  14
ENDBRANCH  12  13
ENDBRANCH   1  12
BRANCH   1  21
HETATM   21  C13 UNL     1      25.000   2.177  52.615  1.00  0.00    -0.033 A 
HETATM   22  C14 UNL     1      24.144   3.186  53.013  1.00  0.00     0.009 A 
HETATM   23  C15 UNL     1      23.743   4.178  52.113  1.00  0.00     0.001 A 
HETATM   24  C16 UNL     1      24.208   4.143  50.819  1.00  0.00     0.000 A 
HETATM   25  C17 UNL     1      25.062   3.155  50.384  1.00  0.00     0.001 A 
HETATM   26  C18 UNL     1      25.422   2.211  51.300  1.00  0.00     0.009 A 
ENDBRANCH   1  21
TORSDOF 8
ENDMDL
MODEL 4
REMARK VINA RESULT:      -8.0      4.988      7.413
REMARK  8 active torsions:
REMARK  status: ('A' for Active; 'I' for Inactive)
REMARK    1  A    between atoms: O1_1  and  N1_2 
REMARK    2  A    between atoms: N1_2  and  C1_3 
REMARK    3  A    between atoms: N1_2  and  C4_9 
REMARK    4  A    between atoms: C2_5  and  O2_6 
REMARK    5  A    between atoms: C4_9  and  C5_10 
REMARK    6  A    between atoms: C4_9  and  C13_19 
REMARK    7  A    between atoms: C5_10  and  C6_11 
REMARK    8  A    between atoms: C6_11  and  C7_12 
ROOT
HETATM    1  C4  UNL     1      22.034   0.751  52.052  1.00  0.00     0.150 C 
ENDROOT
BRANCH   1   2
HETATM    2  N1  UNL     1      20.780   1.237  52.516  1.00  0.00    -0.227 N 
BRANCH   2   3
HETATM    3  O1  UNL     1      20.744   2.575  52.703  1.00  0.00    -0.285 OA
HETATM    4  H1  UNL     1      20.193   2.970  51.984  1.00  0.00     0.245 HD
ENDBRANCH   2   3
BRANCH   2   5
HETATM    5  C1  UNL     1      19.761   0.297  52.720  1.00  0.00     0.195 A 
HETATM    6  N2  UNL     1      19.493  -0.649  53.396  1.00  0.00    -0.198 NA
HETATM    7  C2  UNL     1      18.346  -1.333  53.289  1.00  0.00     0.171 A 
HETATM    8  C3  UNL     1      17.343  -0.919  52.295  1.00  0.00     0.111 A 
HETATM    9  S1  UNL     1      18.261   0.534  51.573  1.00  0.00    -0.058 SA
BRANCH   7  10
HETATM   10  O2  UNL     1      18.228  -2.418  54.183  1.00  0.00    -0.344 OA
HETATM   11  H2  UNL     1      17.802  -3.291  53.886  1.00  0.00     0.219 HD
ENDBRANCH   7  10
ENDBRANCH   2   5
ENDBRANCH   1   2
BRANCH   1  12
HETATM   12  C5  UNL     1      23.207   1.045  52.961  1.00  0.00     0.037 C 
BRANCH  12  13
HETATM   13  C6  UNL     1      23.738  -0.304  53.399  1.00  0.00     0.041 C 
BRANCH  13  14
HETATM   14  C7  UNL     1      25.218  -0.315  53.507  1.00  0.00    -0.058 A 
HETATM   15  C8  UNL     1      25.944   0.464  54.385  1.00  0.00     0.008 A 
HETATM   16  C9  UNL     1      27.302   0.469  54.501  1.00  0.00     0.019 A 
HETATM   17  C10 UNL     1      27.952  -0.395  53.643  1.00  0.00     0.011 A 
HETATM   18 BR1  UNL     1      29.847  -0.534  53.651  1.00  0.00    -0.051 Br
HETATM   19  C11 UNL     1      27.296  -1.215  52.728  1.00  0.00     0.019 A 
HETATM   20  C12 UNL     1      25.905  -1.170  52.663  1.00  0.00     0.008 A 
ENDBRANCH  13  14
ENDBRANCH  12  13
ENDBRANCH   1  12
BRANCH   1  21
HETATM   21  C13 UNL     1      22.241   1.321  50.695  1.00  0.00    -0.033 A 
HETATM   22  C14 UNL     1      23.220   2.279  50.512  1.00  0.00     0.009 A 
HETATM   23  C15 UNL     1      23.444   2.837  49.250  1.00  0.00     0.001 A 
HETATM   24  C16 UNL     1      22.678   2.425  48.184  1.00  0.00     0.000 A 
HETATM   25  C17 UNL     1      21.694   1.473  48.326  1.00  0.00     0.001 A 
HETATM   26  C18 UNL     1      21.515   0.960  49.577  1.00  0.00     0.009 A 
ENDBRANCH   1  21
TORSDOF 8
ENDMDL
MODEL 5
REMARK VINA RESULT:      -7.5      2.087      2.912
REMARK  8 active torsions:
REMARK  status: ('A' for Active; 'I' for Inactive)
REMARK    1  A    between atoms: O1_1  and  N1_2 
REMARK    2  A    between atoms: N1_2  and  C1_3 
REMARK    3  A    between atoms: N1_2  and  C4_9 
REMARK    4  A    between atoms: C2_5  and  O2_6 
REMARK    5  A    between atoms: C4_9  and  C5_10 
REMARK    6  A    between atoms: C4_9  and  C13_19 
REMARK    7  A    between atoms: C5_10  and  C6_11 
REMARK    8  A    between atoms: C6_11  and  C7_12 
ROOT
HETATM    1  C4  UNL     1      24.920   2.651  51.101  1.00  0.00     0.150 C 
ENDROOT
BRANCH   1   2
HETATM    2  N1  UNL     1      24.996   2.833  52.511  1.00  0.00    -0.227 N 
BRANCH   2   3
HETATM    3  O1  UNL     1      24.298   3.896  52.966  1.00  0.00    -0.285 OA
HETATM    4  H1  UNL     1      24.013   4.432  52.185  1.00  0.00     0.245 HD
ENDBRANCH   2   3
BRANCH   2   5
HETATM    5  C1  UNL     1      25.766   1.915  53.237  1.00  0.00     0.195 A 
HETATM    6  N2  UNL     1      25.652   1.035  54.035  1.00  0.00    -0.198 NA
HETATM    7  C2  UNL     1      26.690   0.345  54.528  1.00  0.00     0.171 A 
HETATM    8  C3  UNL     1      28.055   0.667  54.080  1.00  0.00     0.111 A 
HETATM    9  S1  UNL     1      27.634   2.047  52.901  1.00  0.00    -0.058 SA
BRANCH   7  10
HETATM   10  O2  UNL     1      26.337  -0.654  55.459  1.00  0.00    -0.344 OA
HETATM   11  H2  UNL     1      25.365  -0.803  55.718  1.00  0.00     0.219 HD
ENDBRANCH   7  10
ENDBRANCH   2   5
ENDBRANCH   1   2
BRANCH   1  12
HETATM   12  C5  UNL     1      25.135   3.906  50.285  1.00  0.00     0.037 C 
BRANCH  12  13
HETATM   13  C6  UNL     1      26.464   3.719  49.582  1.00  0.00     0.041 C 
BRANCH  13  14
HETATM   14  C7  UNL     1      26.927   4.965  48.921  1.00  0.00    -0.058 A 
HETATM   15  C8  UNL     1      26.125   6.057  48.660  1.00  0.00     0.008 A 
HETATM   16  C9  UNL     1      26.530   7.209  48.055  1.00  0.00     0.019 A 
HETATM   17  C10 UNL     1      27.862   7.228  47.695  1.00  0.00     0.011 A 
HETATM   18 BR1  UNL     1      28.618   8.747  46.838  1.00  0.00    -0.051 Br
HETATM   19  C11 UNL     1      28.739   6.171  47.921  1.00  0.00     0.019 A 
HETATM   20  C12 UNL     1      28.258   5.021  48.545  1.00  0.00     0.008 A 
ENDBRANCH  13  14
ENDBRANCH  12  13
ENDBRANCH   1  12
BRANCH   1  21
HETATM   21  C13 UNL     1      23.597   2.037  50.816  1.00  0.00    -0.033 A 
HETATM   22  C14 UNL     1      22.940   2.371  49.647  1.00  0.00     0.009 A 
HETATM   23  C15 UNL     1      21.694   1.813  49.346  1.00  0.00     0.001 A 
HETATM   24  C16 UNL     1      21.121   0.925  50.226  1.00  0.00     0.000 A 
HETATM   25  C17 UNL     1      21.744   0.567  51.401  1.00  0.00     0.001 A 
HETATM   26  C18 UNL     1      22.958   1.139  51.648  1.00  0.00     0.009 A 
ENDBRANCH   1  21
TORSDOF 8
ENDMDL
MODEL 6
REMARK VINA RESULT:      -7.5      3.034      6.264
REMARK  8 active torsions:
REMARK  status: ('A' for Active; 'I' for Inactive)
REMARK    1  A    between atoms: O1_1  and  N1_2 
REMARK    2  A    between atoms: N1_2  and  C1_3 
REMARK    3  A    between atoms: N1_2  and  C4_9 
REMARK    4  A    between atoms: C2_5  and  O2_6 
REMARK    5  A    between atoms: C4_9  and  C5_10 
REMARK    6  A    between atoms: C4_9  and  C13_19 
REMARK    7  A    between atoms: C5_10  and  C6_11 
REMARK    8  A    between atoms: C6_11  and  C7_12 
ROOT
HETATM    1  C4  UNL     1      25.696   0.556  52.832  1.00  0.00     0.150 C 
ENDROOT
BRANCH   1   2
HETATM    2  N1  UNL     1      26.032   1.939  52.859  1.00  0.00    -0.227 N 
BRANCH   2   3
HETATM    3  O1  UNL     1      26.267   2.422  54.098  1.00  0.00    -0.285 OA
HETATM    4  H1  UNL     1      26.271   3.410  54.046  1.00  0.00     0.245 HD
ENDBRANCH   2   3
BRANCH   2   5
HETATM    5  C1  UNL     1      26.075   2.614  51.633  1.00  0.00     0.195 A 
HETATM    6  N2  UNL     1      26.854   3.034  50.832  1.00  0.00    -0.198 NA
HETATM    7  C2  UNL     1      26.491   3.666  49.708  1.00  0.00     0.171 A 
HETATM    8  C3  UNL     1      25.061   3.867  49.417  1.00  0.00     0.111 A 
HETATM    9  S1  UNL     1      24.359   3.048  50.936  1.00  0.00    -0.058 SA
BRANCH   7  10
HETATM   10  O2  UNL     1      27.567   4.083  48.898  1.00  0.00    -0.344 OA
HETATM   11  H2  UNL     1      28.078   3.414  48.328  1.00  0.00     0.219 HD
ENDBRANCH   7  10
ENDBRANCH   2   5
ENDBRANCH   1   2
BRANCH   1  12
HETATM   12  C5  UNL     1      24.659   0.133  53.849  1.00  0.00     0.037 C 
BRANCH  12  13
HETATM   13  C6  UNL     1      23.665  -0.724  53.093  1.00  0.00     0.041 C 
BRANCH  13  14
HETATM   14  C7  UNL     1      22.425   0.020  52.760  1.00  0.00    -0.058 A 
HETATM   15  C8  UNL     1      21.599   0.620  53.689  1.00  0.00     0.008 A 
HETATM   16  C9  UNL     1      20.457   1.308  53.405  1.00  0.00     0.019 A 
HETATM   17  C10 UNL     1      20.151   1.378  52.061  1.00  0.00     0.011 A 
HETATM   18 BR1  UNL     1      18.598   2.294  51.460  1.00  0.00    -0.051 Br
HETATM   19  C11 UNL     1      20.930   0.802  51.060  1.00  0.00     0.019 A 
HETATM   20  C12 UNL     1      22.086   0.112  51.421  1.00  0.00     0.008 A 
ENDBRANCH  13  14
ENDBRANCH  12  13
ENDBRANCH   1  12
BRANCH   1  21
HETATM   21  C13 UNL     1      26.964  -0.199  53.002  1.00  0.00    -0.033 A 
HETATM   22  C14 UNL     1      26.981  -1.554  52.728  1.00  0.00     0.009 A 
HETATM   23  C15 UNL     1      28.155  -2.297  52.877  1.00  0.00     0.001 A 
HETATM   24  C16 UNL     1      29.303  -1.668  53.301  1.00  0.00     0.000 A 
HETATM   25  C17 UNL     1      29.327  -0.321  53.583  1.00  0.00     0.001 A 
HETATM   26  C18 UNL     1      28.155   0.359  53.423  1.00  0.00     0.009 A 
ENDBRANCH   1  21
TORSDOF 8
ENDMDL
MODEL 7
REMARK VINA RESULT:      -7.3      5.153      7.327
REMARK  8 active torsions:
REMARK  status: ('A' for Active; 'I' for Inactive)
REMARK    1  A    between atoms: O1_1  and  N1_2 
REMARK    2  A    between atoms: N1_2  and  C1_3 
REMARK    3  A    between atoms: N1_2  and  C4_9 
REMARK    4  A    between atoms: C2_5  and  O2_6 
REMARK    5  A    between atoms: C4_9  and  C5_10 
REMARK    6  A    between atoms: C4_9  and  C13_19 
REMARK    7  A    between atoms: C5_10  and  C6_11 
REMARK    8  A    between atoms: C6_11  and  C7_12 
ROOT
HETATM    1  C4  UNL     1      22.184   1.813  51.790  1.00  0.00     0.150 C 
ENDROOT
BRANCH   1   2
HETATM    2  N1  UNL     1      21.243   1.634  50.737  1.00  0.00    -0.227 N 
BRANCH   2   3
HETATM    3  O1  UNL     1      21.781   1.150  49.596  1.00  0.00    -0.285 OA
HETATM    4  H1  UNL     1      21.042   0.850  49.012  1.00  0.00     0.245 HD
ENDBRANCH   2   3
BRANCH   2   5
HETATM    5  C1  UNL     1      19.909   1.971  51.001  1.00  0.00     0.195 A 
HETATM    6  N2  UNL     1      19.246   2.870  51.422  1.00  0.00    -0.198 NA
HETATM    7  C2  UNL     1      17.911   2.814  51.532  1.00  0.00     0.171 A 
HETATM    8  C3  UNL     1      17.198   1.594  51.120  1.00  0.00     0.111 A 
HETATM    9  S1  UNL     1      18.672   0.590  50.578  1.00  0.00    -0.058 SA
BRANCH   7  10
HETATM   10  O2  UNL     1      17.320   3.984  52.052  1.00  0.00    -0.344 OA
HETATM   11  H2  UNL     1      16.317   4.031  52.214  1.00  0.00     0.219 HD
ENDBRANCH   7  10
ENDBRANCH   2   5
ENDBRANCH   1   2
BRANCH   1  12
HETATM   12  C5  UNL     1      23.631   1.849  51.351  1.00  0.00     0.037 C 
BRANCH  12  13
HETATM   13  C6  UNL     1      24.406   2.405  52.528  1.00  0.00     0.041 C 
BRANCH  13  14
HETATM   14  C7  UNL     1      25.635   1.622  52.808  1.00  0.00    -0.058 A 
HETATM   15  C8  UNL     1      26.615   2.000  53.704  1.00  0.00     0.008 A 
HETATM   16  C9  UNL     1      27.751   1.296  53.976  1.00  0.00     0.019 A 
HETATM   17  C10 UNL     1      27.877   0.118  53.269  1.00  0.00     0.011 A 
HETATM   18 BR1  UNL     1      29.391  -1.006  53.508  1.00  0.00    -0.051 Br
HETATM   19  C11 UNL     1      26.935  -0.336  52.348  1.00  0.00     0.019 A 
HETATM   20  C12 UNL     1      25.797   0.434  52.118  1.00  0.00     0.008 A 
ENDBRANCH  13  14
ENDBRANCH  12  13
ENDBRANCH   1  12
BRANCH   1  21
HETATM   21  C13 UNL     1      21.940   0.729  52.775  1.00  0.00    -0.033 A 
HETATM   22  C14 UNL     1      21.212   1.009  53.916  1.00  0.00     0.009 A 
HETATM   23  C15 UNL     1      20.964   0.013  54.865  1.00  0.00     0.001 A 
HETATM   24  C16 UNL     1      21.452  -1.256  54.657  1.00  0.00     0.000 A 
HETATM   25  C17 UNL     1      22.181  -1.574  53.534  1.00  0.00     0.001 A 
HETATM   26  C18 UNL     1      22.396  -0.568  52.638  1.00  0.00     0.009 A 
ENDBRANCH   1  21
TORSDOF 8
ENDMDL
MODEL 8
REMARK VINA RESULT:      -7.2      3.843      5.500
REMARK  8 active torsions:
REMARK  status: ('A' for Active; 'I' for Inactive)
REMARK    1  A    between atoms: O1_1  and  N1_2 
REMARK    2  A    between atoms: N1_2  and  C1_3 
REMARK    3  A    between atoms: N1_2  and  C4_9 
REMARK    4  A    between atoms: C2_5  and  O2_6 
REMARK    5  A    between atoms: C4_9  and  C5_10 
REMARK    6  A    between atoms: C4_9  and  C13_19 
REMARK    7  A    between atoms: C5_10  and  C6_11 
REMARK    8  A    between atoms: C6_11  and  C7_12 
ROOT
HETATM    1  C4  UNL     1      24.465   3.641  51.855  1.00  0.00     0.150 C 
ENDROOT
BRANCH   1   2
HETATM    2  N1  UNL     1      23.482   4.382  52.569  1.00  0.00    -0.227 N 
BRANCH   2   3
HETATM    3  O1  UNL     1      23.981   5.124  53.582  1.00  0.00    -0.285 OA
HETATM    4  H1  UNL     1      24.802   5.571  53.258  1.00  0.00     0.245 HD
ENDBRANCH   2   3
BRANCH   2   5
HETATM    5  C1  UNL     1      22.151   4.255  52.150  1.00  0.00     0.195 A 
HETATM    6  N2  UNL     1      21.176   3.596  52.345  1.00  0.00    -0.198 NA
HETATM    7  C2  UNL     1      20.013   3.789  51.708  1.00  0.00     0.171 A 
HETATM    8  C3  UNL     1      19.902   4.865  50.709  1.00  0.00     0.111 A 
HETATM    9  S1  UNL     1      21.643   5.521  50.824  1.00  0.00    -0.058 SA
BRANCH   7  10
HETATM   10  O2  UNL     1      18.985   2.900  52.086  1.00  0.00    -0.344 OA
HETATM   11  H2  UNL     1      18.009   3.164  51.988  1.00  0.00     0.219 HD
ENDBRANCH   7  10
ENDBRANCH   2   5
ENDBRANCH   1   2
BRANCH   1  12
HETATM   12  C5  UNL     1      24.157   3.421  50.391  1.00  0.00     0.037 C 
BRANCH  12  13
HETATM   13  C6  UNL     1      25.491   3.162  49.723  1.00  0.00     0.041 C 
BRANCH  13  14
HETATM   14  C7  UNL     1      26.100   4.405  49.187  1.00  0.00    -0.058 A 
HETATM   15  C8  UNL     1      27.437   4.552  48.879  1.00  0.00     0.008 A 
HETATM   16  C9  UNL     1      28.016   5.683  48.387  1.00  0.00     0.019 A 
HETATM   17  C10 UNL     1      27.144   6.737  48.201  1.00  0.00     0.011 A 
HETATM   18 BR1  UNL     1      27.758   8.402  47.521  1.00  0.00    -0.051 Br
HETATM   19  C11 UNL     1      25.782   6.672  48.485  1.00  0.00     0.019 A 
HETATM   20  C12 UNL     1      25.256   5.484  48.987  1.00  0.00     0.008 A 
ENDBRANCH  13  14
ENDBRANCH  12  13
ENDBRANCH   1  12
BRANCH   1  21
HETATM   21  C13 UNL     1      24.640   2.352  52.574  1.00  0.00    -0.033 A 
HETATM   22  C14 UNL     1      25.728   2.192  53.410  1.00  0.00     0.009 A 
HETATM   23  C15 UNL     1      25.925   0.994  54.102  1.00  0.00     0.001 A 
HETATM   24  C16 UNL     1      25.024  -0.033  53.945  1.00  0.00     0.000 A 
HETATM   25  C17 UNL     1      23.927   0.088  53.122  1.00  0.00     0.001 A 
HETATM   26  C18 UNL     1      23.780   1.276  52.469  1.00  0.00     0.009 A 
ENDBRANCH   1  21
TORSDOF 8
ENDMDL
MODEL 9
REMARK VINA RESULT:      -7.2      6.704      9.742
REMARK  8 active torsions:
REMARK  status: ('A' for Active; 'I' for Inactive)
REMARK    1  A    between atoms: O1_1  and  N1_2 
REMARK    2  A    between atoms: N1_2  and  C1_3 
REMARK    3  A    between atoms: N1_2  and  C4_9 
REMARK    4  A    between atoms: C2_5  and  O2_6 
REMARK    5  A    between atoms: C4_9  and  C5_10 
REMARK    6  A    between atoms: C4_9  and  C13_19 
REMARK    7  A    between atoms: C5_10  and  C6_11 
REMARK    8  A    between atoms: C6_11  and  C7_12 
ROOT
HETATM    1  C4  UNL     1      31.401   5.903  47.742  1.00  0.00     0.150 C 
ENDROOT
BRANCH   1   2
HETATM    2  N1  UNL     1      32.065   6.570  48.810  1.00  0.00    -0.227 N 
BRANCH   2   3
HETATM    3  O1  UNL     1      31.544   6.309  50.029  1.00  0.00    -0.285 OA
HETATM    4  H1  UNL     1      30.923   7.043  50.260  1.00  0.00     0.245 HD
ENDBRANCH   2   3
BRANCH   2   5
HETATM    5  C1  UNL     1      33.147   7.396  48.478  1.00  0.00     0.195 A 
HETATM    6  N2  UNL     1      34.312   7.532  48.699  1.00  0.00    -0.198 NA
HETATM    7  C2  UNL     1      35.056   8.508  48.161  1.00  0.00     0.171 A 
HETATM    8  C3  UNL     1      34.433   9.477  47.245  1.00  0.00     0.111 A 
HETATM    9  S1  UNL     1      32.697   8.802  47.278  1.00  0.00    -0.058 SA
BRANCH   7  10
HETATM   10  O2  UNL     1      36.411   8.490  48.552  1.00  0.00    -0.344 OA
HETATM   11  H2  UNL     1      37.149   8.367  47.864  1.00  0.00     0.219 HD
ENDBRANCH   7  10
ENDBRANCH   2   5
ENDBRANCH   1   2
BRANCH   1  12
HETATM   12  C5  UNL     1      30.091   5.246  48.119  1.00  0.00     0.037 C 
BRANCH  12  13
HETATM   13  C6  UNL     1      29.019   6.283  47.858  1.00  0.00     0.041 C 
BRANCH  13  14
HETATM   14  C7  UNL     1      27.683   5.837  48.327  1.00  0.00    -0.058 A 
HETATM   15  C8  UNL     1      27.421   4.599  48.877  1.00  0.00     0.008 A 
HETATM   16  C9  UNL     1      26.203   4.170  49.314  1.00  0.00     0.019 A 
HETATM   17  C10 UNL     1      25.187   5.092  49.171  1.00  0.00     0.011 A 
HETATM   18 BR1  UNL     1      23.414   4.683  49.723  1.00  0.00    -0.051 Br
HETATM   19  C11 UNL     1      25.366   6.362  48.628  1.00  0.00     0.019 A 
HETATM   20  C12 UNL     1      26.639   6.736  48.201  1.00  0.00     0.008 A 
ENDBRANCH  13  14
ENDBRANCH  12  13
ENDBRANCH   1  12
BRANCH   1  21
HETATM   21  C13 UNL     1      32.363   4.917  47.185  1.00  0.00    -0.033 A 
HETATM   22  C14 UNL     1      32.718   3.821  47.947  1.00  0.00     0.009 A 
HETATM   23  C15 UNL     1      33.621   2.874  47.456  1.00  0.00     0.001 A 
HETATM   24  C16 UNL     1      34.159   3.040  46.201  1.00  0.00     0.000 A 
HETATM   25  C17 UNL     1      33.830   4.119  45.411  1.00  0.00     0.001 A 
HETATM   26  C18 UNL     1      32.945   5.015  45.936  1.00  0.00     0.009 A 
ENDBRANCH   1  21
TORSDOF 8
ENDMDL
