MODEL 1
REMARK VINA RESULT:      -9.2      0.000      0.000
REMARK  1 active torsions:
REMARK  status: ('A' for Active; 'I' for Inactive)
REMARK    1  A    between atoms: C16_17  and  N2_18 
ROOT
HETATM    1  C1  UNL     1      23.795   3.491  49.033  1.00  0.00     0.049 C 
HETATM    2  C2  UNL     1      24.664   3.374  50.235  1.00  0.00    -0.043 C 
HETATM    3  C3  UNL     1      25.988   3.301  50.270  1.00  0.00    -0.017 C 
HETATM    4  C4  UNL     1      26.564   2.361  51.014  1.00  0.00     0.040 C 
HETATM    5  C5  UNL     1      26.196   1.731  52.314  1.00  0.00     0.037 C 
HETATM    6  N1  UNL     1      25.423   2.420  53.093  1.00  0.00    -0.265 NA
HETATM    7  C6  UNL     1      24.221   3.141  52.724  1.00  0.00     0.124 C 
HETATM    8  C7  UNL     1      23.862   3.345  51.450  1.00  0.00    -0.034 C 
HETATM    9  C8  UNL     1      22.404   3.575  51.372  1.00  0.00     0.042 C 
HETATM   10  C9  UNL     1      21.597   2.559  52.099  1.00  0.00    -0.015 C 
HETATM   11  C10 UNL     1      22.395   1.589  52.677  1.00  0.00     0.044 C 
HETATM   12  C11 UNL     1      22.009   0.380  53.502  1.00  0.00    -0.018 C 
HETATM   13  C12 UNL     1      22.950  -0.484  53.993  1.00  0.00    -0.082 C 
HETATM   14  C13 UNL     1      22.162  -1.565  54.777  1.00  0.00     0.043 C 
HETATM   15  C14 UNL     1      24.367  -0.122  53.594  1.00  0.00     0.054 C 
HETATM   16  C15 UNL     1      25.531  -0.787  53.936  1.00  0.00     0.006 C 
HETATM   17  C16 UNL     1      26.876  -0.370  53.499  1.00  0.00     0.113 C 
HETATM   18  C18 UNL     1      26.901   0.448  52.237  1.00  0.00     0.086 C 
ENDROOT
BRANCH  17  19
HETATM   19  N2  UNL     1      27.759  -1.517  53.192  1.00  0.00    -0.272 N 
HETATM   20  C17 UNL     1      29.084  -1.849  53.186  1.00  0.00     0.293 A 
HETATM   21  N3  UNL     1      28.151  -2.772  52.811  1.00  0.00    -0.185 NA
ENDBRANCH  17  19
TORSDOF 1
ENDMDL
MODEL 2
REMARK VINA RESULT:      -8.0      2.600      6.092
REMARK  1 active torsions:
REMARK  status: ('A' for Active; 'I' for Inactive)
REMARK    1  A    between atoms: C16_17  and  N2_18 
ROOT
HETATM    1  C1  UNL     1      26.837  -0.740  52.331  1.00  0.00     0.049 C 
HETATM    2  C2  UNL     1      25.692  -0.001  52.926  1.00  0.00    -0.043 C 
HETATM    3  C3  UNL     1      24.741  -0.485  53.713  1.00  0.00    -0.017 C 
HETATM    4  C4  UNL     1      23.470  -0.198  53.443  1.00  0.00     0.040 C 
HETATM    5  C5  UNL     1      22.803   1.007  52.873  1.00  0.00     0.037 C 
HETATM    6  N1  UNL     1      23.434   2.132  52.997  1.00  0.00    -0.265 NA
HETATM    7  C6  UNL     1      24.838   2.384  52.746  1.00  0.00     0.124 C 
HETATM    8  C7  UNL     1      25.722   1.401  52.533  1.00  0.00    -0.034 C 
HETATM    9  C8  UNL     1      26.879   1.925  51.775  1.00  0.00     0.042 C 
HETATM   10  C9  UNL     1      26.501   2.706  50.568  1.00  0.00    -0.015 C 
HETATM   11  C10 UNL     1      25.130   2.752  50.396  1.00  0.00     0.044 C 
HETATM   12  C11 UNL     1      24.309   3.428  49.319  1.00  0.00    -0.018 C 
HETATM   13  C12 UNL     1      22.943   3.361  49.308  1.00  0.00    -0.082 C 
HETATM   14  C13 UNL     1      22.489   4.175  48.069  1.00  0.00     0.043 C 
HETATM   15  C14 UNL     1      22.373   2.526  50.439  1.00  0.00     0.054 C 
HETATM   16  C15 UNL     1      21.039   2.274  50.706  1.00  0.00     0.006 C 
HETATM   17  C16 UNL     1      20.567   1.444  51.828  1.00  0.00     0.113 C 
HETATM   18  C18 UNL     1      21.566   0.437  52.328  1.00  0.00     0.086 C 
ENDROOT
BRANCH  17  19
HETATM   19  N2  UNL     1      19.387   0.621  51.475  1.00  0.00    -0.272 N 
HETATM   20  C17 UNL     1      18.552  -0.307  52.029  1.00  0.00     0.293 A 
HETATM   21  N3  UNL     1      18.363   0.093  50.738  1.00  0.00    -0.185 NA
ENDBRANCH  17  19
TORSDOF 1
ENDMDL
MODEL 3
REMARK VINA RESULT:      -7.6      1.950      4.527
REMARK  1 active torsions:
REMARK  status: ('A' for Active; 'I' for Inactive)
REMARK    1  A    between atoms: C16_17  and  N2_18 
ROOT
HETATM    1  C1  UNL     1      20.677   0.231  54.949  1.00  0.00     0.049 C 
HETATM    2  C2  UNL     1      21.674  -0.005  53.871  1.00  0.00    -0.043 C 
HETATM    3  C3  UNL     1      22.692  -0.855  53.886  1.00  0.00    -0.017 C 
HETATM    4  C4  UNL     1      23.894  -0.430  53.509  1.00  0.00     0.040 C 
HETATM    5  C5  UNL     1      24.346   0.559  52.490  1.00  0.00     0.037 C 
HETATM    6  N1  UNL     1      23.530   0.796  51.511  1.00  0.00    -0.265 NA
HETATM    7  C6  UNL     1      22.104   1.039  51.597  1.00  0.00     0.124 C 
HETATM    8  C7  UNL     1      21.404   0.848  52.722  1.00  0.00    -0.034 C 
HETATM    9  C8  UNL     1      20.177   1.673  52.695  1.00  0.00     0.042 C 
HETATM   10  C9  UNL     1      20.419   3.096  52.337  1.00  0.00    -0.015 C 
HETATM   11  C10 UNL     1      21.763   3.351  52.131  1.00  0.00     0.044 C 
HETATM   12  C11 UNL     1      22.459   4.640  51.752  1.00  0.00    -0.018 C 
HETATM   13  C12 UNL     1      23.817   4.704  51.594  1.00  0.00    -0.082 C 
HETATM   14  C13 UNL     1      24.128   6.172  51.205  1.00  0.00     0.043 C 
HETATM   15  C14 UNL     1      24.518   3.388  51.873  1.00  0.00     0.054 C 
HETATM   16  C15 UNL     1      25.874   3.127  51.794  1.00  0.00     0.006 C 
HETATM   17  C16 UNL     1      26.477   1.815  52.088  1.00  0.00     0.113 C 
HETATM   18  C18 UNL     1      25.665   0.941  53.004  1.00  0.00     0.086 C 
ENDROOT
BRANCH  17  19
HETATM   19  N2  UNL     1      27.783   1.927  52.778  1.00  0.00    -0.272 N 
HETATM   20  C17 UNL     1      28.680   1.154  53.457  1.00  0.00     0.293 A 
HETATM   21  N3  UNL     1      28.931   2.483  53.273  1.00  0.00    -0.185 NA
ENDBRANCH  17  19
TORSDOF 1
ENDMDL
MODEL 4
REMARK VINA RESULT:      -7.6      1.858      4.550
REMARK  1 active torsions:
REMARK  status: ('A' for Active; 'I' for Inactive)
REMARK    1  A    between atoms: C16_17  and  N2_18 
ROOT
HETATM    1  C1  UNL     1      20.733   0.084  55.126  1.00  0.00     0.049 C 
HETATM    2  C2  UNL     1      21.966  -0.539  54.574  1.00  0.00    -0.043 C 
HETATM    3  C3  UNL     1      22.957  -1.103  55.252  1.00  0.00    -0.017 C 
HETATM    4  C4  UNL     1      24.211  -0.776  54.955  1.00  0.00     0.040 C 
HETATM    5  C5  UNL     1      24.889  -0.416  53.677  1.00  0.00     0.037 C 
HETATM    6  N1  UNL     1      24.334  -0.844  52.586  1.00  0.00    -0.265 NA
HETATM    7  C6  UNL     1      22.928  -0.796  52.239  1.00  0.00     0.124 C 
HETATM    8  C7  UNL     1      21.976  -0.464  53.120  1.00  0.00    -0.034 C 
HETATM    9  C8  UNL     1      20.786   0.042  52.404  1.00  0.00     0.042 C 
HETATM   10  C9  UNL     1      21.095   1.083  51.388  1.00  0.00    -0.015 C 
HETATM   11  C10 UNL     1      22.446   1.378  51.351  1.00  0.00     0.044 C 
HETATM   12  C11 UNL     1      23.201   2.359  50.481  1.00  0.00    -0.018 C 
HETATM   13  C12 UNL     1      24.556   2.521  50.590  1.00  0.00    -0.082 C 
HETATM   14  C13 UNL     1      24.939   3.593  49.538  1.00  0.00     0.043 C 
HETATM   15  C14 UNL     1      25.180   1.661  51.673  1.00  0.00     0.054 C 
HETATM   16  C15 UNL     1      26.516   1.590  52.022  1.00  0.00     0.006 C 
HETATM   17  C16 UNL     1      27.042   0.728  53.095  1.00  0.00     0.113 C 
HETATM   18  C18 UNL     1      26.038   0.360  54.154  1.00  0.00     0.086 C 
ENDROOT
BRANCH  17  19
HETATM   19  N2  UNL     1      28.138   1.366  53.858  1.00  0.00    -0.272 N 
HETATM   20  C17 UNL     1      29.301   1.040  54.495  1.00  0.00     0.293 A 
HETATM   21  N3  UNL     1      28.882   2.339  54.468  1.00  0.00    -0.185 NA
ENDBRANCH  17  19
TORSDOF 1
ENDMDL
MODEL 5
REMARK VINA RESULT:      -7.6      2.536      4.739
REMARK  1 active torsions:
REMARK  status: ('A' for Active; 'I' for Inactive)
REMARK    1  A    between atoms: C16_17  and  N2_18 
ROOT
HETATM    1  C1  UNL     1      22.775   6.353  50.689  1.00  0.00     0.049 C 
HETATM    2  C2  UNL     1      22.389   4.943  50.409  1.00  0.00    -0.043 C 
HETATM    3  C3  UNL     1      21.219   4.365  50.645  1.00  0.00    -0.017 C 
HETATM    4  C4  UNL     1      21.194   3.183  51.254  1.00  0.00     0.040 C 
HETATM    5  C5  UNL     1      22.107   2.006  51.220  1.00  0.00     0.037 C 
HETATM    6  N1  UNL     1      22.851   1.881  50.166  1.00  0.00    -0.265 NA
HETATM    7  C6  UNL     1      23.622   2.915  49.507  1.00  0.00     0.124 C 
HETATM    8  C7  UNL     1      23.498   4.214  49.810  1.00  0.00    -0.034 C 
HETATM    9  C8  UNL     1      24.732   4.936  49.434  1.00  0.00     0.042 C 
HETATM   10  C9  UNL     1      25.978   4.290  49.925  1.00  0.00    -0.015 C 
HETATM   11  C10 UNL     1      25.709   3.152  50.662  1.00  0.00     0.044 C 
HETATM   12  C11 UNL     1      26.659   2.190  51.344  1.00  0.00    -0.018 C 
HETATM   13  C12 UNL     1      26.203   1.106  52.043  1.00  0.00    -0.082 C 
HETATM   14  C13 UNL     1      27.469   0.382  52.571  1.00  0.00     0.043 C 
HETATM   15  C14 UNL     1      24.690   1.009  52.085  1.00  0.00     0.054 C 
HETATM   16  C15 UNL     1      23.929   0.031  52.700  1.00  0.00     0.006 C 
HETATM   17  C16 UNL     1      22.456   0.012  52.699  1.00  0.00     0.113 C 
HETATM   18  C18 UNL     1      21.811   1.357  52.501  1.00  0.00     0.086 C 
ENDROOT
BRANCH  17  19
HETATM   19  N2  UNL     1      21.888  -0.464  53.980  1.00  0.00    -0.272 N 
HETATM   20  C17 UNL     1      21.126  -0.016  55.021  1.00  0.00     0.293 A 
HETATM   21  N3  UNL     1      21.588  -1.300  55.021  1.00  0.00    -0.185 NA
ENDBRANCH  17  19
TORSDOF 1
ENDMDL
MODEL 6
REMARK VINA RESULT:      -7.4      2.762      6.864
REMARK  1 active torsions:
REMARK  status: ('A' for Active; 'I' for Inactive)
REMARK    1  A    between atoms: C16_17  and  N2_18 
ROOT
HETATM    1  C1  UNL     1      22.722  -0.757  52.732  1.00  0.00     0.049 C 
HETATM    2  C2  UNL     1      22.552   0.711  52.907  1.00  0.00    -0.043 C 
HETATM    3  C3  UNL     1      21.417   1.397  52.912  1.00  0.00    -0.017 C 
HETATM    4  C4  UNL     1      21.326   2.500  52.175  1.00  0.00     0.040 C 
HETATM    5  C5  UNL     1      22.311   3.555  51.804  1.00  0.00     0.037 C 
HETATM    6  N1  UNL     1      23.327   3.703  52.595  1.00  0.00    -0.265 NA
HETATM    7  C6  UNL     1      24.159   2.661  53.162  1.00  0.00     0.124 C 
HETATM    8  C7  UNL     1      23.843   1.362  53.084  1.00  0.00    -0.034 C 
HETATM    9  C8  UNL     1      25.065   0.541  53.216  1.00  0.00     0.042 C 
HETATM   10  C9  UNL     1      26.177   0.974  52.328  1.00  0.00    -0.015 C 
HETATM   11  C10 UNL     1      25.813   2.050  51.539  1.00  0.00     0.044 C 
HETATM   12  C11 UNL     1      26.615   2.810  50.504  1.00  0.00    -0.018 C 
HETATM   13  C12 UNL     1      26.079   3.859  49.809  1.00  0.00    -0.082 C 
HETATM   14  C13 UNL     1      27.205   4.363  48.870  1.00  0.00     0.043 C 
HETATM   15  C14 UNL     1      24.628   4.133  50.156  1.00  0.00     0.054 C 
HETATM   16  C15 UNL     1      23.814   5.123  49.636  1.00  0.00     0.006 C 
HETATM   17  C16 UNL     1      22.406   5.319  50.025  1.00  0.00     0.113 C 
HETATM   18  C18 UNL     1      21.728   4.091  50.570  1.00  0.00     0.086 C 
ENDROOT
BRANCH  17  19
HETATM   19  N2  UNL     1      21.547   5.719  48.888  1.00  0.00    -0.272 N 
HETATM   20  C17 UNL     1      20.735   5.163  47.941  1.00  0.00     0.293 A 
HETATM   21  N3  UNL     1      20.912   6.516  47.975  1.00  0.00    -0.185 NA
ENDBRANCH  17  19
TORSDOF 1
ENDMDL
MODEL 7
REMARK VINA RESULT:      -7.3      2.218      4.770
REMARK  1 active torsions:
REMARK  status: ('A' for Active; 'I' for Inactive)
REMARK    1  A    between atoms: C16_17  and  N2_18 
ROOT
HETATM    1  C1  UNL     1      20.282   3.528  52.529  1.00  0.00     0.049 C 
HETATM    2  C2  UNL     1      21.319   2.532  52.146  1.00  0.00    -0.043 C 
HETATM    3  C3  UNL     1      21.840   1.578  52.904  1.00  0.00    -0.017 C 
HETATM    4  C4  UNL     1      23.162   1.429  52.937  1.00  0.00     0.040 C 
HETATM    5  C5  UNL     1      24.228   1.612  51.912  1.00  0.00     0.037 C 
HETATM    6  N1  UNL     1      23.861   1.522  50.672  1.00  0.00    -0.265 NA
HETATM    7  C6  UNL     1      22.701   2.131  50.054  1.00  0.00     0.124 C 
HETATM    8  C7  UNL     1      21.731   2.723  50.762  1.00  0.00    -0.034 C 
HETATM    9  C8  UNL     1      21.020   3.703  49.914  1.00  0.00     0.042 C 
HETATM   10  C9  UNL     1      21.923   4.632  49.184  1.00  0.00    -0.015 C 
HETATM   11  C10 UNL     1      23.252   4.393  49.481  1.00  0.00     0.044 C 
HETATM   12  C11 UNL     1      24.499   5.085  48.974  1.00  0.00    -0.018 C 
HETATM   13  C12 UNL     1      25.748   4.709  49.390  1.00  0.00    -0.082 C 
HETATM   14  C13 UNL     1      26.739   5.641  48.646  1.00  0.00     0.043 C 
HETATM   15  C14 UNL     1      25.731   3.587  50.410  1.00  0.00     0.054 C 
HETATM   16  C15 UNL     1      26.820   2.983  51.012  1.00  0.00     0.006 C 
HETATM   17  C16 UNL     1      26.717   1.897  52.002  1.00  0.00     0.113 C 
HETATM   18  C18 UNL     1      25.410   1.848  52.747  1.00  0.00     0.086 C 
ENDROOT
BRANCH  17  19
HETATM   19  N2  UNL     1      27.729   2.002  53.076  1.00  0.00    -0.272 N 
HETATM   20  C17 UNL     1      28.617   1.223  53.761  1.00  0.00     0.293 A 
HETATM   21  N3  UNL     1      28.517   2.553  54.050  1.00  0.00    -0.185 NA
ENDBRANCH  17  19
TORSDOF 1
ENDMDL
MODEL 8
REMARK VINA RESULT:      -7.2      2.654      4.730
REMARK  1 active torsions:
REMARK  status: ('A' for Active; 'I' for Inactive)
REMARK    1  A    between atoms: C16_17  and  N2_18 
ROOT
HETATM    1  C1  UNL     1      18.769   0.610  50.048  1.00  0.00     0.049 C 
HETATM    2  C2  UNL     1      19.561   1.731  50.623  1.00  0.00    -0.043 C 
HETATM    3  C3  UNL     1      19.910   2.861  50.024  1.00  0.00    -0.017 C 
HETATM    4  C4  UNL     1      21.173   3.272  50.105  1.00  0.00     0.040 C 
HETATM    5  C5  UNL     1      22.205   3.169  51.176  1.00  0.00     0.037 C 
HETATM    6  N1  UNL     1      21.770   3.019  52.387  1.00  0.00    -0.265 NA
HETATM    7  C6  UNL     1      20.731   2.117  52.843  1.00  0.00     0.124 C 
HETATM    8  C7  UNL     1      19.937   1.444  52.000  1.00  0.00    -0.034 C 
HETATM    9  C8  UNL     1      19.403   0.240  52.670  1.00  0.00     0.042 C 
HETATM   10  C9  UNL     1      20.442  -0.581  53.347  1.00  0.00    -0.015 C 
HETATM   11  C10 UNL     1      21.707  -0.047  53.178  1.00  0.00     0.044 C 
HETATM   12  C11 UNL     1      23.044  -0.540  53.688  1.00  0.00    -0.018 C 
HETATM   13  C12 UNL     1      24.207   0.126  53.412  1.00  0.00    -0.082 C 
HETATM   14  C13 UNL     1      25.332  -0.682  54.109  1.00  0.00     0.043 C 
HETATM   15  C14 UNL     1      24.008   1.348  52.536  1.00  0.00     0.054 C 
HETATM   16  C15 UNL     1      24.978   2.229  52.091  1.00  0.00     0.006 C 
HETATM   17  C16 UNL     1      24.700   3.395  51.234  1.00  0.00     0.113 C 
HETATM   18  C18 UNL     1      23.449   3.282  50.407  1.00  0.00     0.086 C 
ENDROOT
BRANCH  17  19
HETATM   19  N2  UNL     1      25.763   3.634  50.231  1.00  0.00    -0.272 N 
HETATM   20  C17 UNL     1      26.158   4.578  49.327  1.00  0.00     0.293 A 
HETATM   21  N3  UNL     1      26.877   3.426  49.464  1.00  0.00    -0.185 NA
ENDBRANCH  17  19
TORSDOF 1
ENDMDL
MODEL 9
REMARK VINA RESULT:      -7.2      2.825      5.686
REMARK  1 active torsions:
REMARK  status: ('A' for Active; 'I' for Inactive)
REMARK    1  A    between atoms: C16_17  and  N2_18 
ROOT
HETATM    1  C1  UNL     1      21.435   7.410  50.837  1.00  0.00     0.049 C 
HETATM    2  C2  UNL     1      21.779   5.981  50.609  1.00  0.00    -0.043 C 
HETATM    3  C3  UNL     1      21.515   4.952  51.402  1.00  0.00    -0.017 C 
HETATM    4  C4  UNL     1      22.487   4.087  51.683  1.00  0.00     0.040 C 
HETATM    5  C5  UNL     1      23.641   3.570  50.895  1.00  0.00     0.037 C 
HETATM    6  N1  UNL     1      23.531   3.620  49.604  1.00  0.00    -0.265 NA
HETATM    7  C6  UNL     1      23.060   4.734  48.806  1.00  0.00     0.124 C 
HETATM    8  C7  UNL     1      22.480   5.815  49.343  1.00  0.00    -0.034 C 
HETATM    9  C8  UNL     1      22.622   6.966  48.428  1.00  0.00     0.042 C 
HETATM   10  C9  UNL     1      24.010   7.175  47.937  1.00  0.00    -0.015 C 
HETATM   11  C10 UNL     1      24.887   6.249  48.473  1.00  0.00     0.044 C 
HETATM   12  C11 UNL     1      26.376   6.083  48.255  1.00  0.00    -0.018 C 
HETATM   13  C12 UNL     1      27.088   5.099  48.883  1.00  0.00    -0.082 C 
HETATM   14  C13 UNL     1      28.551   5.260  48.396  1.00  0.00     0.043 C 
HETATM   15  C14 UNL     1      26.248   4.251  49.819  1.00  0.00     0.054 C 
HETATM   16  C15 UNL     1      26.669   3.180  50.587  1.00  0.00     0.006 C 
HETATM   17  C16 UNL     1      25.785   2.410  51.479  1.00  0.00     0.113 C 
HETATM   18  C18 UNL     1      24.567   3.154  51.954  1.00  0.00     0.086 C 
ENDROOT
BRANCH  17  19
HETATM   19  N2  UNL     1      26.455   1.998  52.733  1.00  0.00    -0.272 N 
HETATM   20  C17 UNL     1      27.456   1.177  53.167  1.00  0.00     0.293 A 
HETATM   21  N3  UNL     1      26.753   1.924  54.067  1.00  0.00    -0.185 NA
ENDBRANCH  17  19
TORSDOF 1
ENDMDL
