MODEL 1
REMARK VINA RESULT:     -10.2      0.000      0.000
REMARK  1 active torsions:
REMARK  status: ('A' for Active; 'I' for Inactive)
REMARK    1  A    between atoms: C2_2  and  N1_4 
ROOT
HETATM    1  N1  UNL     1      21.120   1.207  52.540  1.00  0.00    -0.395 N 
HETATM    2  C4  UNL     1      20.411   2.459  52.628  1.00  0.00     0.206 C 
HETATM    3  C5  UNL     1      20.499   3.222  51.430  1.00  0.00    -0.095 C 
HETATM    4  C6  UNL     1      20.588   3.856  50.444  1.00  0.00     0.172 A 
HETATM    5  C7  UNL     1      20.720   4.625  49.250  1.00  0.00     0.192 A 
HETATM    6  O1  UNL     1      19.869   3.911  49.094  1.00  0.00    -0.278 OA
HETATM    7  N2  UNL     1      21.689   5.562  49.194  1.00  0.00    -0.334 N 
HETATM    8  C8  UNL     1      22.691   6.531  49.135  1.00  0.00     0.035 A 
HETATM    9  C9  UNL     1      22.007   7.661  49.405  1.00  0.00     0.032 A 
HETATM   10  C10 UNL     1      23.063   8.564  49.588  1.00  0.00     0.035 A 
HETATM   11  C11 UNL     1      24.364   8.140  49.466  1.00  0.00     0.072 A 
HETATM   12  N3  UNL     1      25.426   9.006  49.682  1.00  0.00    -0.241 NA
HETATM   13  C12 UNL     1      26.650   8.463  49.575  1.00  0.00     0.236 A 
HETATM   14  N4  UNL     1      26.853   7.167  49.280  1.00  0.00    -0.224 NA
HETATM   15  C13 UNL     1      25.818   6.318  49.068  1.00  0.00     0.141 A 
HETATM   16  C14 UNL     1      24.539   6.823  49.162  1.00  0.00     0.041 A 
HETATM   17  C15 UNL     1      23.768   5.766  48.935  1.00  0.00     0.047 A 
HETATM   18  N5  UNL     1      26.513   5.068  48.834  1.00  0.00    -0.350 N 
HETATM   19  C16 UNL     1      26.677   3.918  49.686  1.00  0.00     0.086 C 
HETATM   20  C17 UNL     1      26.044   3.110  50.515  1.00  0.00    -0.001 C 
HETATM   21  C18 UNL     1      26.705   2.003  51.193  1.00  0.00     0.153 C 
HETATM   22  C19 UNL     1      26.145   1.166  52.000  1.00  0.00     0.127 C 
HETATM   23  F1  UNL     1      27.381   0.560  52.146  1.00  0.00    -0.242 F 
HETATM   24  C20 UNL     1      25.195   0.392  52.758  1.00  0.00     0.043 C 
HETATM   25 CL1  UNL     1      25.520  -0.793  53.952  1.00  0.00    -0.086 Cl
HETATM   26  C21 UNL     1      23.913   0.214  52.927  1.00  0.00    -0.002 C 
HETATM   27  C22 UNL     1      22.684  -0.348  53.481  1.00  0.00     0.053 C 
HETATM   28  C23 UNL     1      21.594   0.670  53.767  1.00  0.00     0.079 C 
HETATM   29  C24 UNL     1      20.540   0.051  54.625  1.00  0.00     0.032 C 
HETATM   30  H10 UNL     1      21.225   5.606  48.222  1.00  0.00     0.168 HD
HETATM   31  H15 UNL     1      26.996   5.008  47.924  1.00  0.00     0.166 HD
ENDROOT
BRANCH   1  32
HETATM   32  C2  UNL     1      20.543   0.297  51.610  1.00  0.00     0.072 C 
HETATM   33  C1  UNL     1      19.034   0.426  51.477  1.00  0.00     0.031 C 
HETATM   34  C3  UNL     1      21.241   0.415  50.279  1.00  0.00     0.031 C 
ENDBRANCH   1  32
TORSDOF 1
ENDMDL
MODEL 2
REMARK VINA RESULT:      -9.7      3.361      7.689
REMARK  1 active torsions:
REMARK  status: ('A' for Active; 'I' for Inactive)
REMARK    1  A    between atoms: C2_2  and  N1_4 
ROOT
HETATM    1  N1  UNL     1      22.517   5.952  49.757  1.00  0.00    -0.395 N 
HETATM    2  C4  UNL     1      23.789   6.262  50.361  1.00  0.00     0.206 C 
HETATM    3  C5  UNL     1      24.709   5.179  50.285  1.00  0.00    -0.095 C 
HETATM    4  C6  UNL     1      25.460   4.277  50.234  1.00  0.00     0.172 A 
HETATM    5  C7  UNL     1      26.355   3.167  50.184  1.00  0.00     0.192 A 
HETATM    6  O1  UNL     1      26.447   3.713  49.209  1.00  0.00    -0.278 OA
HETATM    7  N2  UNL     1      26.425   2.350  51.255  1.00  0.00    -0.334 N 
HETATM    8  C8  UNL     1      26.497   1.504  52.362  1.00  0.00     0.035 A 
HETATM    9  C9  UNL     1      27.601   1.955  52.991  1.00  0.00     0.032 A 
HETATM   10  C10 UNL     1      27.503   1.267  54.207  1.00  0.00     0.035 A 
HETATM   11  C11 UNL     1      26.451   0.414  54.438  1.00  0.00     0.072 A 
HETATM   12  N3  UNL     1      26.312  -0.247  55.649  1.00  0.00    -0.241 NA
HETATM   13  C12 UNL     1      25.220  -1.019  55.768  1.00  0.00     0.236 A 
HETATM   14  N4  UNL     1      24.307  -1.153  54.789  1.00  0.00    -0.224 NA
HETATM   15  C13 UNL     1      24.440  -0.510  53.604  1.00  0.00     0.141 A 
HETATM   16  C14 UNL     1      25.545   0.294  53.426  1.00  0.00     0.041 A 
HETATM   17  C15 UNL     1      25.376   0.792  52.207  1.00  0.00     0.047 A 
HETATM   18  N5  UNL     1      23.233  -0.922  52.915  1.00  0.00    -0.350 N 
HETATM   19  C16 UNL     1      22.019  -0.195  52.646  1.00  0.00     0.086 C 
HETATM   20  C17 UNL     1      21.543   0.967  52.241  1.00  0.00    -0.001 C 
HETATM   21  C18 UNL     1      20.115   1.238  52.134  1.00  0.00     0.153 C 
HETATM   22  C19 UNL     1      19.582   2.341  51.730  1.00  0.00     0.127 C 
HETATM   23  F1  UNL     1      18.343   1.762  51.948  1.00  0.00    -0.242 F 
HETATM   24  C20 UNL     1      19.351   3.647  51.165  1.00  0.00     0.043 C 
HETATM   25 CL1  UNL     1      17.886   4.533  51.131  1.00  0.00    -0.086 Cl
HETATM   26  C21 UNL     1      19.959   4.623  50.546  1.00  0.00    -0.002 C 
HETATM   27  C22 UNL     1      20.124   5.917  49.891  1.00  0.00     0.053 C 
HETATM   28  C23 UNL     1      21.395   6.659  50.265  1.00  0.00     0.079 C 
HETATM   29  C24 UNL     1      21.299   8.080  49.816  1.00  0.00     0.032 C 
HETATM   30  H10 UNL     1      27.105   1.909  50.544  1.00  0.00     0.168 HD
HETATM   31  H15 UNL     1      23.232  -1.904  52.598  1.00  0.00     0.166 HD
ENDROOT
BRANCH   1  32
HETATM   32  C2  UNL     1      22.592   5.774  48.347  1.00  0.00     0.072 C 
HETATM   33  C1  UNL     1      23.728   6.540  47.689  1.00  0.00     0.031 C 
HETATM   34  C3  UNL     1      22.636   4.303  48.018  1.00  0.00     0.031 C 
ENDBRANCH   1  32
TORSDOF 1
ENDMDL
MODEL 3
REMARK VINA RESULT:      -8.9      2.964      6.072
REMARK  1 active torsions:
REMARK  status: ('A' for Active; 'I' for Inactive)
REMARK    1  A    between atoms: C2_2  and  N1_4 
ROOT
HETATM    1  N1  UNL     1      26.093   0.842  52.564  1.00  0.00    -0.395 N 
HETATM    2  C4  UNL     1      26.397   1.151  51.189  1.00  0.00     0.206 C 
HETATM    3  C5  UNL     1      25.809   2.374  50.761  1.00  0.00    -0.095 C 
HETATM    4  C6  UNL     1      25.308   3.377  50.407  1.00  0.00     0.172 A 
HETATM    5  C7  UNL     1      24.678   4.585  49.983  1.00  0.00     0.192 A 
HETATM    6  O1  UNL     1      25.643   4.868  50.480  1.00  0.00    -0.278 OA
HETATM    7  N2  UNL     1      23.488   4.502  49.353  1.00  0.00    -0.334 N 
HETATM    8  C8  UNL     1      22.258   4.417  48.701  1.00  0.00     0.035 A 
HETATM    9  C9  UNL     1      22.616   4.528  47.406  1.00  0.00     0.032 A 
HETATM   10  C10 UNL     1      21.412   4.188  46.776  1.00  0.00     0.035 A 
HETATM   11  C11 UNL     1      20.305   3.867  47.524  1.00  0.00     0.072 A 
HETATM   12  N3  UNL     1      19.114   3.490  46.923  1.00  0.00    -0.241 NA
HETATM   13  C12 UNL     1      18.119   3.159  47.762  1.00  0.00     0.236 A 
HETATM   14  N4  UNL     1      18.250   3.184  49.100  1.00  0.00    -0.224 NA
HETATM   15  C13 UNL     1      19.411   3.553  49.691  1.00  0.00     0.141 A 
HETATM   16  C14 UNL     1      20.466   3.906  48.878  1.00  0.00     0.041 A 
HETATM   17  C15 UNL     1      21.442   4.183  49.734  1.00  0.00     0.047 A 
HETATM   18  N5  UNL     1      19.087   3.388  51.094  1.00  0.00    -0.350 N 
HETATM   19  C16 UNL     1      19.477   2.361  52.027  1.00  0.00     0.086 C 
HETATM   20  C17 UNL     1      20.497   1.636  52.444  1.00  0.00    -0.001 C 
HETATM   21  C18 UNL     1      20.373   0.638  53.500  1.00  0.00     0.153 C 
HETATM   22  C19 UNL     1      21.328  -0.091  53.968  1.00  0.00     0.127 C 
HETATM   23  F1  UNL     1      20.400  -0.674  54.812  1.00  0.00    -0.242 F 
HETATM   24  C20 UNL     1      22.616  -0.653  54.292  1.00  0.00     0.043 C 
HETATM   25 CL1  UNL     1      22.946  -2.054  55.220  1.00  0.00    -0.086 Cl
HETATM   26  C21 UNL     1      23.895  -0.473  54.104  1.00  0.00    -0.002 C 
HETATM   27  C22 UNL     1      25.329  -0.729  54.205  1.00  0.00     0.053 C 
HETATM   28  C23 UNL     1      26.099  -0.535  52.911  1.00  0.00     0.079 C 
HETATM   29  C24 UNL     1      27.460  -1.138  53.041  1.00  0.00     0.032 C 
HETATM   30  H10 UNL     1      23.679   5.561  49.415  1.00  0.00     0.168 HD
HETATM   31  H15 UNL     1      18.446   4.102  51.475  1.00  0.00     0.166 HD
ENDROOT
BRANCH   1  32
HETATM   32  C2  UNL     1      26.683   1.751  53.487  1.00  0.00     0.072 C 
HETATM   33  C1  UNL     1      27.995   2.350  53.009  1.00  0.00     0.031 C 
HETATM   34  C3  UNL     1      25.682   2.811  53.872  1.00  0.00     0.031 C 
ENDBRANCH   1  32
TORSDOF 1
ENDMDL
MODEL 4
REMARK VINA RESULT:      -8.6      1.774      2.183
REMARK  1 active torsions:
REMARK  status: ('A' for Active; 'I' for Inactive)
REMARK    1  A    between atoms: C2_2  and  N1_4 
ROOT
HETATM    1  N1  UNL     1      20.897   2.837  50.545  1.00  0.00    -0.395 N 
HETATM    2  C4  UNL     1      20.365   4.175  50.484  1.00  0.00     0.206 C 
HETATM    3  C5  UNL     1      20.833   4.898  49.351  1.00  0.00    -0.095 C 
HETATM    4  C6  UNL     1      21.234   5.497  48.422  1.00  0.00     0.172 A 
HETATM    5  C7  UNL     1      21.745   6.219  47.303  1.00  0.00     0.192 A 
HETATM    6  O1  UNL     1      20.863   5.627  46.944  1.00  0.00    -0.278 OA
HETATM    7  N2  UNL     1      22.819   7.013  47.487  1.00  0.00    -0.334 N 
HETATM    8  C8  UNL     1      23.931   7.835  47.677  1.00  0.00     0.035 A 
HETATM    9  C9  UNL     1      23.365   9.053  47.798  1.00  0.00     0.032 A 
HETATM   10  C10 UNL     1      24.464   9.805  48.234  1.00  0.00     0.035 A 
HETATM   11  C11 UNL     1      25.687   9.205  48.412  1.00  0.00     0.072 A 
HETATM   12  N3  UNL     1      26.778   9.921  48.881  1.00  0.00    -0.241 NA
HETATM   13  C12 UNL     1      27.907   9.213  49.053  1.00  0.00     0.236 A 
HETATM   14  N4  UNL     1      27.992   7.896  48.794  1.00  0.00    -0.224 NA
HETATM   15  C13 UNL     1      26.928   7.194  48.335  1.00  0.00     0.141 A 
HETATM   16  C14 UNL     1      25.745   7.870  48.137  1.00  0.00     0.041 A 
HETATM   17  C15 UNL     1      24.910   6.926  47.722  1.00  0.00     0.047 A 
HETATM   18  N5  UNL     1      27.480   5.856  48.250  1.00  0.00    -0.350 N 
HETATM   19  C16 UNL     1      27.282   4.709  49.099  1.00  0.00     0.086 C 
HETATM   20  C17 UNL     1      26.369   4.011  49.747  1.00  0.00    -0.001 C 
HETATM   21  C18 UNL     1      26.696   2.835  50.543  1.00  0.00     0.153 C 
HETATM   22  C19 UNL     1      25.855   2.098  51.186  1.00  0.00     0.127 C 
HETATM   23  F1  UNL     1      26.928   1.330  51.606  1.00  0.00    -0.242 F 
HETATM   24  C20 UNL     1      24.658   1.475  51.691  1.00  0.00     0.043 C 
HETATM   25 CL1  UNL     1      24.531   0.278  52.910  1.00  0.00    -0.086 Cl
HETATM   26  C21 UNL     1      23.360   1.478  51.555  1.00  0.00    -0.002 C 
HETATM   27  C22 UNL     1      21.971   1.099  51.799  1.00  0.00     0.053 C 
HETATM   28  C23 UNL     1      20.995   2.262  51.840  1.00  0.00     0.079 C 
HETATM   29  C24 UNL     1      19.696   1.808  52.420  1.00  0.00     0.032 C 
HETATM   30  H10 UNL     1      22.604   7.103  46.435  1.00  0.00     0.168 HD
HETATM   31  H15 UNL     1      28.149   5.715  47.476  1.00  0.00     0.166 HD
ENDROOT
BRANCH   1  32
HETATM   32  C2  UNL     1      20.432   1.999  49.493  1.00  0.00     0.072 C 
HETATM   33  C1  UNL     1      19.091   2.422  48.915  1.00  0.00     0.031 C 
HETATM   34  C3  UNL     1      21.493   1.875  48.429  1.00  0.00     0.031 C 
ENDBRANCH   1  32
TORSDOF 1
ENDMDL
MODEL 5
REMARK VINA RESULT:      -8.5      3.479      8.335
REMARK  1 active torsions:
REMARK  status: ('A' for Active; 'I' for Inactive)
REMARK    1  A    between atoms: C2_2  and  N1_4 
ROOT
HETATM    1  N1  UNL     1      22.462   3.156  50.584  1.00  0.00    -0.395 N 
HETATM    2  C4  UNL     1      21.667   3.305  49.390  1.00  0.00     0.206 C 
HETATM    3  C5  UNL     1      20.284   3.487  49.674  1.00  0.00    -0.095 C 
HETATM    4  C6  UNL     1      19.141   3.622  49.913  1.00  0.00     0.172 A 
HETATM    5  C7  UNL     1      17.754   3.762  50.214  1.00  0.00     0.192 A 
HETATM    6  O1  UNL     1      18.216   4.782  50.287  1.00  0.00    -0.278 OA
HETATM    7  N2  UNL     1      16.976   2.660  50.192  1.00  0.00    -0.334 N 
HETATM    8  C8  UNL     1      16.172   1.521  50.169  1.00  0.00     0.035 A 
HETATM    9  C9  UNL     1      15.589   1.611  48.957  1.00  0.00     0.032 A 
HETATM   10  C10 UNL     1      14.995   0.345  48.862  1.00  0.00     0.035 A 
HETATM   11  C11 UNL     1      15.131  -0.562  49.885  1.00  0.00     0.072 A 
HETATM   12  N3  UNL     1      14.586  -1.833  49.797  1.00  0.00    -0.241 NA
HETATM   13  C12 UNL     1      14.824  -2.641  50.843  1.00  0.00     0.236 A 
HETATM   14  N4  UNL     1      15.541  -2.260  51.915  1.00  0.00    -0.224 NA
HETATM   15  C13 UNL     1      16.074  -1.018  52.005  1.00  0.00     0.141 A 
HETATM   16  C14 UNL     1      15.859  -0.146  50.961  1.00  0.00     0.041 A 
HETATM   17  C15 UNL     1      16.514   0.949  51.327  1.00  0.00     0.047 A 
HETATM   18  N5  UNL     1      16.767  -1.093  53.277  1.00  0.00    -0.350 N 
HETATM   19  C16 UNL     1      18.174  -1.213  53.566  1.00  0.00     0.086 C 
HETATM   20  C17 UNL     1      19.370  -0.765  53.234  1.00  0.00    -0.001 C 
HETATM   21  C18 UNL     1      20.592  -1.245  53.865  1.00  0.00     0.153 C 
HETATM   22  C19 UNL     1      21.788  -0.840  53.604  1.00  0.00     0.127 C 
HETATM   23  F1  UNL     1      22.246  -1.744  54.547  1.00  0.00    -0.242 F 
HETATM   24  C20 UNL     1      22.932  -0.105  53.126  1.00  0.00     0.043 C 
HETATM   25 CL1  UNL     1      24.589  -0.495  53.322  1.00  0.00    -0.086 Cl
HETATM   26  C21 UNL     1      23.261   0.964  52.451  1.00  0.00    -0.002 C 
HETATM   27  C22 UNL     1      24.129   1.951  51.815  1.00  0.00     0.053 C 
HETATM   28  C23 UNL     1      23.664   2.413  50.445  1.00  0.00     0.079 C 
HETATM   29  C24 UNL     1      24.772   3.142  49.758  1.00  0.00     0.032 C 
HETATM   30  H10 UNL     1      16.305   3.450  50.487  1.00  0.00     0.168 HD
HETATM   31  H15 UNL     1      16.151  -1.095  54.104  1.00  0.00     0.166 HD
ENDROOT
BRANCH   1  32
HETATM   32  C2  UNL     1      22.513   4.337  51.376  1.00  0.00     0.072 C 
HETATM   33  C1  UNL     1      22.358   5.622  50.578  1.00  0.00     0.031 C 
HETATM   34  C3  UNL     1      21.512   4.244  52.500  1.00  0.00     0.031 C 
ENDBRANCH   1  32
TORSDOF 1
ENDMDL
MODEL 6
REMARK VINA RESULT:      -8.0      3.552      7.037
REMARK  1 active torsions:
REMARK  status: ('A' for Active; 'I' for Inactive)
REMARK    1  A    between atoms: C2_2  and  N1_4 
ROOT
HETATM    1  N1  UNL     1      18.974   4.250  47.699  1.00  0.00    -0.395 N 
HETATM    2  C4  UNL     1      18.612   2.909  48.087  1.00  0.00     0.206 C 
HETATM    3  C5  UNL     1      18.793   2.676  49.479  1.00  0.00    -0.095 C 
HETATM    4  C6  UNL     1      18.959   2.483  50.627  1.00  0.00     0.172 A 
HETATM    5  C7  UNL     1      19.184   2.254  52.017  1.00  0.00     0.192 A 
HETATM    6  O1  UNL     1      18.171   2.724  51.916  1.00  0.00    -0.278 OA
HETATM    7  N2  UNL     1      20.350   1.691  52.394  1.00  0.00    -0.334 N 
HETATM    8  C8  UNL     1      21.556   1.108  52.786  1.00  0.00     0.035 A 
HETATM    9  C9  UNL     1      21.203  -0.181  52.959  1.00  0.00     0.032 A 
HETATM   10  C10 UNL     1      22.464  -0.776  53.101  1.00  0.00     0.035 A 
HETATM   11  C11 UNL     1      23.603  -0.009  53.036  1.00  0.00     0.072 A 
HETATM   12  N3  UNL     1      24.862  -0.581  53.133  1.00  0.00    -0.241 NA
HETATM   13  C12 UNL     1      25.896   0.267  53.013  1.00  0.00     0.236 A 
HETATM   14  N4  UNL     1      25.741   1.588  52.810  1.00  0.00    -0.224 NA
HETATM   15  C13 UNL     1      24.512   2.150  52.716  1.00  0.00     0.141 A 
HETATM   16  C14 UNL     1      23.414   1.326  52.835  1.00  0.00     0.041 A 
HETATM   17  C15 UNL     1      22.386   2.150  52.674  1.00  0.00     0.047 A 
HETATM   18  N5  UNL     1      24.848   3.538  52.465  1.00  0.00    -0.350 N 
HETATM   19  C16 UNL     1      24.784   4.308  51.249  1.00  0.00     0.086 C 
HETATM   20  C17 UNL     1      24.037   4.568  50.193  1.00  0.00    -0.001 C 
HETATM   21  C18 UNL     1      24.450   5.494  49.146  1.00  0.00     0.153 C 
HETATM   22  C19 UNL     1      23.765   5.807  48.100  1.00  0.00     0.127 C 
HETATM   23  F1  UNL     1      24.815   6.625  47.720  1.00  0.00    -0.242 F 
HETATM   24  C20 UNL     1      22.715   5.980  47.127  1.00  0.00     0.043 C 
HETATM   25 CL1  UNL     1      22.826   6.701  45.578  1.00  0.00    -0.086 Cl
HETATM   26  C21 UNL     1      21.447   5.739  46.927  1.00  0.00    -0.002 C 
HETATM   27  C22 UNL     1      20.165   5.721  46.229  1.00  0.00     0.053 C 
HETATM   28  C23 UNL     1      19.395   4.418  46.353  1.00  0.00     0.079 C 
HETATM   29  C24 UNL     1      18.291   4.388  45.347  1.00  0.00     0.032 C 
HETATM   30  H10 UNL     1      19.835   1.875  53.323  1.00  0.00     0.168 HD
HETATM   31  H15 UNL     1      25.225   4.044  53.282  1.00  0.00     0.166 HD
ENDROOT
BRANCH   1  32
HETATM   32  C2  UNL     1      18.112   5.244  48.243  1.00  0.00     0.072 C 
HETATM   33  C1  UNL     1      16.711   4.742  48.553  1.00  0.00     0.031 C 
HETATM   34  C3  UNL     1      18.763   5.885  49.442  1.00  0.00     0.031 C 
ENDBRANCH   1  32
TORSDOF 1
ENDMDL
MODEL 7
REMARK VINA RESULT:      -8.0      3.929      8.944
REMARK  1 active torsions:
REMARK  status: ('A' for Active; 'I' for Inactive)
REMARK    1  A    between atoms: C2_2  and  N1_4 
ROOT
HETATM    1  N1  UNL     1      22.962   5.971  50.161  1.00  0.00    -0.395 N 
HETATM    2  C4  UNL     1      23.349   5.375  51.415  1.00  0.00     0.206 C 
HETATM    3  C5  UNL     1      23.338   3.952  51.370  1.00  0.00    -0.095 C 
HETATM    4  C6  UNL     1      23.313   2.777  51.333  1.00  0.00     0.172 A 
HETATM    5  C7  UNL     1      23.257   1.353  51.282  1.00  0.00     0.192 A 
HETATM    6  O1  UNL     1      24.257   1.663  50.880  1.00  0.00    -0.278 OA
HETATM    7  N2  UNL     1      22.139   0.738  51.718  1.00  0.00    -0.334 N 
HETATM    8  C8  UNL     1      20.982   0.100  52.168  1.00  0.00     0.035 A 
HETATM    9  C9  UNL     1      21.334  -0.278  53.413  1.00  0.00     0.032 A 
HETATM   10  C10 UNL     1      20.092  -0.681  53.920  1.00  0.00     0.035 A 
HETATM   11  C11 UNL     1      18.966  -0.603  53.137  1.00  0.00     0.072 A 
HETATM   12  N3  UNL     1      17.720  -0.959  53.631  1.00  0.00    -0.241 NA
HETATM   13  C12 UNL     1      16.691  -0.799  52.782  1.00  0.00     0.236 A 
HETATM   14  N4  UNL     1      16.840  -0.325  51.532  1.00  0.00    -0.224 NA
HETATM   15  C13 UNL     1      18.056   0.022  51.046  1.00  0.00     0.141 A 
HETATM   16  C14 UNL     1      19.148  -0.125  51.873  1.00  0.00     0.041 A 
HETATM   17  C15 UNL     1      20.160   0.314  51.136  1.00  0.00     0.047 A 
HETATM   18  N5  UNL     1      17.712   0.496  49.719  1.00  0.00    -0.350 N 
HETATM   19  C16 UNL     1      17.636   1.838  49.200  1.00  0.00     0.086 C 
HETATM   20  C17 UNL     1      18.251   3.005  49.176  1.00  0.00    -0.001 C 
HETATM   21  C18 UNL     1      17.725   4.156  48.453  1.00  0.00     0.153 C 
HETATM   22  C19 UNL     1      18.281   5.318  48.372  1.00  0.00     0.127 C 
HETATM   23  F1  UNL     1      17.204   5.722  47.602  1.00  0.00    -0.242 F 
HETATM   24  C20 UNL     1      19.205   6.422  48.430  1.00  0.00     0.043 C 
HETATM   25 CL1  UNL     1      18.914   8.058  48.015  1.00  0.00    -0.086 Cl
HETATM   26  C21 UNL     1      20.435   6.720  48.753  1.00  0.00    -0.002 C 
HETATM   27  C22 UNL     1      21.620   7.548  48.954  1.00  0.00     0.053 C 
HETATM   28  C23 UNL     1      22.381   7.264  50.237  1.00  0.00     0.079 C 
HETATM   29  C24 UNL     1      23.351   8.369  50.502  1.00  0.00     0.032 C 
HETATM   30  H10 UNL     1      22.767  -0.070  51.379  1.00  0.00     0.168 HD
HETATM   31  H15 UNL     1      17.446  -0.245  49.053  1.00  0.00     0.166 HD
ENDROOT
BRANCH   1  32
HETATM   32  C2  UNL     1      23.899   5.737  49.115  1.00  0.00     0.072 C 
HETATM   33  C1  UNL     1      25.319   5.497  49.602  1.00  0.00     0.031 C 
HETATM   34  C3  UNL     1      23.407   4.622  48.228  1.00  0.00     0.031 C 
ENDBRANCH   1  32
TORSDOF 1
ENDMDL
MODEL 8
REMARK VINA RESULT:      -7.9      3.158      4.585
REMARK  1 active torsions:
REMARK  status: ('A' for Active; 'I' for Inactive)
REMARK    1  A    between atoms: C2_2  and  N1_4 
ROOT
HETATM    1  N1  UNL     1      21.291   5.050  48.685  1.00  0.00    -0.395 N 
HETATM    2  C4  UNL     1      21.121   6.481  48.642  1.00  0.00     0.206 C 
HETATM    3  C5  UNL     1      21.956   7.101  47.670  1.00  0.00    -0.095 C 
HETATM    4  C6  UNL     1      22.658   7.611  46.876  1.00  0.00     0.172 A 
HETATM    5  C7  UNL     1      23.530   8.219  45.926  1.00  0.00     0.192 A 
HETATM    6  O1  UNL     1      22.616   7.882  45.371  1.00  0.00    -0.278 OA
HETATM    7  N2  UNL     1      24.711   8.708  46.358  1.00  0.00    -0.334 N 
HETATM    8  C8  UNL     1      25.932   9.214  46.804  1.00  0.00     0.035 A 
HETATM    9  C9  UNL     1      25.666  10.530  46.924  1.00  0.00     0.032 A 
HETATM   10  C10 UNL     1      26.812  10.964  47.604  1.00  0.00     0.035 A 
HETATM   11  C11 UNL     1      27.797  10.068  47.943  1.00  0.00     0.072 A 
HETATM   12  N3  UNL     1      28.920  10.467  48.651  1.00  0.00    -0.241 NA
HETATM   13  C12 UNL     1      29.790   9.490  48.958  1.00  0.00     0.236 A 
HETATM   14  N4  UNL     1      29.601   8.205  48.612  1.00  0.00    -0.224 NA
HETATM   15  C13 UNL     1      28.505   7.812  47.919  1.00  0.00     0.141 A 
HETATM   16  C14 UNL     1      27.580   8.773  47.574  1.00  0.00     0.041 A 
HETATM   17  C15 UNL     1      26.635   8.086  46.944  1.00  0.00     0.047 A 
HETATM   18  N5  UNL     1      28.722   6.381  47.822  1.00  0.00    -0.350 N 
HETATM   19  C16 UNL     1      28.095   5.293  48.528  1.00  0.00     0.086 C 
HETATM   20  C17 UNL     1      26.934   4.827  48.948  1.00  0.00    -0.001 C 
HETATM   21  C18 UNL     1      26.810   3.579  49.691  1.00  0.00     0.153 C 
HETATM   22  C19 UNL     1      25.710   3.057  50.115  1.00  0.00     0.127 C 
HETATM   23  F1  UNL     1      26.465   2.028  50.651  1.00  0.00    -0.242 F 
HETATM   24  C20 UNL     1      24.324   2.739  50.352  1.00  0.00     0.043 C 
HETATM   25 CL1  UNL     1      23.683   1.571  51.429  1.00  0.00    -0.086 Cl
HETATM   26  C21 UNL     1      23.115   3.076  49.993  1.00  0.00    -0.002 C 
HETATM   27  C22 UNL     1      21.655   3.053  49.961  1.00  0.00     0.053 C 
HETATM   28  C23 UNL     1      21.001   4.423  49.926  1.00  0.00     0.079 C 
HETATM   29  C24 UNL     1      19.545   4.293  50.233  1.00  0.00     0.032 C 
HETATM   30  H10 UNL     1      24.726   8.887  45.296  1.00  0.00     0.168 HD
HETATM   31  H15 UNL     1      29.469   6.103  47.168  1.00  0.00     0.166 HD
ENDROOT
BRANCH   1  32
HETATM   32  C2  UNL     1      20.844   4.395  47.503  1.00  0.00     0.072 C 
HETATM   33  C1  UNL     1      19.719   5.121  46.784  1.00  0.00     0.031 C 
HETATM   34  C3  UNL     1      22.016   4.123  46.593  1.00  0.00     0.031 C 
ENDBRANCH   1  32
TORSDOF 1
ENDMDL
MODEL 9
REMARK VINA RESULT:      -7.9     24.536     26.389
REMARK  1 active torsions:
REMARK  status: ('A' for Active; 'I' for Inactive)
REMARK    1  A    between atoms: C2_2  and  N1_4 
ROOT
HETATM    1  N1  UNL     1      39.490   0.651  69.826  1.00  0.00    -0.395 N 
HETATM    2  C4  UNL     1      40.026   0.382  68.515  1.00  0.00     0.206 C 
HETATM    3  C5  UNL     1      41.416   0.672  68.422  1.00  0.00    -0.095 C 
HETATM    4  C6  UNL     1      42.561   0.927  68.346  1.00  0.00     0.172 A 
HETATM    5  C7  UNL     1      43.945   1.261  68.260  1.00  0.00     0.192 A 
HETATM    6  O1  UNL     1      43.878   0.222  68.677  1.00  0.00    -0.278 OA
HETATM    7  N2  UNL     1      44.285   2.476  67.784  1.00  0.00    -0.334 N 
HETATM    8  C8  UNL     1      44.637   3.733  67.290  1.00  0.00     0.035 A 
HETATM    9  C9  UNL     1      44.954   3.455  66.010  1.00  0.00     0.032 A 
HETATM   10  C10 UNL     1      45.054   4.750  65.483  1.00  0.00     0.035 A 
HETATM   11  C11 UNL     1      44.835   5.843  66.286  1.00  0.00     0.072 A 
HETATM   12  N3  UNL     1      44.890   7.132  65.777  1.00  0.00    -0.241 NA
HETATM   13  C12 UNL     1      44.615   8.114  66.652  1.00  0.00     0.236 A 
HETATM   14  N4  UNL     1      44.304   7.882  67.940  1.00  0.00    -0.224 NA
HETATM   15  C13 UNL     1      44.250   6.624  68.440  1.00  0.00     0.141 A 
HETATM   16  C14 UNL     1      44.526   5.578  67.587  1.00  0.00     0.041 A 
HETATM   17  C15 UNL     1      44.368   4.502  68.349  1.00  0.00     0.047 A 
HETATM   18  N5  UNL     1      43.849   6.875  69.810  1.00  0.00    -0.350 N 
HETATM   19  C16 UNL     1      42.575   6.689  70.458  1.00  0.00     0.086 C 
HETATM   20  C17 UNL     1      41.559   5.858  70.586  1.00  0.00    -0.001 C 
HETATM   21  C18 UNL     1      40.403   6.151  71.424  1.00  0.00     0.153 C 
HETATM   22  C19 UNL     1      39.386   5.379  71.608  1.00  0.00     0.127 C 
HETATM   23  F1  UNL     1      38.856   6.360  72.429  1.00  0.00    -0.242 F 
HETATM   24  C20 UNL     1      38.484   4.256  71.644  1.00  0.00     0.043 C 
HETATM   25 CL1  UNL     1      36.870   4.223  72.219  1.00  0.00    -0.086 Cl
HETATM   26  C21 UNL     1      38.402   2.991  71.335  1.00  0.00    -0.002 C 
HETATM   27  C22 UNL     1      37.806   1.665  71.198  1.00  0.00     0.053 C 
HETATM   28  C23 UNL     1      38.107   0.968  69.883  1.00  0.00     0.079 C 
HETATM   29  C24 UNL     1      37.193  -0.201  69.712  1.00  0.00     0.032 C 
HETATM   30  H10 UNL     1      45.228   2.020  68.034  1.00  0.00     0.168 HD
HETATM   31  H15 UNL     1      44.585   7.284  70.406  1.00  0.00     0.166 HD
ENDROOT
BRANCH   1  32
HETATM   32  C2  UNL     1      40.003  -0.216  70.831  1.00  0.00     0.072 C 
HETATM   33  C1  UNL     1      40.449  -1.571  70.307  1.00  0.00     0.031 C 
HETATM   34  C3  UNL     1      41.097   0.482  71.600  1.00  0.00     0.031 C 
ENDBRANCH   1  32
TORSDOF 1
ENDMDL
