MODEL 1
REMARK VINA RESULT:      -7.9      0.000      0.000
REMARK  6 active torsions:
REMARK  status: ('A' for Active; 'I' for Inactive)
REMARK    1  A    between atoms: N1_2  and  N2_3 
REMARK    2  A    between atoms: C2_4  and  C3_5 
REMARK    3  A    between atoms: C3_5  and  C4_6 
REMARK    4  A    between atoms: C9_14  and  C14_20 
REMARK    5  A    between atoms: C12_18  and  C13_19 
REMARK    6  A    between atoms: C13_19  and  C14_20 
ROOT
HETATM    1  C4  UNL     1      24.568  -0.030  53.282  1.00  0.00     0.072 C 
HETATM    2  N3  UNL     1      24.991   0.670  52.335  1.00  0.00    -0.182 NA
HETATM    3  N4  UNL     1      26.078   1.206  51.888  1.00  0.00    -0.305 N 
HETATM    4  C5  UNL     1      26.792   2.482  51.583  1.00  0.00     0.206 C 
HETATM    5  S1  UNL     1      25.810   3.339  50.313  1.00  0.00    -0.182 SA
HETATM    6  C6  UNL     1      24.062   3.454  50.872  1.00  0.00     0.028 A 
HETATM    7  C7  UNL     1      24.175   3.792  52.171  1.00  0.00     0.017 A 
HETATM    8  C8  UNL     1      23.018   3.063  52.356  1.00  0.00     0.009 A 
HETATM    9  C9  UNL     1      23.273   2.966  51.021  1.00  0.00     0.007 A 
HETATM   10  N5  UNL     1      22.296   2.055  51.334  1.00  0.00     0.000 N 
HETATM   11  C10 UNL     1      21.653   1.398  50.369  1.00  0.00     0.209 A 
HETATM   12  C11 UNL     1      21.022   0.750  49.332  1.00  0.00    -0.001 A 
HETATM   13  C12 UNL     1      21.997   1.653  49.020  1.00  0.00     0.065 A 
HETATM   14  C13 UNL     1      22.698   2.364  49.965  1.00  0.00     0.034 A 
HETATM   15  C14 UNL     1      23.867   3.065  49.579  1.00  0.00     0.069 A 
HETATM   16  N6  UNL     1      21.726   0.624  51.601  1.00  0.00     0.177 N 
HETATM   17  N7  UNL     1      21.809  -0.126  52.810  1.00  0.00    -0.121 NA
HETATM   18  C15 UNL     1      23.093  -0.198  53.212  1.00  0.00     0.309 C 
HETATM   19  H8  UNL     1      26.634   0.348  51.682  1.00  0.00     0.183 HD
HETATM   20  H16 UNL     1      21.001  -0.115  51.803  1.00  0.00     0.342 HD
ENDROOT
BRANCH   1  21
HETATM   21  C3  UNL     1      24.877  -0.769  54.540  1.00  0.00     0.110 C 
BRANCH  21  22
HETATM   22  C2  UNL     1      26.043  -0.265  55.279  1.00  0.00     0.117 C 
HETATM   23  N2  UNL     1      27.109  -0.492  54.559  1.00  0.00    -0.196 NA
BRANCH  23  24
HETATM   24  N1  UNL     1      28.393  -0.142  54.958  1.00  0.00    -0.319 N 
HETATM   25  C1  UNL     1      29.119   0.903  54.235  1.00  0.00     0.169 C 
HETATM   26  H4  UNL     1      28.634  -0.757  55.789  1.00  0.00     0.181 HD
ENDBRANCH  23  24
ENDBRANCH  21  22
ENDBRANCH   1  21
TORSDOF 6
ENDMDL
MODEL 2
REMARK VINA RESULT:      -7.5      3.708      6.888
REMARK  6 active torsions:
REMARK  status: ('A' for Active; 'I' for Inactive)
REMARK    1  A    between atoms: N1_2  and  N2_3 
REMARK    2  A    between atoms: C2_4  and  C3_5 
REMARK    3  A    between atoms: C3_5  and  C4_6 
REMARK    4  A    between atoms: C9_14  and  C14_20 
REMARK    5  A    between atoms: C12_18  and  C13_19 
REMARK    6  A    between atoms: C13_19  and  C14_20 
ROOT
HETATM    1  C4  UNL     1      19.036   3.064  51.829  1.00  0.00     0.072 C 
HETATM    2  N3  UNL     1      20.214   3.206  52.225  1.00  0.00    -0.182 NA
HETATM    3  N4  UNL     1      21.127   4.110  52.361  1.00  0.00    -0.305 N 
HETATM    4  C5  UNL     1      22.476   4.582  51.926  1.00  0.00     0.206 C 
HETATM    5  S1  UNL     1      23.657   3.275  52.382  1.00  0.00    -0.182 SA
HETATM    6  C6  UNL     1      23.064   1.664  51.725  1.00  0.00     0.028 A 
HETATM    7  C7  UNL     1      22.641   1.973  50.485  1.00  0.00     0.017 A 
HETATM    8  C8  UNL     1      21.704   0.977  50.666  1.00  0.00     0.009 A 
HETATM    9  C9  UNL     1      22.419   0.987  51.825  1.00  0.00     0.007 A 
HETATM   10  N5  UNL     1      21.303   0.214  52.023  1.00  0.00     0.000 N 
HETATM   11  C10 UNL     1      21.172  -0.507  53.136  1.00  0.00     0.209 A 
HETATM   12  C11 UNL     1      21.089  -1.231  54.303  1.00  0.00    -0.001 A 
HETATM   13  C12 UNL     1      22.197  -0.459  54.109  1.00  0.00     0.065 A 
HETATM   14  C13 UNL     1      22.397   0.308  52.985  1.00  0.00     0.034 A 
HETATM   15  C14 UNL     1      23.426   1.282  52.984  1.00  0.00     0.069 A 
HETATM   16  N6  UNL     1      19.882  -0.103  52.590  1.00  0.00     0.177 N 
HETATM   17  N7  UNL     1      18.628   0.303  52.051  1.00  0.00    -0.121 NA
HETATM   18  C15 UNL     1      18.623   1.637  51.867  1.00  0.00     0.309 C 
HETATM   19  H8  UNL     1      20.671   4.725  53.070  1.00  0.00     0.183 HD
HETATM   20  H16 UNL     1      19.020  -0.674  52.798  1.00  0.00     0.342 HD
ENDROOT
BRANCH   1  21
HETATM   21  C3  UNL     1      17.811   3.698  51.262  1.00  0.00     0.110 C 
BRANCH  21  22
HETATM   22  C2  UNL     1      16.563   3.354  51.956  1.00  0.00     0.117 C 
HETATM   23  N2  UNL     1      16.263   4.336  52.763  1.00  0.00    -0.196 NA
BRANCH  23  24
HETATM   24  N1  UNL     1      15.139   4.344  53.580  1.00  0.00    -0.319 N 
HETATM   25  C1  UNL     1      13.821   4.071  53.005  1.00  0.00     0.169 C 
HETATM   26  H4  UNL     1      15.476   4.569  54.562  1.00  0.00     0.181 HD
ENDBRANCH  23  24
ENDBRANCH  21  22
ENDBRANCH   1  21
TORSDOF 6
ENDMDL
MODEL 3
REMARK VINA RESULT:      -7.4      2.079      3.628
REMARK  6 active torsions:
REMARK  status: ('A' for Active; 'I' for Inactive)
REMARK    1  A    between atoms: N1_2  and  N2_3 
REMARK    2  A    between atoms: C2_4  and  C3_5 
REMARK    3  A    between atoms: C3_5  and  C4_6 
REMARK    4  A    between atoms: C9_14  and  C14_20 
REMARK    5  A    between atoms: C12_18  and  C13_19 
REMARK    6  A    between atoms: C13_19  and  C14_20 
ROOT
HETATM    1  C4  UNL     1      24.734   0.001  53.002  1.00  0.00     0.072 C 
HETATM    2  N3  UNL     1      23.549   0.234  53.329  1.00  0.00    -0.182 NA
HETATM    3  N4  UNL     1      22.552  -0.306  53.946  1.00  0.00    -0.305 N 
HETATM    4  C5  UNL     1      21.160  -0.836  53.822  1.00  0.00     0.206 C 
HETATM    5  S1  UNL     1      20.117   0.557  53.291  1.00  0.00    -0.182 SA
HETATM    6  C6  UNL     1      20.865   1.344  51.807  1.00  0.00     0.028 A 
HETATM    7  C7  UNL     1      21.250   0.292  51.060  1.00  0.00     0.017 A 
HETATM    8  C8  UNL     1      22.282   1.101  50.634  1.00  0.00     0.009 A 
HETATM    9  C9  UNL     1      21.575   1.879  51.500  1.00  0.00     0.007 A 
HETATM   10  N5  UNL     1      22.763   2.511  51.237  1.00  0.00     0.000 N 
HETATM   11  C10 UNL     1      22.970   3.757  51.660  1.00  0.00     0.209 A 
HETATM   12  C11 UNL     1      23.130   5.044  52.120  1.00  0.00    -0.001 A 
HETATM   13  C12 UNL     1      21.950   4.414  52.386  1.00  0.00     0.065 A 
HETATM   14  C13 UNL     1      21.670   3.131  51.979  1.00  0.00     0.034 A 
HETATM   15  C14 UNL     1      20.549   2.459  52.526  1.00  0.00     0.069 A 
HETATM   16  N6  UNL     1      24.211   2.999  51.564  1.00  0.00     0.177 N 
HETATM   17  N7  UNL     1      25.417   2.246  51.473  1.00  0.00    -0.121 NA
HETATM   18  C15 UNL     1      25.287   1.097  52.164  1.00  0.00     0.309 C 
HETATM   19  H8  UNL     1      22.947  -0.374  54.909  1.00  0.00     0.183 HD
HETATM   20  H16 UNL     1      25.127   3.502  51.420  1.00  0.00     0.342 HD
ENDROOT
BRANCH   1  21
HETATM   21  C3  UNL     1      25.887  -0.944  53.029  1.00  0.00     0.110 C 
BRANCH  21  22
HETATM   22  C2  UNL     1      27.202  -0.306  53.173  1.00  0.00     0.117 C 
HETATM   23  N2  UNL     1      27.556  -0.381  54.428  1.00  0.00    -0.196 NA
BRANCH  23  24
HETATM   24  N1  UNL     1      28.751   0.125  54.922  1.00  0.00    -0.319 N 
HETATM   25  C1  UNL     1      29.278   1.387  54.399  1.00  0.00     0.169 C 
HETATM   26  H4  UNL     1      29.095  -0.561  55.656  1.00  0.00     0.181 HD
ENDBRANCH  23  24
ENDBRANCH  21  22
ENDBRANCH   1  21
TORSDOF 6
ENDMDL
MODEL 4
REMARK VINA RESULT:      -7.2      3.063      5.581
REMARK  6 active torsions:
REMARK  status: ('A' for Active; 'I' for Inactive)
REMARK    1  A    between atoms: N1_2  and  N2_3 
REMARK    2  A    between atoms: C2_4  and  C3_5 
REMARK    3  A    between atoms: C3_5  and  C4_6 
REMARK    4  A    between atoms: C9_14  and  C14_20 
REMARK    5  A    between atoms: C12_18  and  C13_19 
REMARK    6  A    between atoms: C13_19  and  C14_20 
ROOT
HETATM    1  C4  UNL     1      25.906   3.424  49.784  1.00  0.00     0.072 C 
HETATM    2  N3  UNL     1      24.735   2.997  49.894  1.00  0.00    -0.182 NA
HETATM    3  N4  UNL     1      23.573   3.096  49.339  1.00  0.00    -0.305 N 
HETATM    4  C5  UNL     1      22.157   3.543  49.504  1.00  0.00     0.206 C 
HETATM    5  S1  UNL     1      21.457   2.565  50.869  1.00  0.00    -0.182 SA
HETATM    6  C6  UNL     1      22.565   2.685  52.332  1.00  0.00     0.028 A 
HETATM    7  C7  UNL     1      22.899   3.989  52.360  1.00  0.00     0.017 A 
HETATM    8  C8  UNL     1      24.105   3.564  52.877  1.00  0.00     0.009 A 
HETATM    9  C9  UNL     1      23.393   2.418  52.689  1.00  0.00     0.007 A 
HETATM   10  N5  UNL     1      24.694   2.070  52.946  1.00  0.00     0.000 N 
HETATM   11  C10 UNL     1      25.022   0.795  53.150  1.00  0.00     0.209 A 
HETATM   12  C11 UNL     1      25.304  -0.537  53.353  1.00  0.00    -0.001 A 
HETATM   13  C12 UNL     1      24.010  -0.192  53.091  1.00  0.00     0.065 A 
HETATM   14  C13 UNL     1      23.603   1.103  52.873  1.00  0.00     0.034 A 
HETATM   15  C14 UNL     1      22.312   1.344  52.341  1.00  0.00     0.069 A 
HETATM   16  N6  UNL     1      26.124   1.558  52.577  1.00  0.00     0.177 N 
HETATM   17  N7  UNL     1      27.191   2.313  52.011  1.00  0.00    -0.121 NA
HETATM   18  C15 UNL     1      26.763   2.939  50.898  1.00  0.00     0.309 C 
HETATM   19  H8  UNL     1      23.781   2.683  48.403  1.00  0.00     0.183 HD
HETATM   20  H16 UNL     1      27.119   1.246  52.734  1.00  0.00     0.342 HD
ENDROOT
BRANCH   1  21
HETATM   21  C3  UNL     1      26.871   4.281  49.037  1.00  0.00     0.110 C 
BRANCH  21  22
HETATM   22  C2  UNL     1      26.536   5.711  49.017  1.00  0.00     0.117 C 
HETATM   23  N2  UNL     1      27.596   6.372  48.635  1.00  0.00    -0.196 NA
BRANCH  23  24
HETATM   24  N1  UNL     1      27.635   7.754  48.505  1.00  0.00    -0.319 N 
HETATM   25  C1  UNL     1      27.091   8.600  49.568  1.00  0.00     0.169 C 
HETATM   26  H4  UNL     1      28.094   7.961  47.570  1.00  0.00     0.181 HD
ENDBRANCH  23  24
ENDBRANCH  21  22
ENDBRANCH   1  21
TORSDOF 6
ENDMDL
MODEL 5
REMARK VINA RESULT:      -7.2      2.557      4.154
REMARK  6 active torsions:
REMARK  status: ('A' for Active; 'I' for Inactive)
REMARK    1  A    between atoms: N1_2  and  N2_3 
REMARK    2  A    between atoms: C2_4  and  C3_5 
REMARK    3  A    between atoms: C3_5  and  C4_6 
REMARK    4  A    between atoms: C9_14  and  C14_20 
REMARK    5  A    between atoms: C12_18  and  C13_19 
REMARK    6  A    between atoms: C13_19  and  C14_20 
ROOT
HETATM    1  C4  UNL     1      24.929   2.577  52.519  1.00  0.00     0.072 C 
HETATM    2  N3  UNL     1      24.283   3.605  52.216  1.00  0.00    -0.182 NA
HETATM    3  N4  UNL     1      23.253   4.291  52.586  1.00  0.00    -0.305 N 
HETATM    4  C5  UNL     1      21.886   4.768  52.215  1.00  0.00     0.206 C 
HETATM    5  S1  UNL     1      22.080   5.801  50.730  1.00  0.00    -0.182 SA
HETATM    6  C6  UNL     1      23.031   4.869  49.462  1.00  0.00     0.028 A 
HETATM    7  C7  UNL     1      22.499   3.633  49.523  1.00  0.00     0.017 A 
HETATM    8  C8  UNL     1      23.760   3.184  49.189  1.00  0.00     0.009 A 
HETATM    9  C9  UNL     1      23.881   4.540  49.231  1.00  0.00     0.007 A 
HETATM   10  N5  UNL     1      25.142   4.004  49.170  1.00  0.00     0.000 N 
HETATM   11  C10 UNL     1      26.200   4.792  48.984  1.00  0.00     0.209 A 
HETATM   12  C11 UNL     1      27.257   5.652  48.789  1.00  0.00    -0.001 A 
HETATM   13  C12 UNL     1      26.003   6.187  48.855  1.00  0.00     0.065 A 
HETATM   14  C13 UNL     1      24.869   5.433  49.044  1.00  0.00     0.034 A 
HETATM   15  C14 UNL     1      23.653   6.080  49.375  1.00  0.00     0.069 A 
HETATM   16  N6  UNL     1      26.537   3.594  49.743  1.00  0.00     0.177 N 
HETATM   17  N7  UNL     1      26.852   2.423  50.490  1.00  0.00    -0.121 NA
HETATM   18  C15 UNL     1      26.016   2.315  51.540  1.00  0.00     0.309 C 
HETATM   19  H8  UNL     1      23.569   4.602  53.530  1.00  0.00     0.183 HD
HETATM   20  H16 UNL     1      27.525   3.225  49.734  1.00  0.00     0.342 HD
ENDROOT
BRANCH   1  21
HETATM   21  C3  UNL     1      25.083   1.408  53.432  1.00  0.00     0.110 C 
BRANCH  21  22
HETATM   22  C2  UNL     1      26.444   0.861  53.507  1.00  0.00     0.117 C 
HETATM   23  N2  UNL     1      26.964   1.218  54.651  1.00  0.00    -0.196 NA
BRANCH  23  24
HETATM   24  N1  UNL     1      28.247   0.871  55.054  1.00  0.00    -0.319 N 
HETATM   25  C1  UNL     1      28.967  -0.193  54.352  1.00  0.00     0.169 C 
HETATM   26  H4  UNL     1      28.491   1.500  55.874  1.00  0.00     0.181 HD
ENDBRANCH  23  24
ENDBRANCH  21  22
ENDBRANCH   1  21
TORSDOF 6
ENDMDL
MODEL 6
REMARK VINA RESULT:      -6.9      1.757      2.193
REMARK  6 active torsions:
REMARK  status: ('A' for Active; 'I' for Inactive)
REMARK    1  A    between atoms: N1_2  and  N2_3 
REMARK    2  A    between atoms: C2_4  and  C3_5 
REMARK    3  A    between atoms: C3_5  and  C4_6 
REMARK    4  A    between atoms: C9_14  and  C14_20 
REMARK    5  A    between atoms: C12_18  and  C13_19 
REMARK    6  A    between atoms: C13_19  and  C14_20 
ROOT
HETATM    1  C4  UNL     1      26.080   2.381  52.423  1.00  0.00     0.072 C 
HETATM    2  N3  UNL     1      25.744   2.945  51.357  1.00  0.00    -0.182 NA
HETATM    3  N4  UNL     1      26.191   3.778  50.477  1.00  0.00    -0.305 N 
HETATM    4  C5  UNL     1      26.020   5.123  49.849  1.00  0.00     0.206 C 
HETATM    5  S1  UNL     1      24.377   5.129  49.068  1.00  0.00    -0.182 SA
HETATM    6  C6  UNL     1      23.118   4.597  50.298  1.00  0.00     0.028 A 
HETATM    7  C7  UNL     1      23.483   5.251  51.416  1.00  0.00     0.017 A 
HETATM    8  C8  UNL     1      22.988   4.158  52.096  1.00  0.00     0.009 A 
HETATM    9  C9  UNL     1      22.783   3.864  50.782  1.00  0.00     0.007 A 
HETATM   10  N5  UNL     1      22.565   2.723  51.510  1.00  0.00     0.000 N 
HETATM   11  C10 UNL     1      22.050   1.641  50.928  1.00  0.00     0.209 A 
HETATM   12  C11 UNL     1      21.515   0.553  50.276  1.00  0.00    -0.001 A 
HETATM   13  C12 UNL     1      21.736   1.687  49.550  1.00  0.00     0.065 A 
HETATM   14  C13 UNL     1      22.263   2.838  50.087  1.00  0.00     0.034 A 
HETATM   15  C14 UNL     1      22.714   3.864  49.221  1.00  0.00     0.069 A 
HETATM   16  N6  UNL     1      22.915   1.298  52.050  1.00  0.00     0.177 N 
HETATM   17  N7  UNL     1      23.768   0.976  53.145  1.00  0.00    -0.121 NA
HETATM   18  C15 UNL     1      24.964   1.573  52.979  1.00  0.00     0.309 C 
HETATM   19  H8  UNL     1      26.991   3.229  50.094  1.00  0.00     0.183 HD
HETATM   20  H16 UNL     1      22.775   0.389  52.566  1.00  0.00     0.342 HD
ENDROOT
BRANCH   1  21
HETATM   21  C3  UNL     1      27.124   2.179  53.468  1.00  0.00     0.110 C 
BRANCH  21  22
HETATM   22  C2  UNL     1      27.879   0.924  53.349  1.00  0.00     0.117 C 
HETATM   23  N2  UNL     1      29.141   1.187  53.557  1.00  0.00    -0.196 NA
BRANCH  23  24
HETATM   24  N1  UNL     1      30.143   0.226  53.520  1.00  0.00    -0.319 N 
HETATM   25  C1  UNL     1      29.791  -1.194  53.563  1.00  0.00     0.169 C 
HETATM   26  H4  UNL     1      31.066   0.748  53.464  1.00  0.00     0.181 HD
ENDBRANCH  23  24
ENDBRANCH  21  22
ENDBRANCH   1  21
TORSDOF 6
ENDMDL
MODEL 7
REMARK VINA RESULT:      -6.8      6.810      9.347
REMARK  6 active torsions:
REMARK  status: ('A' for Active; 'I' for Inactive)
REMARK    1  A    between atoms: N1_2  and  N2_3 
REMARK    2  A    between atoms: C2_4  and  C3_5 
REMARK    3  A    between atoms: C3_5  and  C4_6 
REMARK    4  A    between atoms: C9_14  and  C14_20 
REMARK    5  A    between atoms: C12_18  and  C13_19 
REMARK    6  A    between atoms: C13_19  and  C14_20 
ROOT
HETATM    1  C4  UNL     1      26.648   7.010  48.871  1.00  0.00     0.072 C 
HETATM    2  N3  UNL     1      27.343   8.033  49.061  1.00  0.00    -0.182 NA
HETATM    3  N4  UNL     1      27.229   9.307  49.247  1.00  0.00    -0.305 N 
HETATM    4  C5  UNL     1      27.513  10.667  48.699  1.00  0.00     0.206 C 
HETATM    5  S1  UNL     1      29.322  10.815  48.582  1.00  0.00    -0.182 SA
HETATM    6  C6  UNL     1      29.992   9.369  47.664  1.00  0.00     0.028 A 
HETATM    7  C7  UNL     1      29.126   9.223  46.644  1.00  0.00     0.017 A 
HETATM    8  C8  UNL     1      29.395   7.874  46.741  1.00  0.00     0.009 A 
HETATM    9  C9  UNL     1      30.163   8.446  47.710  1.00  0.00     0.007 A 
HETATM   10  N5  UNL     1      30.166   7.089  47.913  1.00  0.00     0.000 N 
HETATM   11  C10 UNL     1      30.984   6.545  48.813  1.00  0.00     0.209 A 
HETATM   12  C11 UNL     1      31.850   6.037  49.754  1.00  0.00    -0.001 A 
HETATM   13  C12 UNL     1      31.844   7.387  49.556  1.00  0.00     0.065 A 
HETATM   14  C13 UNL     1      31.027   8.013  48.644  1.00  0.00     0.034 A 
HETATM   15  C14 UNL     1      30.883   9.422  48.695  1.00  0.00     0.069 A 
HETATM   16  N6  UNL     1      29.766   5.764  48.638  1.00  0.00     0.177 N 
HETATM   17  N7  UNL     1      28.568   5.013  48.464  1.00  0.00    -0.121 NA
HETATM   18  C15 UNL     1      27.500   5.818  48.626  1.00  0.00     0.309 C 
HETATM   19  H8  UNL     1      26.724   9.314  50.160  1.00  0.00     0.183 HD
HETATM   20  H16 UNL     1      29.766   4.731  48.854  1.00  0.00     0.342 HD
ENDROOT
BRANCH   1  21
HETATM   21  C3  UNL     1      25.287   6.421  48.721  1.00  0.00     0.110 C 
BRANCH  21  22
HETATM   22  C2  UNL     1      24.772   5.749  49.922  1.00  0.00     0.117 C 
HETATM   23  N2  UNL     1      24.650   6.643  50.868  1.00  0.00    -0.196 NA
BRANCH  23  24
HETATM   24  N1  UNL     1      24.188   6.352  52.145  1.00  0.00    -0.319 N 
HETATM   25  C1  UNL     1      23.423   5.127  52.380  1.00  0.00     0.169 C 
HETATM   26  H4  UNL     1      24.504   7.148  52.773  1.00  0.00     0.181 HD
ENDBRANCH  23  24
ENDBRANCH  21  22
ENDBRANCH   1  21
TORSDOF 6
ENDMDL
MODEL 8
REMARK VINA RESULT:      -6.8      2.140      3.622
REMARK  6 active torsions:
REMARK  status: ('A' for Active; 'I' for Inactive)
REMARK    1  A    between atoms: N1_2  and  N2_3 
REMARK    2  A    between atoms: C2_4  and  C3_5 
REMARK    3  A    between atoms: C3_5  and  C4_6 
REMARK    4  A    between atoms: C9_14  and  C14_20 
REMARK    5  A    between atoms: C12_18  and  C13_19 
REMARK    6  A    between atoms: C13_19  and  C14_20 
ROOT
HETATM    1  C4  UNL     1      24.019   0.720  53.038  1.00  0.00     0.072 C 
HETATM    2  N3  UNL     1      22.820   1.075  53.017  1.00  0.00    -0.182 NA
HETATM    3  N4  UNL     1      21.646   0.675  53.379  1.00  0.00    -0.305 N 
HETATM    4  C5  UNL     1      20.289   0.248  52.922  1.00  0.00     0.206 C 
HETATM    5  S1  UNL     1      19.568   1.664  52.036  1.00  0.00    -0.182 SA
HETATM    6  C6  UNL     1      20.753   2.249  50.758  1.00  0.00     0.028 A 
HETATM    7  C7  UNL     1      21.212   1.105  50.215  1.00  0.00     0.017 A 
HETATM    8  C8  UNL     1      22.396   1.787  50.029  1.00  0.00     0.009 A 
HETATM    9  C9  UNL     1      21.569   2.695  50.617  1.00  0.00     0.007 A 
HETATM   10  N5  UNL     1      22.842   3.204  50.641  1.00  0.00     0.000 N 
HETATM   11  C10 UNL     1      23.056   4.464  51.018  1.00  0.00     0.209 A 
HETATM   12  C11 UNL     1      23.220   5.771  51.416  1.00  0.00    -0.001 A 
HETATM   13  C12 UNL     1      21.953   5.264  51.397  1.00  0.00     0.065 A 
HETATM   14  C13 UNL     1      21.661   3.975  51.018  1.00  0.00     0.034 A 
HETATM   15  C14 UNL     1      20.374   3.447  51.288  1.00  0.00     0.069 A 
HETATM   16  N6  UNL     1      24.196   3.604  51.311  1.00  0.00     0.177 N 
HETATM   17  N7  UNL     1      25.301   2.752  51.599  1.00  0.00    -0.121 NA
HETATM   18  C15 UNL     1      24.880   1.686  52.307  1.00  0.00     0.309 C 
HETATM   19  H8  UNL     1      21.767   0.665  54.416  1.00  0.00     0.183 HD
HETATM   20  H16 UNL     1      25.164   4.017  51.385  1.00  0.00     0.342 HD
ENDROOT
BRANCH   1  21
HETATM   21  C3  UNL     1      25.023  -0.307  53.438  1.00  0.00     0.110 C 
BRANCH  21  22
HETATM   22  C2  UNL     1      26.408   0.179  53.505  1.00  0.00     0.117 C 
HETATM   23  N2  UNL     1      27.049  -0.540  54.387  1.00  0.00    -0.196 NA
BRANCH  23  24
HETATM   24  N1  UNL     1      28.388  -0.351  54.706  1.00  0.00    -0.319 N 
HETATM   25  C1  UNL     1      28.998   0.968  54.530  1.00  0.00     0.169 C 
HETATM   26  H4  UNL     1      28.756  -1.286  55.049  1.00  0.00     0.181 HD
ENDBRANCH  23  24
ENDBRANCH  21  22
ENDBRANCH   1  21
TORSDOF 6
ENDMDL
MODEL 9
REMARK VINA RESULT:      -6.7      3.095      6.058
REMARK  6 active torsions:
REMARK  status: ('A' for Active; 'I' for Inactive)
REMARK    1  A    between atoms: N1_2  and  N2_3 
REMARK    2  A    between atoms: C2_4  and  C3_5 
REMARK    3  A    between atoms: C3_5  and  C4_6 
REMARK    4  A    between atoms: C9_14  and  C14_20 
REMARK    5  A    between atoms: C12_18  and  C13_19 
REMARK    6  A    between atoms: C13_19  and  C14_20 
ROOT
HETATM    1  C4  UNL     1      19.434   3.144  51.778  1.00  0.00     0.072 C 
HETATM    2  N3  UNL     1      20.613   3.254  52.184  1.00  0.00    -0.182 NA
HETATM    3  N4  UNL     1      21.548   4.133  52.333  1.00  0.00    -0.305 N 
HETATM    4  C5  UNL     1      22.912   4.572  51.910  1.00  0.00     0.206 C 
HETATM    5  S1  UNL     1      24.055   3.232  52.370  1.00  0.00    -0.182 SA
HETATM    6  C6  UNL     1      23.426   1.640  51.700  1.00  0.00     0.028 A 
HETATM    7  C7  UNL     1      23.021   1.966  50.457  1.00  0.00     0.017 A 
HETATM    8  C8  UNL     1      22.057   0.994  50.626  1.00  0.00     0.009 A 
HETATM    9  C9  UNL     1      22.763   0.980  51.791  1.00  0.00     0.007 A 
HETATM   10  N5  UNL     1      21.626   0.236  51.975  1.00  0.00     0.000 N 
HETATM   11  C10 UNL     1      21.467  -0.487  53.083  1.00  0.00     0.209 A 
HETATM   12  C11 UNL     1      21.356  -1.215  54.246  1.00  0.00    -0.001 A 
HETATM   13  C12 UNL     1      22.485  -0.471  54.065  1.00  0.00     0.065 A 
HETATM   14  C13 UNL     1      22.714   0.296  52.947  1.00  0.00     0.034 A 
HETATM   15  C14 UNL     1      23.767   1.243  52.959  1.00  0.00     0.069 A 
HETATM   16  N6  UNL     1      20.192  -0.048  52.529  1.00  0.00     0.177 N 
HETATM   17  N7  UNL     1      18.953   0.393  51.982  1.00  0.00    -0.121 NA
HETATM   18  C15 UNL     1      18.985   1.728  51.805  1.00  0.00     0.309 C 
HETATM   19  H8  UNL     1      21.102   4.756  53.041  1.00  0.00     0.183 HD
HETATM   20  H16 UNL     1      19.314  -0.597  52.727  1.00  0.00     0.342 HD
ENDROOT
BRANCH   1  21
HETATM   21  C3  UNL     1      18.232   3.812  51.204  1.00  0.00     0.110 C 
BRANCH  21  22
HETATM   22  C2  UNL     1      18.460   4.496  49.924  1.00  0.00     0.117 C 
HETATM   23  N2  UNL     1      19.446   5.338  50.083  1.00  0.00    -0.196 NA
BRANCH  23  24
HETATM   24  N1  UNL     1      19.929   6.156  49.069  1.00  0.00    -0.319 N 
HETATM   25  C1  UNL     1      21.367   6.210  48.801  1.00  0.00     0.169 C 
HETATM   26  H4  UNL     1      19.087   6.637  48.637  1.00  0.00     0.181 HD
ENDBRANCH  23  24
ENDBRANCH  21  22
ENDBRANCH   1  21
TORSDOF 6
ENDMDL
