MODEL 1
REMARK VINA RESULT:      -7.5      0.000      0.000
REMARK  5 active torsions:
REMARK  status: ('A' for Active; 'I' for Inactive)
REMARK    1  A    between atoms: C3_3  and  C4_4 
REMARK    2  A    between atoms: C4_4  and  N1_5 
REMARK    3  A    between atoms: N1_5  and  N2_6 
REMARK    4  A    between atoms: C12_16  and  N5_17 
REMARK    5  A    between atoms: C14_20  and  O2_21 
ROOT
HETATM    1  C1  UNL     1      27.213   6.319  48.141  1.00  0.00     0.112 C 
HETATM    2  C2  UNL     1      26.923   5.122  48.942  1.00  0.00    -0.109 C 
HETATM    3  C3  UNL     1      26.685   4.129  49.584  1.00  0.00    -0.086 C 
ENDROOT
BRANCH   3   4
HETATM    4  C4  UNL     1      26.402   2.906  50.367  1.00  0.00     0.233 C 
BRANCH   4   5
HETATM    5  N1  UNL     1      27.145   2.866  51.580  1.00  0.00    -0.317 N 
HETATM    6  H6  UNL     1      27.301   3.809  52.004  1.00  0.00     0.181 HD
BRANCH   5   7
HETATM    7  N2  UNL     1      26.821   1.893  52.491  1.00  0.00    -0.248 N 
HETATM    8  C5  UNL     1      25.432   1.528  52.488  1.00  0.00     0.133 A 
HETATM    9  C6  UNL     1      24.932   0.608  53.295  1.00  0.00     0.024 A 
HETATM   10  C7  UNL     1      25.785  -0.024  54.174  1.00  0.00     0.073 A 
HETATM   11  C11 UNL     1      23.606   0.232  53.317  1.00  0.00     0.020 A 
HETATM   12  N3  UNL     1      25.289  -0.958  54.996  1.00  0.00    -0.259 NA
HETATM   13  C13 UNL     1      27.210   0.277  54.255  1.00  0.00     0.090 A 
HETATM   14  C8  UNL     1      23.995  -1.320  55.013  1.00  0.00     0.141 A 
HETATM   15  C9  UNL     1      23.092  -0.728  54.159  1.00  0.00     0.074 A 
HETATM   16  C10 UNL     1      21.695  -1.084  54.141  1.00  0.00     0.102 C 
HETATM   17  N4  UNL     1      20.560  -1.368  54.107  1.00  0.00    -0.191 NA
HETATM   18  C14 UNL     1      27.644   1.207  53.420  1.00  0.00     0.165 A 
HETATM   19  C12 UNL     1      22.759   0.799  52.511  1.00  0.00     0.163 C 
BRANCH  18  20
HETATM   20  O2  UNL     1      28.972   1.533  53.449  1.00  0.00    -0.339 OA
HETATM   21  C15 UNL     1      29.531   1.907  54.715  1.00  0.00     0.211 C 
ENDBRANCH  18  20
BRANCH  19  22
HETATM   22  N5  UNL     1      22.397   1.700  51.497  1.00  0.00    -0.110 NA
HETATM   23  O1  UNL     1      22.403   1.464  50.274  1.00  0.00    -0.062 OA
ENDBRANCH  19  22
ENDBRANCH   5   7
ENDBRANCH   4   5
ENDBRANCH   3   4
TORSDOF 5
ENDMDL
MODEL 2
REMARK VINA RESULT:      -7.2      1.939      4.481
REMARK  5 active torsions:
REMARK  status: ('A' for Active; 'I' for Inactive)
REMARK    1  A    between atoms: C3_3  and  C4_4 
REMARK    2  A    between atoms: C4_4  and  N1_5 
REMARK    3  A    between atoms: N1_5  and  N2_6 
REMARK    4  A    between atoms: C12_16  and  N5_17 
REMARK    5  A    between atoms: C14_20  and  O2_21 
ROOT
HETATM    1  C1  UNL     1      29.510   7.597  47.829  1.00  0.00     0.112 C 
HETATM    2  C2  UNL     1      28.679   6.445  48.200  1.00  0.00    -0.109 C 
HETATM    3  C3  UNL     1      28.002   5.500  48.523  1.00  0.00    -0.086 C 
ENDROOT
BRANCH   3   4
HETATM    4  C4  UNL     1      27.165   4.348  48.926  1.00  0.00     0.233 C 
BRANCH   4   5
HETATM    5  N1  UNL     1      26.331   4.658  50.036  1.00  0.00    -0.317 N 
HETATM    6  H6  UNL     1      25.967   5.637  50.024  1.00  0.00     0.181 HD
BRANCH   5   7
HETATM    7  N2  UNL     1      25.398   3.723  50.409  1.00  0.00    -0.248 N 
HETATM    8  C5  UNL     1      25.791   2.917  51.531  1.00  0.00     0.133 A 
HETATM    9  C6  UNL     1      25.022   1.966  52.033  1.00  0.00     0.024 A 
HETATM   10  C7  UNL     1      23.793   1.743  51.451  1.00  0.00     0.073 A 
HETATM   11  C11 UNL     1      25.368   1.176  53.108  1.00  0.00     0.020 A 
HETATM   12  N3  UNL     1      23.007   0.783  51.953  1.00  0.00    -0.259 NA
HETATM   13  C13 UNL     1      23.303   2.507  50.309  1.00  0.00     0.090 A 
HETATM   14  C8  UNL     1      23.348   0.015  53.002  1.00  0.00     0.141 A 
HETATM   15  C9  UNL     1      24.562   0.187  53.628  1.00  0.00     0.074 A 
HETATM   16  C10 UNL     1      24.973  -0.611  54.756  1.00  0.00     0.102 C 
HETATM   17  N4  UNL     1      25.317  -1.244  55.678  1.00  0.00    -0.191 NA
HETATM   18  C14 UNL     1      24.122   3.443  49.857  1.00  0.00     0.165 A 
HETATM   19  C12 UNL     1      26.518   1.342  53.691  1.00  0.00     0.163 C 
BRANCH  18  20
HETATM   20  O2  UNL     1      23.718   4.192  48.786  1.00  0.00    -0.339 OA
HETATM   21  C15 UNL     1      22.316   4.211  48.487  1.00  0.00     0.211 C 
ENDBRANCH  18  20
BRANCH  19  22
HETATM   22  N5  UNL     1      27.767   1.960  53.854  1.00  0.00    -0.110 NA
HETATM   23  O1  UNL     1      28.652   2.059  52.983  1.00  0.00    -0.062 OA
ENDBRANCH  19  22
ENDBRANCH   5   7
ENDBRANCH   4   5
ENDBRANCH   3   4
TORSDOF 5
ENDMDL
MODEL 3
REMARK VINA RESULT:      -6.9      2.559      6.992
REMARK  5 active torsions:
REMARK  status: ('A' for Active; 'I' for Inactive)
REMARK    1  A    between atoms: C3_3  and  C4_4 
REMARK    2  A    between atoms: C4_4  and  N1_5 
REMARK    3  A    between atoms: N1_5  and  N2_6 
REMARK    4  A    between atoms: C12_16  and  N5_17 
REMARK    5  A    between atoms: C14_20  and  O2_21 
ROOT
HETATM    1  C1  UNL     1      16.791  -1.621  52.708  1.00  0.00     0.112 C 
HETATM    2  C2  UNL     1      18.156  -1.254  53.108  1.00  0.00    -0.109 C 
HETATM    3  C3  UNL     1      19.279  -0.944  53.419  1.00  0.00    -0.086 C 
ENDROOT
BRANCH   3   4
HETATM    4  C4  UNL     1      20.654  -0.553  53.801  1.00  0.00     0.233 C 
BRANCH   4   5
HETATM    5  N1  UNL     1      20.874   0.843  53.641  1.00  0.00    -0.317 N 
HETATM    6  H6  UNL     1      20.716   1.393  54.516  1.00  0.00     0.181 HD
BRANCH   5   7
HETATM    7  N2  UNL     1      21.984   1.234  52.934  1.00  0.00    -0.248 N 
HETATM    8  C5  UNL     1      23.207   0.628  53.382  1.00  0.00     0.133 A 
HETATM    9  C6  UNL     1      24.377   0.881  52.822  1.00  0.00     0.024 A 
HETATM   10  C7  UNL     1      24.419   1.764  51.764  1.00  0.00     0.073 A 
HETATM   11  C11 UNL     1      25.568   0.317  53.225  1.00  0.00     0.020 A 
HETATM   12  N3  UNL     1      25.600   2.026  51.189  1.00  0.00    -0.259 NA
HETATM   13  C13 UNL     1      23.234   2.431  51.237  1.00  0.00     0.090 A 
HETATM   14  C8  UNL     1      26.759   1.474  51.587  1.00  0.00     0.141 A 
HETATM   15  C9  UNL     1      26.785   0.584  52.637  1.00  0.00     0.074 A 
HETATM   16  C10 UNL     1      28.002  -0.035  53.098  1.00  0.00     0.102 C 
HETATM   17  N4  UNL     1      28.980  -0.553  53.478  1.00  0.00    -0.191 NA
HETATM   18  C14 UNL     1      22.096   2.133  51.843  1.00  0.00     0.165 A 
HETATM   19  C12 UNL     1      25.586  -0.519  54.220  1.00  0.00     0.163 C 
BRANCH  18  20
HETATM   20  O2  UNL     1      20.949   2.727  51.393  1.00  0.00    -0.339 OA
HETATM   21  C15 UNL     1      20.861   4.154  51.501  1.00  0.00     0.211 C 
ENDBRANCH  18  20
BRANCH  19  22
HETATM   22  N5  UNL     1      24.985  -1.264  55.247  1.00  0.00    -0.110 NA
HETATM   23  O1  UNL     1      25.292  -1.224  56.454  1.00  0.00    -0.062 OA
ENDBRANCH  19  22
ENDBRANCH   5   7
ENDBRANCH   4   5
ENDBRANCH   3   4
TORSDOF 5
ENDMDL
MODEL 4
REMARK VINA RESULT:      -6.8      2.735      5.332
REMARK  5 active torsions:
REMARK  status: ('A' for Active; 'I' for Inactive)
REMARK    1  A    between atoms: C3_3  and  C4_4 
REMARK    2  A    between atoms: C4_4  and  N1_5 
REMARK    3  A    between atoms: N1_5  and  N2_6 
REMARK    4  A    between atoms: C12_16  and  N5_17 
REMARK    5  A    between atoms: C14_20  and  O2_21 
ROOT
HETATM    1  C1  UNL     1      21.927   4.157  45.674  1.00  0.00     0.112 C 
HETATM    2  C2  UNL     1      21.945   3.226  46.810  1.00  0.00    -0.109 C 
HETATM    3  C3  UNL     1      21.951   2.448  47.731  1.00  0.00    -0.086 C 
ENDROOT
BRANCH   3   4
HETATM    4  C4  UNL     1      21.965   1.486  48.856  1.00  0.00     0.233 C 
BRANCH   4   5
HETATM    5  N1  UNL     1      22.139   2.135  50.110  1.00  0.00    -0.317 N 
HETATM    6  H6  UNL     1      21.351   2.775  50.360  1.00  0.00     0.181 HD
BRANCH   5   7
HETATM    7  N2  UNL     1      22.593   1.377  51.159  1.00  0.00    -0.248 N 
HETATM    8  C5  UNL     1      23.980   1.582  51.472  1.00  0.00     0.133 A 
HETATM    9  C6  UNL     1      24.594   0.941  52.452  1.00  0.00     0.024 A 
HETATM   10  C7  UNL     1      23.868   0.040  53.201  1.00  0.00     0.073 A 
HETATM   11  C11 UNL     1      25.921   1.114  52.780  1.00  0.00     0.020 A 
HETATM   12  N3  UNL     1      24.480  -0.613  54.197  1.00  0.00    -0.259 NA
HETATM   13  C13 UNL     1      22.456  -0.238  52.962  1.00  0.00     0.090 A 
HETATM   14  C8  UNL     1      25.775  -0.441  54.512  1.00  0.00     0.141 A 
HETATM   15  C9  UNL     1      26.555   0.444  53.803  1.00  0.00     0.074 A 
HETATM   16  C10 UNL     1      27.948   0.664  54.105  1.00  0.00     0.102 C 
HETATM   17  N4  UNL     1      29.076   0.860  54.343  1.00  0.00    -0.191 NA
HETATM   18  C14 UNL     1      21.904   0.437  51.966  1.00  0.00     0.165 A 
HETATM   19  C12 UNL     1      26.653   1.949  52.104  1.00  0.00     0.163 C 
BRANCH  18  20
HETATM   20  O2  UNL     1      20.581   0.219  51.693  1.00  0.00    -0.339 OA
HETATM   21  C15 UNL     1      19.724  -0.101  52.798  1.00  0.00     0.211 C 
ENDBRANCH  18  20
BRANCH  19  22
HETATM   22  N5  UNL     1      26.869   2.895  51.090  1.00  0.00    -0.110 NA
HETATM   23  O1  UNL     1      26.917   2.659  49.868  1.00  0.00    -0.062 OA
ENDBRANCH  19  22
ENDBRANCH   5   7
ENDBRANCH   4   5
ENDBRANCH   3   4
TORSDOF 5
ENDMDL
MODEL 5
REMARK VINA RESULT:      -6.8      1.566      1.702
REMARK  5 active torsions:
REMARK  status: ('A' for Active; 'I' for Inactive)
REMARK    1  A    between atoms: C3_3  and  C4_4 
REMARK    2  A    between atoms: C4_4  and  N1_5 
REMARK    3  A    between atoms: N1_5  and  N2_6 
REMARK    4  A    between atoms: C12_16  and  N5_17 
REMARK    5  A    between atoms: C14_20  and  O2_21 
ROOT
HETATM    1  C1  UNL     1      24.322   7.044  48.181  1.00  0.00     0.112 C 
HETATM    2  C2  UNL     1      24.986   5.848  48.716  1.00  0.00    -0.109 C 
HETATM    3  C3  UNL     1      25.523   4.855  49.141  1.00  0.00    -0.086 C 
ENDROOT
BRANCH   3   4
HETATM    4  C4  UNL     1      26.188   3.636  49.654  1.00  0.00     0.233 C 
BRANCH   4   5
HETATM    5  N1  UNL     1      26.380   3.686  51.062  1.00  0.00    -0.317 N 
HETATM    6  H6  UNL     1      26.095   4.596  51.490  1.00  0.00     0.181 HD
BRANCH   5   7
HETATM    7  N2  UNL     1      26.003   2.587  51.793  1.00  0.00    -0.248 N 
HETATM    8  C5  UNL     1      24.586   2.353  51.810  1.00  0.00     0.133 A 
HETATM    9  C6  UNL     1      24.036   1.342  52.461  1.00  0.00     0.024 A 
HETATM   10  C7  UNL     1      24.862   0.479  53.148  1.00  0.00     0.073 A 
HETATM   11  C11 UNL     1      22.683   1.088  52.497  1.00  0.00     0.020 A 
HETATM   12  N3  UNL     1      24.315  -0.548  53.809  1.00  0.00    -0.259 NA
HETATM   13  C13 UNL     1      26.312   0.632  53.192  1.00  0.00     0.090 A 
HETATM   14  C8  UNL     1      22.994  -0.792  53.842  1.00  0.00     0.141 A 
HETATM   15  C9  UNL     1      22.115   0.032  53.175  1.00  0.00     0.074 A 
HETATM   16  C10 UNL     1      20.690  -0.189  53.180  1.00  0.00     0.102 C 
HETATM   17  N4  UNL     1      19.533  -0.360  53.166  1.00  0.00    -0.191 NA
HETATM   18  C14 UNL     1      26.797   1.664  52.520  1.00  0.00     0.165 A 
HETATM   19  C12 UNL     1      21.858   1.872  51.868  1.00  0.00     0.163 C 
BRANCH  18  20
HETATM   20  O2  UNL     1      28.151   1.860  52.524  1.00  0.00    -0.339 OA
HETATM   21  C15 UNL     1      28.905   1.221  53.563  1.00  0.00     0.211 C 
ENDBRANCH  18  20
BRANCH  19  22
HETATM   22  N5  UNL     1      21.541   2.981  51.068  1.00  0.00    -0.110 NA
HETATM   23  O1  UNL     1      21.095   4.071  51.475  1.00  0.00    -0.062 OA
ENDBRANCH  19  22
ENDBRANCH   5   7
ENDBRANCH   4   5
ENDBRANCH   3   4
TORSDOF 5
ENDMDL
MODEL 6
REMARK VINA RESULT:      -6.5      2.891      5.750
REMARK  5 active torsions:
REMARK  status: ('A' for Active; 'I' for Inactive)
REMARK    1  A    between atoms: C3_3  and  C4_4 
REMARK    2  A    between atoms: C4_4  and  N1_5 
REMARK    3  A    between atoms: N1_5  and  N2_6 
REMARK    4  A    between atoms: C12_16  and  N5_17 
REMARK    5  A    between atoms: C14_20  and  O2_21 
ROOT
HETATM    1  C1  UNL     1      21.823   3.414  46.891  1.00  0.00     0.112 C 
HETATM    2  C2  UNL     1      21.362   2.491  47.937  1.00  0.00    -0.109 C 
HETATM    3  C3  UNL     1      20.969   1.730  48.785  1.00  0.00    -0.086 C 
ENDROOT
BRANCH   3   4
HETATM    4  C4  UNL     1      20.486   0.787  49.819  1.00  0.00     0.233 C 
BRANCH   4   5
HETATM    5  N1  UNL     1      20.462   1.380  51.112  1.00  0.00    -0.317 N 
HETATM    6  H6  UNL     1      19.569   1.879  51.325  1.00  0.00     0.181 HD
BRANCH   5   7
HETATM    7  N2  UNL     1      20.946   0.637  52.159  1.00  0.00    -0.248 N 
HETATM    8  C5  UNL     1      22.366   0.749  52.349  1.00  0.00     0.133 A 
HETATM    9  C6  UNL     1      23.012   0.108  53.309  1.00  0.00     0.024 A 
HETATM   10  C7  UNL     1      22.287  -0.699  54.159  1.00  0.00     0.073 A 
HETATM   11  C11 UNL     1      24.370   0.195  53.520  1.00  0.00     0.020 A 
HETATM   12  N3  UNL     1      22.932  -1.352  55.134  1.00  0.00    -0.259 NA
HETATM   13  C13 UNL     1      20.844  -0.879  54.048  1.00  0.00     0.090 A 
HETATM   14  C8  UNL     1      24.258  -1.265  55.336  1.00  0.00     0.141 A 
HETATM   15  C9  UNL     1      25.038  -0.475  54.522  1.00  0.00     0.074 A 
HETATM   16  C10 UNL     1      26.463  -0.349  54.700  1.00  0.00     0.102 C 
HETATM   17  N4  UNL     1      27.619  -0.229  54.836  1.00  0.00    -0.191 NA
HETATM   18  C14 UNL     1      20.261  -0.210  53.066  1.00  0.00     0.165 A 
HETATM   19  C12 UNL     1      25.102   0.939  52.745  1.00  0.00     0.163 C 
BRANCH  18  20
HETATM   20  O2  UNL     1      18.908  -0.338  52.911  1.00  0.00    -0.339 OA
HETATM   21  C15 UNL     1      18.291  -1.512  53.457  1.00  0.00     0.211 C 
ENDBRANCH  18  20
BRANCH  19  22
HETATM   22  N5  UNL     1      25.301   1.819  51.671  1.00  0.00    -0.110 NA
HETATM   23  O1  UNL     1      26.398   2.269  51.288  1.00  0.00    -0.062 OA
ENDBRANCH  19  22
ENDBRANCH   5   7
ENDBRANCH   4   5
ENDBRANCH   3   4
TORSDOF 5
ENDMDL
MODEL 7
REMARK VINA RESULT:      -6.5      1.951      2.693
REMARK  5 active torsions:
REMARK  status: ('A' for Active; 'I' for Inactive)
REMARK    1  A    between atoms: C3_3  and  C4_4 
REMARK    2  A    between atoms: C4_4  and  N1_5 
REMARK    3  A    between atoms: N1_5  and  N2_6 
REMARK    4  A    between atoms: C12_16  and  N5_17 
REMARK    5  A    between atoms: C14_20  and  O2_21 
ROOT
HETATM    1  C1  UNL     1      26.327   6.120  48.577  1.00  0.00     0.112 C 
HETATM    2  C2  UNL     1      25.652   5.205  49.507  1.00  0.00    -0.109 C 
HETATM    3  C3  UNL     1      25.101   4.466  50.284  1.00  0.00    -0.086 C 
ENDROOT
BRANCH   3   4
HETATM    4  C4  UNL     1      24.418   3.567  51.241  1.00  0.00     0.233 C 
BRANCH   4   5
HETATM    5  N1  UNL     1      24.840   2.216  51.097  1.00  0.00    -0.317 N 
HETATM    6  H6  UNL     1      25.865   2.116  50.917  1.00  0.00     0.181 HD
BRANCH   5   7
HETATM    7  N2  UNL     1      24.342   1.298  51.986  1.00  0.00    -0.248 N 
HETATM    8  C5  UNL     1      22.918   1.125  51.913  1.00  0.00     0.133 A 
HETATM    9  C6  UNL     1      22.258   0.282  52.690  1.00  0.00     0.024 A 
HETATM   10  C7  UNL     1      22.972  -0.459  53.606  1.00  0.00     0.073 A 
HETATM   11  C11 UNL     1      20.894   0.091  52.645  1.00  0.00     0.020 A 
HETATM   12  N3  UNL     1      22.314  -1.315  54.397  1.00  0.00    -0.259 NA
HETATM   13  C13 UNL     1      24.420  -0.355  53.758  1.00  0.00     0.090 A 
HETATM   14  C8  UNL     1      20.984  -1.498  54.350  1.00  0.00     0.141 A 
HETATM   15  C9  UNL     1      20.213  -0.789  53.456  1.00  0.00     0.074 A 
HETATM   16  C10 UNL     1      18.783  -0.951  53.367  1.00  0.00     0.102 C 
HETATM   17  N4  UNL     1      17.623  -1.078  53.276  1.00  0.00    -0.191 NA
HETATM   18  C14 UNL     1      25.017   0.507  52.950  1.00  0.00     0.165 A 
HETATM   19  C12 UNL     1      20.172   0.766  51.801  1.00  0.00     0.163 C 
BRANCH  18  20
HETATM   20  O2  UNL     1      26.374   0.648  53.046  1.00  0.00    -0.339 OA
HETATM   21  C15 UNL     1      27.159  -0.550  53.095  1.00  0.00     0.211 C 
ENDBRANCH  18  20
BRANCH  19  22
HETATM   22  N5  UNL     1      19.987   1.707  50.776  1.00  0.00    -0.110 NA
HETATM   23  O1  UNL     1      19.801   1.449  49.572  1.00  0.00    -0.062 OA
ENDBRANCH  19  22
ENDBRANCH   5   7
ENDBRANCH   4   5
ENDBRANCH   3   4
TORSDOF 5
ENDMDL
MODEL 8
REMARK VINA RESULT:      -6.3      1.713      2.228
REMARK  5 active torsions:
REMARK  status: ('A' for Active; 'I' for Inactive)
REMARK    1  A    between atoms: C3_3  and  C4_4 
REMARK    2  A    between atoms: C4_4  and  N1_5 
REMARK    3  A    between atoms: N1_5  and  N2_6 
REMARK    4  A    between atoms: C12_16  and  N5_17 
REMARK    5  A    between atoms: C14_20  and  O2_21 
ROOT
HETATM    1  C1  UNL     1      21.252   4.415  51.501  1.00  0.00     0.112 C 
HETATM    2  C2  UNL     1      22.696   4.377  51.235  1.00  0.00    -0.109 C 
HETATM    3  C3  UNL     1      23.881   4.326  51.018  1.00  0.00    -0.086 C 
ENDROOT
BRANCH   3   4
HETATM    4  C4  UNL     1      25.334   4.258  50.742  1.00  0.00     0.233 C 
BRANCH   4   5
HETATM    5  N1  UNL     1      25.779   2.920  50.556  1.00  0.00    -0.317 N 
HETATM    6  H6  UNL     1      26.653   2.846  49.988  1.00  0.00     0.181 HD
BRANCH   5   7
HETATM    7  N2  UNL     1      25.753   2.086  51.646  1.00  0.00    -0.248 N 
HETATM    8  C5  UNL     1      24.484   1.449  51.866  1.00  0.00     0.133 A 
HETATM    9  C6  UNL     1      24.268   0.611  52.865  1.00  0.00     0.024 A 
HETATM   10  C7  UNL     1      25.307   0.341  53.729  1.00  0.00     0.073 A 
HETATM   11  C11 UNL     1      23.065  -0.017  53.104  1.00  0.00     0.020 A 
HETATM   12  N3  UNL     1      25.099  -0.507  54.744  1.00  0.00    -0.259 NA
HETATM   13  C13 UNL     1      26.632   0.937  53.591  1.00  0.00     0.090 A 
HETATM   14  C8  UNL     1      23.924  -1.117  54.973  1.00  0.00     0.141 A 
HETATM   15  C9  UNL     1      22.846  -0.891  54.147  1.00  0.00     0.074 A 
HETATM   16  C10 UNL     1      21.566  -1.522  54.351  1.00  0.00     0.102 C 
HETATM   17  N4  UNL     1      20.525  -2.034  54.498  1.00  0.00    -0.191 NA
HETATM   18  C14 UNL     1      26.779   1.766  52.570  1.00  0.00     0.165 A 
HETATM   19  C12 UNL     1      22.051   0.205  52.322  1.00  0.00     0.163 C 
BRANCH  18  20
HETATM   20  O2  UNL     1      28.000   2.357  52.389  1.00  0.00    -0.339 OA
HETATM   21  C15 UNL     1      28.830   2.522  53.546  1.00  0.00     0.211 C 
ENDBRANCH  18  20
BRANCH  19  22
HETATM   22  N5  UNL     1      21.418   0.810  51.226  1.00  0.00    -0.110 NA
HETATM   23  O1  UNL     1      21.352   0.345  50.072  1.00  0.00    -0.062 OA
ENDBRANCH  19  22
ENDBRANCH   5   7
ENDBRANCH   4   5
ENDBRANCH   3   4
TORSDOF 5
ENDMDL
MODEL 9
REMARK VINA RESULT:      -6.2      2.500      5.310
REMARK  5 active torsions:
REMARK  status: ('A' for Active; 'I' for Inactive)
REMARK    1  A    between atoms: C3_3  and  C4_4 
REMARK    2  A    between atoms: C4_4  and  N1_5 
REMARK    3  A    between atoms: N1_5  and  N2_6 
REMARK    4  A    between atoms: C12_16  and  N5_17 
REMARK    5  A    between atoms: C14_20  and  O2_21 
ROOT
HETATM    1  C1  UNL     1      24.796   6.913  47.874  1.00  0.00     0.112 C 
HETATM    2  C2  UNL     1      23.752   6.018  48.390  1.00  0.00    -0.109 C 
HETATM    3  C3  UNL     1      22.899   5.270  48.800  1.00  0.00    -0.086 C 
ENDROOT
BRANCH   3   4
HETATM    4  C4  UNL     1      21.861   4.345  49.305  1.00  0.00     0.233 C 
BRANCH   4   5
HETATM    5  N1  UNL     1      22.132   2.995  48.950  1.00  0.00    -0.317 N 
HETATM    6  H6  UNL     1      22.997   2.881  48.374  1.00  0.00     0.181 HD
BRANCH   5   7
HETATM    7  N2  UNL     1      21.984   2.040  49.925  1.00  0.00    -0.248 N 
HETATM    8  C5  UNL     1      23.136   1.880  50.767  1.00  0.00     0.133 A 
HETATM    9  C6  UNL     1      23.180   1.009  51.761  1.00  0.00     0.024 A 
HETATM   10  C7  UNL     1      22.071   0.226  51.994  1.00  0.00     0.073 A 
HETATM   11  C11 UNL     1      24.268   0.831  52.588  1.00  0.00     0.020 A 
HETATM   12  N3  UNL     1      22.105  -0.658  52.999  1.00  0.00    -0.259 NA
HETATM   13  C13 UNL     1      20.854   0.313  51.195  1.00  0.00     0.090 A 
HETATM   14  C8  UNL     1      23.168  -0.829  53.803  1.00  0.00     0.141 A 
HETATM   15  C9  UNL     1      24.308  -0.077  53.623  1.00  0.00     0.074 A 
HETATM   16  C10 UNL     1      25.473  -0.223  54.460  1.00  0.00     0.102 C 
HETATM   17  N4  UNL     1      26.422  -0.323  55.136  1.00  0.00    -0.191 NA
HETATM   18  C14 UNL     1      20.877   1.204  50.217  1.00  0.00     0.165 A 
HETATM   19  C12 UNL     1      25.342   1.541  52.410  1.00  0.00     0.163 C 
BRANCH  18  20
HETATM   20  O2  UNL     1      19.764   1.332  49.432  1.00  0.00    -0.339 OA
HETATM   21  C15 UNL     1      18.645   2.037  49.986  1.00  0.00     0.211 C 
ENDBRANCH  18  20
BRANCH  19  22
HETATM   22  N5  UNL     1      26.109   2.517  51.755  1.00  0.00    -0.110 NA
HETATM   23  O1  UNL     1      27.341   2.477  51.572  1.00  0.00    -0.062 OA
ENDBRANCH  19  22
ENDBRANCH   5   7
ENDBRANCH   4   5
ENDBRANCH   3   4
TORSDOF 5
ENDMDL
