MODEL 1
REMARK VINA RESULT:      -7.7      0.000      0.000
REMARK  7 active torsions:
REMARK  status: ('A' for Active; 'I' for Inactive)
REMARK    1  A    between atoms: O1_2  and  C2_3 
REMARK    2  A    between atoms: C2_3  and  C3_4 
REMARK    3  A    between atoms: C5_6  and  C6_7 
REMARK    4  A    between atoms: C6_7  and  C7_8 
REMARK    5  A    between atoms: C7_8  and  C8_9 
REMARK    6  A    between atoms: C16_17  and  O2_18 
REMARK    7  A    between atoms: C20_23  and  N2_24 
ROOT
HETATM    1  C8  UNL     1      25.723   3.571  49.709  1.00  0.00     0.065 A 
HETATM    2  C9  UNL     1      25.244   3.602  51.131  1.00  0.00     0.093 A 
HETATM    3  C10 UNL     1      24.918   2.683  52.292  1.00  0.00     0.026 C 
HETATM    4  C11 UNL     1      23.663   2.230  52.755  1.00  0.00     0.049 A 
HETATM    5  C12 UNL     1      23.191   0.750  52.448  1.00  0.00     0.040 A 
HETATM    6  C13 UNL     1      21.839   0.701  51.882  1.00  0.00     0.032 A 
HETATM    7  C14 UNL     1      21.719  -0.400  52.892  1.00  0.00    -0.013 A 
HETATM    8  C15 UNL     1      22.519  -1.095  53.917  1.00  0.00     0.009 A 
HETATM    9  C16 UNL     1      23.780  -0.314  53.725  1.00  0.00     0.101 A 
HETATM   10  C18 UNL     1      24.352   0.806  52.919  1.00  0.00     0.050 A 
HETATM   11  C19 UNL     1      23.179   1.203  51.961  1.00  0.00     0.070 A 
HETATM   12  N1  UNL     1      22.790   1.791  50.829  1.00  0.00    -0.251 NA
HETATM   13  C20 UNL     1      23.843   2.593  50.304  1.00  0.00     0.172 C 
HETATM   14  N3  UNL     1      25.268   2.428  50.439  1.00  0.00    -0.233 NA
ENDROOT
BRANCH   1  15
HETATM   15  C7  UNL     1      25.765   5.017  49.449  1.00  0.00     0.055 C 
BRANCH  15  16
HETATM   16  C6  UNL     1      26.853   5.366  48.769  1.00  0.00     0.001 C 
BRANCH  16  17
HETATM   17  C5  UNL     1      28.272   5.556  48.370  1.00  0.00    -0.021 C 
HETATM   18  C3  UNL     1      29.262   6.151  47.835  1.00  0.00    -0.064 C 
HETATM   19  C4  UNL     1      29.028   7.452  47.165  1.00  0.00     0.045 C 
BRANCH  18  20
HETATM   20  C2  UNL     1      30.553   5.442  47.958  1.00  0.00     0.200 C 
BRANCH  20  21
HETATM   21  O1  UNL     1      30.909   5.360  49.294  1.00  0.00    -0.392 OA
HETATM   22  C1  UNL     1      31.842   6.381  49.521  1.00  0.00     0.201 C 
ENDBRANCH  20  21
ENDBRANCH  18  20
ENDBRANCH  16  17
ENDBRANCH  15  16
ENDBRANCH   1  15
BRANCH  13  23
HETATM   23  N2  UNL     1      23.229   3.658  49.592  1.00  0.00    -0.374 N 
HETATM   24  H22 UNL     1      22.796   4.411  49.091  1.00  0.00     0.158 HD
HETATM   25  H23 UNL     1      22.505   3.262  48.857  1.00  0.00     0.158 HD
ENDBRANCH  13  23
BRANCH   9  26
HETATM   26  O2  UNL     1      24.798  -0.788  54.583  1.00  0.00    -0.379 OA
HETATM   27  C17 UNL     1      26.002  -0.195  54.874  1.00  0.00     0.203 C 
ENDBRANCH   9  26
TORSDOF 7
ENDMDL
MODEL 2
REMARK VINA RESULT:      -7.4      1.894      2.795
REMARK  7 active torsions:
REMARK  status: ('A' for Active; 'I' for Inactive)
REMARK    1  A    between atoms: O1_2  and  C2_3 
REMARK    2  A    between atoms: C2_3  and  C3_4 
REMARK    3  A    between atoms: C5_6  and  C6_7 
REMARK    4  A    between atoms: C6_7  and  C7_8 
REMARK    5  A    between atoms: C7_8  and  C8_9 
REMARK    6  A    between atoms: C16_17  and  O2_18 
REMARK    7  A    between atoms: C20_23  and  N2_24 
ROOT
HETATM    1  C8  UNL     1      25.758   3.790  50.444  1.00  0.00     0.065 A 
HETATM    2  C9  UNL     1      24.627   2.885  50.049  1.00  0.00     0.093 A 
HETATM    3  C10 UNL     1      23.259   2.425  50.514  1.00  0.00     0.026 C 
HETATM    4  C11 UNL     1      22.887   1.230  51.167  1.00  0.00     0.049 A 
HETATM    5  C12 UNL     1      22.564   1.241  52.718  1.00  0.00     0.040 A 
HETATM    6  C13 UNL     1      23.288   0.195  53.446  1.00  0.00     0.032 A 
HETATM    7  C14 UNL     1      21.928   0.016  54.052  1.00  0.00    -0.013 A 
HETATM    8  C15 UNL     1      20.568   0.581  53.982  1.00  0.00     0.009 A 
HETATM    9  C16 UNL     1      20.856   1.617  52.942  1.00  0.00     0.101 A 
HETATM   10  C18 UNL     1      21.961   2.141  52.085  1.00  0.00     0.050 A 
HETATM   11  C19 UNL     1      23.196   1.282  52.517  1.00  0.00     0.070 A 
HETATM   12  N1  UNL     1      24.522   1.153  52.575  1.00  0.00    -0.251 NA
HETATM   13  C20 UNL     1      25.147   2.101  51.717  1.00  0.00     0.172 C 
HETATM   14  N3  UNL     1      24.686   3.403  51.308  1.00  0.00    -0.233 NA
ENDROOT
BRANCH   1  15
HETATM   15  C7  UNL     1      26.639   3.575  49.287  1.00  0.00     0.055 C 
BRANCH  15  16
HETATM   16  C6  UNL     1      27.320   4.673  48.973  1.00  0.00     0.001 C 
BRANCH  16  17
HETATM   17  C5  UNL     1      28.329   5.593  48.385  1.00  0.00    -0.021 C 
HETATM   18  C3  UNL     1      28.743   6.635  47.783  1.00  0.00    -0.064 C 
HETATM   19  C4  UNL     1      27.748   7.634  47.328  1.00  0.00     0.045 C 
BRANCH  18  20
HETATM   20  C2  UNL     1      30.209   6.711  47.612  1.00  0.00     0.200 C 
BRANCH  20  21
HETATM   21  O1  UNL     1      30.816   6.777  48.856  1.00  0.00    -0.392 OA
HETATM   22  C1  UNL     1      31.016   8.137  49.129  1.00  0.00     0.201 C 
ENDBRANCH  20  21
ENDBRANCH  18  20
ENDBRANCH  16  17
ENDBRANCH  15  16
ENDBRANCH   1  15
BRANCH  13  23
HETATM   23  N2  UNL     1      26.370   1.519  51.287  1.00  0.00    -0.374 N 
HETATM   24  H22 UNL     1      27.232   1.107  50.984  1.00  0.00     0.158 HD
HETATM   25  H23 UNL     1      26.975   2.260  50.734  1.00  0.00     0.158 HD
ENDBRANCH  13  23
BRANCH   9  26
HETATM   26  O2  UNL     1      19.701   2.385  52.669  1.00  0.00    -0.379 OA
HETATM   27  C17 UNL     1      19.554   3.392  51.746  1.00  0.00     0.203 C 
ENDBRANCH   9  26
TORSDOF 7
ENDMDL
MODEL 3
REMARK VINA RESULT:      -7.3      2.246      3.285
REMARK  7 active torsions:
REMARK  status: ('A' for Active; 'I' for Inactive)
REMARK    1  A    between atoms: O1_2  and  C2_3 
REMARK    2  A    between atoms: C2_3  and  C3_4 
REMARK    3  A    between atoms: C5_6  and  C6_7 
REMARK    4  A    between atoms: C6_7  and  C7_8 
REMARK    5  A    between atoms: C7_8  and  C8_9 
REMARK    6  A    between atoms: C16_17  and  O2_18 
REMARK    7  A    between atoms: C20_23  and  N2_24 
ROOT
HETATM    1  C8  UNL     1      25.782   3.626  50.571  1.00  0.00     0.065 A 
HETATM    2  C9  UNL     1      24.626   2.753  50.176  1.00  0.00     0.093 A 
HETATM    3  C10 UNL     1      23.255   2.314  50.654  1.00  0.00     0.026 C 
HETATM    4  C11 UNL     1      22.867   1.114  51.289  1.00  0.00     0.049 A 
HETATM    5  C12 UNL     1      22.569   1.100  52.844  1.00  0.00     0.040 A 
HETATM    6  C13 UNL     1      23.281   0.024  53.540  1.00  0.00     0.032 A 
HETATM    7  C14 UNL     1      21.928  -0.138  54.163  1.00  0.00    -0.013 A 
HETATM    8  C15 UNL     1      20.579   0.457  54.126  1.00  0.00     0.009 A 
HETATM    9  C16 UNL     1      20.873   1.508  53.103  1.00  0.00     0.101 A 
HETATM   10  C18 UNL     1      21.976   2.026  52.239  1.00  0.00     0.050 A 
HETATM   11  C19 UNL     1      23.198   1.131  52.634  1.00  0.00     0.070 A 
HETATM   12  N1  UNL     1      24.522   0.973  52.669  1.00  0.00    -0.251 NA
HETATM   13  C20 UNL     1      25.154   1.926  51.819  1.00  0.00     0.172 C 
HETATM   14  N3  UNL     1      24.715   3.245  51.445  1.00  0.00    -0.233 NA
ENDROOT
BRANCH   1  15
HETATM   15  C7  UNL     1      26.639   3.416  49.396  1.00  0.00     0.055 C 
BRANCH  15  16
HETATM   16  C6  UNL     1      27.205   4.548  48.988  1.00  0.00     0.001 C 
BRANCH  16  17
HETATM   17  C5  UNL     1      27.415   5.973  48.620  1.00  0.00    -0.021 C 
HETATM   18  C3  UNL     1      28.031   6.967  48.116  1.00  0.00    -0.064 C 
HETATM   19  C4  UNL     1      29.343   6.734  47.469  1.00  0.00     0.045 C 
BRANCH  18  20
HETATM   20  C2  UNL     1      27.331   8.262  48.250  1.00  0.00     0.200 C 
BRANCH  20  21
HETATM   21  O1  UNL     1      27.478   8.735  49.544  1.00  0.00    -0.392 OA
HETATM   22  C1  UNL     1      26.241   9.281  49.912  1.00  0.00     0.201 C 
ENDBRANCH  20  21
ENDBRANCH  18  20
ENDBRANCH  16  17
ENDBRANCH  15  16
ENDBRANCH   1  15
BRANCH  13  23
HETATM   23  N2  UNL     1      26.357   1.326  51.359  1.00  0.00    -0.374 N 
HETATM   24  H22 UNL     1      27.206   0.902  51.034  1.00  0.00     0.158 HD
HETATM   25  H23 UNL     1      26.954   2.056  50.783  1.00  0.00     0.158 HD
ENDBRANCH  13  23
BRANCH   9  26
HETATM   26  O2  UNL     1      19.731   2.306  52.864  1.00  0.00    -0.379 OA
HETATM   27  C17 UNL     1      19.412   3.005  51.726  1.00  0.00     0.203 C 
ENDBRANCH   9  26
TORSDOF 7
ENDMDL
MODEL 4
REMARK VINA RESULT:      -6.9      1.234      1.501
REMARK  7 active torsions:
REMARK  status: ('A' for Active; 'I' for Inactive)
REMARK    1  A    between atoms: O1_2  and  C2_3 
REMARK    2  A    between atoms: C2_3  and  C3_4 
REMARK    3  A    between atoms: C5_6  and  C6_7 
REMARK    4  A    between atoms: C6_7  and  C7_8 
REMARK    5  A    between atoms: C7_8  and  C8_9 
REMARK    6  A    between atoms: C16_17  and  O2_18 
REMARK    7  A    between atoms: C20_23  and  N2_24 
ROOT
HETATM    1  C8  UNL     1      24.565   3.653  49.535  1.00  0.00     0.065 A 
HETATM    2  C9  UNL     1      24.589   3.630  51.036  1.00  0.00     0.093 A 
HETATM    3  C10 UNL     1      24.602   2.667  52.207  1.00  0.00     0.026 C 
HETATM    4  C11 UNL     1      23.544   2.259  53.047  1.00  0.00     0.049 A 
HETATM    5  C12 UNL     1      22.893   0.827  52.864  1.00  0.00     0.040 A 
HETATM    6  C13 UNL     1      21.430   0.884  52.783  1.00  0.00     0.032 A 
HETATM    7  C14 UNL     1      21.575  -0.264  53.736  1.00  0.00    -0.013 A 
HETATM    8  C15 UNL     1      22.619  -1.059  54.410  1.00  0.00     0.009 A 
HETATM    9  C16 UNL     1      23.796  -0.338  53.833  1.00  0.00     0.101 A 
HETATM   10  C18 UNL     1      24.146   0.792  52.921  1.00  0.00     0.050 A 
HETATM   11  C19 UNL     1      22.752   1.306  52.426  1.00  0.00     0.070 A 
HETATM   12  N1  UNL     1      22.052   1.977  51.511  1.00  0.00    -0.251 NA
HETATM   13  C20 UNL     1      22.925   2.748  50.691  1.00  0.00     0.172 C 
HETATM   14  N3  UNL     1      24.298   2.498  50.335  1.00  0.00    -0.233 NA
ENDROOT
BRANCH   1  15
HETATM   15  C7  UNL     1      24.621   5.107  49.326  1.00  0.00     0.055 C 
BRANCH  15  16
HETATM   16  C6  UNL     1      25.855   5.521  49.058  1.00  0.00     0.001 C 
BRANCH  16  17
HETATM   17  C5  UNL     1      27.000   6.321  48.549  1.00  0.00    -0.021 C 
HETATM   18  C3  UNL     1      28.195   6.528  48.161  1.00  0.00    -0.064 C 
HETATM   19  C4  UNL     1      29.142   5.390  48.147  1.00  0.00     0.045 C 
BRANCH  18  20
HETATM   20  C2  UNL     1      28.485   7.922  47.763  1.00  0.00     0.200 C 
BRANCH  20  21
HETATM   21  O1  UNL     1      29.795   8.232  48.089  1.00  0.00    -0.392 OA
HETATM   22  C1  UNL     1      29.736   9.185  49.115  1.00  0.00     0.201 C 
ENDBRANCH  20  21
ENDBRANCH  18  20
ENDBRANCH  16  17
ENDBRANCH  15  16
ENDBRANCH   1  15
BRANCH  13  23
HETATM   23  N2  UNL     1      22.186   3.884  50.263  1.00  0.00    -0.374 N 
HETATM   24  H22 UNL     1      21.664   4.685  49.963  1.00  0.00     0.158 HD
HETATM   25  H23 UNL     1      22.335   4.054  49.182  1.00  0.00     0.158 HD
ENDBRANCH  13  23
BRANCH   9  26
HETATM   26  O2  UNL     1      25.005  -0.915  54.283  1.00  0.00    -0.379 OA
HETATM   27  C17 UNL     1      26.264  -0.758  53.758  1.00  0.00     0.203 C 
ENDBRANCH   9  26
TORSDOF 7
ENDMDL
MODEL 5
REMARK VINA RESULT:      -6.8      1.755      2.335
REMARK  7 active torsions:
REMARK  status: ('A' for Active; 'I' for Inactive)
REMARK    1  A    between atoms: O1_2  and  C2_3 
REMARK    2  A    between atoms: C2_3  and  C3_4 
REMARK    3  A    between atoms: C5_6  and  C6_7 
REMARK    4  A    between atoms: C6_7  and  C7_8 
REMARK    5  A    between atoms: C7_8  and  C8_9 
REMARK    6  A    between atoms: C16_17  and  O2_18 
REMARK    7  A    between atoms: C20_23  and  N2_24 
ROOT
HETATM    1  C8  UNL     1      24.243   2.947  50.066  1.00  0.00     0.065 A 
HETATM    2  C9  UNL     1      23.293   3.239  51.192  1.00  0.00     0.093 A 
HETATM    3  C10 UNL     1      22.476   2.544  52.263  1.00  0.00     0.026 C 
HETATM    4  C11 UNL     1      21.098   2.239  52.286  1.00  0.00     0.049 A 
HETATM    5  C12 UNL     1      20.609   0.755  52.031  1.00  0.00     0.040 A 
HETATM    6  C13 UNL     1      19.552   0.680  51.017  1.00  0.00     0.032 A 
HETATM    7  C14 UNL     1      18.961  -0.229  52.052  1.00  0.00    -0.013 A 
HETATM    8  C15 UNL     1      19.261  -0.784  53.385  1.00  0.00     0.009 A 
HETATM    9  C16 UNL     1      20.584  -0.110  53.568  1.00  0.00     0.101 A 
HETATM   10  C18 UNL     1      21.524   0.830  52.886  1.00  0.00     0.050 A 
HETATM   11  C19 UNL     1      20.821   1.120  51.518  1.00  0.00     0.070 A 
HETATM   12  N1  UNL     1      20.929   1.530  50.253  1.00  0.00    -0.251 NA
HETATM   13  C20 UNL     1      22.181   2.178  50.051  1.00  0.00     0.172 C 
HETATM   14  N3  UNL     1      23.436   1.966  50.725  1.00  0.00    -0.233 NA
ENDROOT
BRANCH   1  15
HETATM   15  C7  UNL     1      24.531   4.325  49.646  1.00  0.00     0.055 C 
BRANCH  15  16
HETATM   16  C6  UNL     1      25.830   4.517  49.437  1.00  0.00     0.001 C 
BRANCH  16  17
HETATM   17  C5  UNL     1      27.116   5.016  48.882  1.00  0.00    -0.021 C 
HETATM   18  C3  UNL     1      27.899   5.854  48.329  1.00  0.00    -0.064 C 
HETATM   19  C4  UNL     1      27.361   7.179  47.945  1.00  0.00     0.045 C 
BRANCH  18  20
HETATM   20  C2  UNL     1      29.285   5.376  48.139  1.00  0.00     0.200 C 
BRANCH  20  21
HETATM   21  O1  UNL     1      30.137   6.463  48.027  1.00  0.00    -0.392 OA
HETATM   22  C1  UNL     1      31.389   5.951  47.658  1.00  0.00     0.201 C 
ENDBRANCH  20  21
ENDBRANCH  18  20
ENDBRANCH  16  17
ENDBRANCH  15  16
ENDBRANCH   1  15
BRANCH  13  23
HETATM   23  N2  UNL     1      21.981   3.139  49.024  1.00  0.00    -0.374 N 
HETATM   24  H22 UNL     1      21.839   3.819  48.300  1.00  0.00     0.158 HD
HETATM   25  H23 UNL     1      22.213   2.701  48.037  1.00  0.00     0.158 HD
ENDBRANCH  13  23
BRANCH   9  26
HETATM   26  O2  UNL     1      21.170  -0.485  54.798  1.00  0.00    -0.379 OA
HETATM   27  C17 UNL     1      22.374  -1.113  55.004  1.00  0.00     0.203 C 
ENDBRANCH   9  26
TORSDOF 7
ENDMDL
MODEL 6
REMARK VINA RESULT:      -6.8      2.257      8.259
REMARK  7 active torsions:
REMARK  status: ('A' for Active; 'I' for Inactive)
REMARK    1  A    between atoms: O1_2  and  C2_3 
REMARK    2  A    between atoms: C2_3  and  C3_4 
REMARK    3  A    between atoms: C5_6  and  C6_7 
REMARK    4  A    between atoms: C6_7  and  C7_8 
REMARK    5  A    between atoms: C7_8  and  C8_9 
REMARK    6  A    between atoms: C16_17  and  O2_18 
REMARK    7  A    between atoms: C20_23  and  N2_24 
ROOT
HETATM    1  C8  UNL     1      23.456   3.808  50.821  1.00  0.00     0.065 A 
HETATM    2  C9  UNL     1      24.011   5.193  50.982  1.00  0.00     0.093 A 
HETATM    3  C10 UNL     1      24.508   6.374  50.170  1.00  0.00     0.026 C 
HETATM    4  C11 UNL     1      25.831   6.775  49.886  1.00  0.00     0.049 A 
HETATM    5  C12 UNL     1      26.451   6.509  48.453  1.00  0.00     0.040 A 
HETATM    6  C13 UNL     1      27.764   5.860  48.525  1.00  0.00     0.032 A 
HETATM    7  C14 UNL     1      28.068   6.912  47.500  1.00  0.00    -0.013 A 
HETATM    8  C15 UNL     1      27.415   8.018  46.777  1.00  0.00     0.009 A 
HETATM    9  C16 UNL     1      26.064   7.871  47.401  1.00  0.00     0.101 A 
HETATM   10  C18 UNL     1      25.321   7.051  48.405  1.00  0.00     0.050 A 
HETATM   11  C19 UNL     1      26.382   6.002  48.877  1.00  0.00     0.070 A 
HETATM   12  N1  UNL     1      26.634   4.820  49.442  1.00  0.00    -0.251 NA
HETATM   13  C20 UNL     1      25.467   4.327  50.092  1.00  0.00     0.172 C 
HETATM   14  N3  UNL     1      24.081   4.561  49.777  1.00  0.00    -0.233 NA
ENDROOT
BRANCH   1  15
HETATM   15  C7  UNL     1      23.233   3.483  52.236  1.00  0.00     0.055 C 
BRANCH  15  16
HETATM   16  C6  UNL     1      23.458   2.198  52.491  1.00  0.00     0.001 C 
BRANCH  16  17
HETATM   17  C5  UNL     1      24.100   0.936  52.944  1.00  0.00    -0.021 C 
HETATM   18  C3  UNL     1      24.145  -0.233  53.446  1.00  0.00    -0.064 C 
HETATM   19  C4  UNL     1      22.882  -0.854  53.908  1.00  0.00     0.045 C 
BRANCH  18  20
HETATM   20  C2  UNL     1      25.495  -0.832  53.504  1.00  0.00     0.200 C 
BRANCH  20  21
HETATM   21  O1  UNL     1      25.977  -0.761  54.801  1.00  0.00    -0.392 OA
HETATM   22  C1  UNL     1      27.110   0.063  54.761  1.00  0.00     0.201 C 
ENDBRANCH  20  21
ENDBRANCH  18  20
ENDBRANCH  16  17
ENDBRANCH  15  16
ENDBRANCH   1  15
BRANCH  13  23
HETATM   23  N2  UNL     1      25.913   3.527  51.178  1.00  0.00    -0.374 N 
HETATM   24  H22 UNL     1      26.228   2.964  51.946  1.00  0.00     0.158 HD
HETATM   25  H23 UNL     1      25.513   2.501  51.090  1.00  0.00     0.158 HD
ENDBRANCH  13  23
BRANCH   9  26
HETATM   26  O2  UNL     1      25.159   8.814  46.864  1.00  0.00    -0.379 OA
HETATM   27  C17 UNL     1      25.336  10.168  46.719  1.00  0.00     0.203 C 
ENDBRANCH   9  26
TORSDOF 7
ENDMDL
MODEL 7
REMARK VINA RESULT:      -6.7      3.478      4.648
REMARK  7 active torsions:
REMARK  status: ('A' for Active; 'I' for Inactive)
REMARK    1  A    between atoms: O1_2  and  C2_3 
REMARK    2  A    between atoms: C2_3  and  C3_4 
REMARK    3  A    between atoms: C5_6  and  C6_7 
REMARK    4  A    between atoms: C6_7  and  C7_8 
REMARK    5  A    between atoms: C7_8  and  C8_9 
REMARK    6  A    between atoms: C16_17  and  O2_18 
REMARK    7  A    between atoms: C20_23  and  N2_24 
ROOT
HETATM    1  C8  UNL     1      24.076   3.531  50.718  1.00  0.00     0.065 A 
HETATM    2  C9  UNL     1      24.489   2.094  50.863  1.00  0.00     0.093 A 
HETATM    3  C10 UNL     1      25.017   1.110  51.889  1.00  0.00     0.026 C 
HETATM    4  C11 UNL     1      26.333   0.641  52.089  1.00  0.00     0.049 A 
HETATM    5  C12 UNL     1      27.195   1.189  53.300  1.00  0.00     0.040 A 
HETATM    6  C13 UNL     1      28.525   1.640  52.880  1.00  0.00     0.032 A 
HETATM    7  C14 UNL     1      28.908   0.855  54.099  1.00  0.00    -0.013 A 
HETATM    8  C15 UNL     1      28.296   0.054  55.175  1.00  0.00     0.009 A 
HETATM    9  C16 UNL     1      26.877   0.195  54.722  1.00  0.00     0.101 A 
HETATM   10  C18 UNL     1      26.048   0.814  53.644  1.00  0.00     0.050 A 
HETATM   11  C19 UNL     1      27.098   1.576  52.768  1.00  0.00     0.070 A 
HETATM   12  N1  UNL     1      27.346   2.537  51.877  1.00  0.00    -0.251 NA
HETATM   13  C20 UNL     1      26.132   2.982  51.282  1.00  0.00     0.172 C 
HETATM   14  N3  UNL     1      24.801   3.000  51.832  1.00  0.00    -0.233 NA
ENDROOT
BRANCH   1  15
HETATM   15  C7  UNL     1      23.654   3.508  49.311  1.00  0.00     0.055 C 
BRANCH  15  16
HETATM   16  C6  UNL     1      23.534   4.734  48.810  1.00  0.00     0.001 C 
BRANCH  16  17
HETATM   17  C5  UNL     1      23.856   6.060  48.221  1.00  0.00    -0.021 C 
HETATM   18  C3  UNL     1      23.747   7.027  47.400  1.00  0.00    -0.064 C 
HETATM   19  C4  UNL     1      22.738   6.929  46.320  1.00  0.00     0.045 C 
BRANCH  18  20
HETATM   20  C2  UNL     1      24.673   8.153  47.642  1.00  0.00     0.200 C 
BRANCH  20  21
HETATM   21  O1  UNL     1      24.242   9.265  46.937  1.00  0.00    -0.392 OA
HETATM   22  C1  UNL     1      24.592  10.384  47.705  1.00  0.00     0.201 C 
ENDBRANCH  20  21
ENDBRANCH  18  20
ENDBRANCH  16  17
ENDBRANCH  15  16
ENDBRANCH   1  15
BRANCH  13  23
HETATM   23  N2  UNL     1      26.458   3.421  49.970  1.00  0.00    -0.374 N 
HETATM   24  H22 UNL     1      26.689   3.732  49.046  1.00  0.00     0.158 HD
HETATM   25  H23 UNL     1      25.731   3.022  49.240  1.00  0.00     0.158 HD
ENDBRANCH  13  23
BRANCH   9  26
HETATM   26  O2  UNL     1      26.000  -0.467  55.610  1.00  0.00    -0.379 OA
HETATM   27  C17 UNL     1      24.776  -1.024  55.331  1.00  0.00     0.203 C 
ENDBRANCH   9  26
TORSDOF 7
ENDMDL
MODEL 8
REMARK VINA RESULT:      -6.6      2.602      9.007
REMARK  7 active torsions:
REMARK  status: ('A' for Active; 'I' for Inactive)
REMARK    1  A    between atoms: O1_2  and  C2_3 
REMARK    2  A    between atoms: C2_3  and  C3_4 
REMARK    3  A    between atoms: C5_6  and  C6_7 
REMARK    4  A    between atoms: C6_7  and  C7_8 
REMARK    5  A    between atoms: C7_8  and  C8_9 
REMARK    6  A    between atoms: C16_17  and  O2_18 
REMARK    7  A    between atoms: C20_23  and  N2_24 
ROOT
HETATM    1  C8  UNL     1      24.371   3.143  50.402  1.00  0.00     0.065 A 
HETATM    2  C9  UNL     1      24.637   4.596  50.670  1.00  0.00     0.093 A 
HETATM    3  C10 UNL     1      24.879   5.910  49.951  1.00  0.00     0.026 C 
HETATM    4  C11 UNL     1      26.092   6.589  49.706  1.00  0.00     0.049 A 
HETATM    5  C12 UNL     1      26.739   6.561  48.261  1.00  0.00     0.040 A 
HETATM    6  C13 UNL     1      28.157   6.186  48.292  1.00  0.00     0.032 A 
HETATM    7  C14 UNL     1      28.234   7.351  47.351  1.00  0.00    -0.013 A 
HETATM    8  C15 UNL     1      27.364   8.354  46.709  1.00  0.00     0.009 A 
HETATM    9  C16 UNL     1      26.076   7.891  47.313  1.00  0.00     0.101 A 
HETATM   10  C18 UNL     1      25.523   6.866  48.247  1.00  0.00     0.050 A 
HETATM   11  C19 UNL     1      26.778   6.020  48.646  1.00  0.00     0.070 A 
HETATM   12  N1  UNL     1      27.267   4.875  49.122  1.00  0.00    -0.251 NA
HETATM   13  C20 UNL     1      26.229   4.109  49.726  1.00  0.00     0.172 C 
HETATM   14  N3  UNL     1      24.822   4.082  49.421  1.00  0.00    -0.233 NA
ENDROOT
BRANCH   1  15
HETATM   15  C7  UNL     1      24.231   2.676  51.788  1.00  0.00     0.055 C 
BRANCH  15  16
HETATM   16  C6  UNL     1      23.280   1.754  51.906  1.00  0.00     0.001 C 
BRANCH  16  17
HETATM   17  C5  UNL     1      22.241   0.857  52.477  1.00  0.00    -0.021 C 
HETATM   18  C3  UNL     1      21.761  -0.004  53.283  1.00  0.00    -0.064 C 
HETATM   19  C4  UNL     1      22.634  -0.532  54.358  1.00  0.00     0.045 C 
BRANCH  18  20
HETATM   20  C2  UNL     1      20.353  -0.374  53.029  1.00  0.00     0.200 C 
BRANCH  20  21
HETATM   21  O1  UNL     1      19.993   0.028  51.753  1.00  0.00    -0.392 OA
HETATM   22  C1  UNL     1      18.592   0.055  51.724  1.00  0.00     0.201 C 
ENDBRANCH  20  21
ENDBRANCH  18  20
ENDBRANCH  16  17
ENDBRANCH  15  16
ENDBRANCH   1  15
BRANCH  13  23
HETATM   23  N2  UNL     1      26.837   3.336  50.752  1.00  0.00    -0.374 N 
HETATM   24  H22 UNL     1      27.265   2.790  51.475  1.00  0.00     0.158 HD
HETATM   25  H23 UNL     1      26.960   3.942  51.668  1.00  0.00     0.158 HD
ENDBRANCH  13  23
BRANCH   9  26
HETATM   26  O2  UNL     1      24.995   8.671  46.842  1.00  0.00    -0.379 OA
HETATM   27  C17 UNL     1      24.075   8.344  45.877  1.00  0.00     0.203 C 
ENDBRANCH   9  26
TORSDOF 7
ENDMDL
MODEL 9
REMARK VINA RESULT:      -6.5      3.984      5.266
REMARK  7 active torsions:
REMARK  status: ('A' for Active; 'I' for Inactive)
REMARK    1  A    between atoms: O1_2  and  C2_3 
REMARK    2  A    between atoms: C2_3  and  C3_4 
REMARK    3  A    between atoms: C5_6  and  C6_7 
REMARK    4  A    between atoms: C6_7  and  C7_8 
REMARK    5  A    between atoms: C7_8  and  C8_9 
REMARK    6  A    between atoms: C16_17  and  O2_18 
REMARK    7  A    between atoms: C20_23  and  N2_24 
ROOT
HETATM    1  C8  UNL     1      23.704   3.833  49.225  1.00  0.00     0.065 A 
HETATM    2  C9  UNL     1      23.807   3.983  50.715  1.00  0.00     0.093 A 
HETATM    3  C10 UNL     1      24.466   3.355  51.927  1.00  0.00     0.026 C 
HETATM    4  C11 UNL     1      23.924   2.474  52.889  1.00  0.00     0.049 A 
HETATM    5  C12 UNL     1      24.287   0.933  52.847  1.00  0.00     0.040 A 
HETATM    6  C13 UNL     1      23.098   0.078  52.909  1.00  0.00     0.032 A 
HETATM    7  C14 UNL     1      23.964  -0.638  53.901  1.00  0.00    -0.013 A 
HETATM    8  C15 UNL     1      25.306  -0.557  54.508  1.00  0.00     0.009 A 
HETATM    9  C16 UNL     1      25.760   0.668  53.780  1.00  0.00     0.101 A 
HETATM   10  C18 UNL     1      25.296   1.676  52.781  1.00  0.00     0.050 A 
HETATM   11  C19 UNL     1      23.861   1.179  52.401  1.00  0.00     0.070 A 
HETATM   12  N1  UNL     1      22.854   1.186  51.526  1.00  0.00    -0.251 NA
HETATM   13  C20 UNL     1      23.027   2.240  50.584  1.00  0.00     0.172 C 
HETATM   14  N3  UNL     1      24.244   2.845  50.107  1.00  0.00    -0.233 NA
ENDROOT
BRANCH   1  15
HETATM   15  C7  UNL     1      22.842   4.988  48.936  1.00  0.00     0.055 C 
BRANCH  15  16
HETATM   16  C6  UNL     1      22.653   5.150  47.631  1.00  0.00     0.001 C 
BRANCH  16  17
HETATM   17  C5  UNL     1      22.012   5.219  46.291  1.00  0.00    -0.021 C 
HETATM   18  C3  UNL     1      21.149   5.587  45.430  1.00  0.00    -0.064 C 
HETATM   19  C4  UNL     1      20.061   6.495  45.861  1.00  0.00     0.045 C 
BRANCH  18  20
HETATM   20  C2  UNL     1      21.356   5.041  44.072  1.00  0.00     0.200 C 
BRANCH  20  21
HETATM   21  O1  UNL     1      21.129   3.674  44.085  1.00  0.00    -0.392 OA
HETATM   22  C1  UNL     1      19.835   3.479  43.584  1.00  0.00     0.201 C 
ENDBRANCH  20  21
ENDBRANCH  18  20
ENDBRANCH  16  17
ENDBRANCH  15  16
ENDBRANCH   1  15
BRANCH  13  23
HETATM   23  N2  UNL     1      21.726   2.637  50.174  1.00  0.00    -0.374 N 
HETATM   24  H22 UNL     1      20.808   2.916  49.885  1.00  0.00     0.158 HD
HETATM   25  H23 UNL     1      21.761   3.633  49.696  1.00  0.00     0.158 HD
ENDBRANCH  13  23
BRANCH   9  26
HETATM   26  O2  UNL     1      27.087   0.999  54.138  1.00  0.00    -0.379 OA
HETATM   27  C17 UNL     1      28.048   0.176  54.672  1.00  0.00     0.203 C 
ENDBRANCH   9  26
TORSDOF 7
ENDMDL
