MODEL 1
REMARK VINA RESULT:      -8.2      0.000      0.000
REMARK  6 active torsions:
REMARK  status: ('A' for Active; 'I' for Inactive)
REMARK    1  A    between atoms: N1_1  and  C1_2 
REMARK    2  A    between atoms: C3_5  and  C4_6 
REMARK    3  A    between atoms: C4_6  and  N3_7 
REMARK    4  A    between atoms: N3_7  and  C5_8 
REMARK    5  A    between atoms: C11_14  and  N4_15 
REMARK    6  A    between atoms: N4_15  and  C12_16 
ROOT
HETATM    1  C1  UNL     1      27.991  -2.002  53.310  1.00  0.00     0.721 A 
HETATM    2  N2  UNL     1      28.750  -1.005  53.793  1.00  0.00    -0.075 NA
HETATM    3  C2  UNL     1      28.259   0.213  54.028  1.00  0.00     0.149 A 
HETATM    4  C3  UNL     1      26.935   0.510  53.785  1.00  0.00     0.024 A 
HETATM    5  C11 UNL     1      26.155  -0.513  53.290  1.00  0.00     0.156 A 
HETATM    6  N5  UNL     1      26.681  -1.741  53.061  1.00  0.00    -0.045 NA
ENDROOT
BRANCH   4   7
HETATM    7  C4  UNL     1      26.262   1.790  54.004  1.00  0.00     0.164 C 
BRANCH   7   8
HETATM    8  N3  UNL     1      26.167   2.598  52.804  1.00  0.00    -0.385 N 
HETATM    9  H6  UNL     1      27.080   2.983  52.439  1.00  0.00     0.160 HD
BRANCH   8  10
HETATM   10  C5  UNL     1      24.938   2.874  52.142  1.00  0.00     0.028 A 
HETATM   11  C6  UNL     1      24.822   2.563  50.805  1.00  0.00     0.029 A 
HETATM   12  C7  UNL     1      23.628   2.829  50.148  1.00  0.00     0.002 A 
HETATM   13  C8  UNL     1      22.578   3.404  50.860  1.00  0.00     0.000 A 
HETATM   14  C9  UNL     1      22.735   3.699  52.196  1.00  0.00     0.002 A 
HETATM   15  C10 UNL     1      23.913   3.444  52.870  1.00  0.00     0.029 A 
ENDBRANCH   8  10
ENDBRANCH   7   8
ENDBRANCH   4   7
BRANCH   5  16
HETATM   16  N4  UNL     1      24.781  -0.518  52.933  1.00  0.00    -0.340 N 
HETATM   17  H12 UNL     1      24.678  -0.533  51.887  1.00  0.00     0.167 HD
BRANCH  16  18
HETATM   18  C12 UNL     1      23.445  -0.513  53.415  1.00  0.00     0.035 A 
HETATM   19  C13 UNL     1      22.966  -0.911  54.644  1.00  0.00     0.029 A 
HETATM   20  C14 UNL     1      21.620  -0.832  54.920  1.00  0.00     0.004 A 
HETATM   21  C15 UNL     1      20.802  -0.351  53.931  1.00  0.00     0.019 A 
HETATM   22  C16 UNL     1      21.215   0.061  52.684  1.00  0.00     0.013 A 
HETATM   23 BR1  UNL     1      19.930   0.696  51.454  1.00  0.00    -0.051 Br
HETATM   24  C17 UNL     1      22.589  -0.030  52.434  1.00  0.00     0.048 A 
ENDBRANCH  16  18
ENDBRANCH   5  16
BRANCH   1  25
HETATM   25  N1  UNL     1      28.653  -3.234  53.115  1.00  0.00    -0.231 N 
HETATM   26  H1  UNL     1      27.913  -3.937  53.302  1.00  0.00     0.174 HD
HETATM   27  H2  UNL     1      29.614  -3.508  52.853  1.00  0.00     0.174 HD
ENDBRANCH   1  25
TORSDOF 6
ENDMDL
MODEL 2
REMARK VINA RESULT:      -7.9      1.961      4.802
REMARK  6 active torsions:
REMARK  status: ('A' for Active; 'I' for Inactive)
REMARK    1  A    between atoms: N1_1  and  C1_2 
REMARK    2  A    between atoms: C3_5  and  C4_6 
REMARK    3  A    between atoms: C4_6  and  N3_7 
REMARK    4  A    between atoms: N3_7  and  C5_8 
REMARK    5  A    between atoms: C11_14  and  N4_15 
REMARK    6  A    between atoms: N4_15  and  C12_16 
ROOT
HETATM    1  C1  UNL     1      29.038   1.775  54.207  1.00  0.00     0.721 A 
HETATM    2  N2  UNL     1      28.567   0.754  54.942  1.00  0.00    -0.075 NA
HETATM    3  C2  UNL     1      27.511   0.033  54.562  1.00  0.00     0.149 A 
HETATM    4  C3  UNL     1      26.846   0.301  53.386  1.00  0.00     0.024 A 
HETATM    5  C11 UNL     1      27.329   1.349  52.631  1.00  0.00     0.156 A 
HETATM    6  N5  UNL     1      28.404   2.066  53.041  1.00  0.00    -0.045 NA
ENDROOT
BRANCH   4   7
HETATM    7  C4  UNL     1      25.688  -0.407  52.842  1.00  0.00     0.164 C 
BRANCH   7   8
HETATM    8  N3  UNL     1      24.731  -0.802  53.857  1.00  0.00    -0.385 N 
HETATM    9  H6  UNL     1      25.102  -1.436  54.615  1.00  0.00     0.160 HD
BRANCH   8  10
HETATM   10  C5  UNL     1      23.372  -0.379  53.856  1.00  0.00     0.028 A 
HETATM   11  C6  UNL     1      23.002   0.657  53.026  1.00  0.00     0.029 A 
HETATM   12  C7  UNL     1      21.680   1.080  53.019  1.00  0.00     0.002 A 
HETATM   13  C8  UNL     1      20.762   0.445  53.851  1.00  0.00     0.000 A 
HETATM   14  C9  UNL     1      21.173  -0.587  54.667  1.00  0.00     0.002 A 
HETATM   15  C10 UNL     1      22.482  -1.023  54.691  1.00  0.00     0.029 A 
ENDBRANCH   8  10
ENDBRANCH   7   8
ENDBRANCH   4   7
BRANCH   5  16
HETATM   16  N4  UNL     1      26.861   1.872  51.397  1.00  0.00    -0.340 N 
HETATM   17  H12 UNL     1      27.064   1.198  50.616  1.00  0.00     0.167 HD
BRANCH  16  18
HETATM   18  C12 UNL     1      26.213   2.962  50.756  1.00  0.00     0.035 A 
HETATM   19  C13 UNL     1      26.629   3.702  49.671  1.00  0.00     0.029 A 
HETATM   20  C14 UNL     1      25.851   4.734  49.199  1.00  0.00     0.004 A 
HETATM   21  C15 UNL     1      24.671   4.982  49.850  1.00  0.00     0.019 A 
HETATM   22  C16 UNL     1      24.198   4.283  50.937  1.00  0.00     0.013 A 
HETATM   23 BR1  UNL     1      22.542   4.778  51.698  1.00  0.00    -0.051 Br
HETATM   24  C17 UNL     1      25.010   3.239  51.395  1.00  0.00     0.048 A 
ENDBRANCH  16  18
ENDBRANCH   5  16
BRANCH   1  25
HETATM   25  N1  UNL     1      30.162   2.443  54.739  1.00  0.00    -0.231 N 
HETATM   26  H1  UNL     1      30.296   1.990  55.663  1.00  0.00     0.174 HD
HETATM   27  H2  UNL     1      30.783   3.200  54.406  1.00  0.00     0.174 HD
ENDBRANCH   1  25
TORSDOF 6
ENDMDL
MODEL 3
REMARK VINA RESULT:      -7.9      2.640      5.096
REMARK  6 active torsions:
REMARK  status: ('A' for Active; 'I' for Inactive)
REMARK    1  A    between atoms: N1_1  and  C1_2 
REMARK    2  A    between atoms: C3_5  and  C4_6 
REMARK    3  A    between atoms: C4_6  and  N3_7 
REMARK    4  A    between atoms: N3_7  and  C5_8 
REMARK    5  A    between atoms: C11_14  and  N4_15 
REMARK    6  A    between atoms: N4_15  and  C12_16 
ROOT
HETATM    1  C1  UNL     1      28.938   1.777  54.123  1.00  0.00     0.721 A 
HETATM    2  N2  UNL     1      28.433   0.794  54.887  1.00  0.00    -0.075 NA
HETATM    3  C2  UNL     1      27.365   0.085  54.518  1.00  0.00     0.149 A 
HETATM    4  C3  UNL     1      26.721   0.328  53.324  1.00  0.00     0.024 A 
HETATM    5  C11 UNL     1      27.238   1.337  52.540  1.00  0.00     0.156 A 
HETATM    6  N5  UNL     1      28.325   2.042  52.940  1.00  0.00    -0.045 NA
ENDROOT
BRANCH   4   7
HETATM    7  C4  UNL     1      25.553  -0.371  52.791  1.00  0.00     0.164 C 
BRANCH   7   8
HETATM    8  N3  UNL     1      24.612  -0.779  53.816  1.00  0.00    -0.385 N 
HETATM    9  H6  UNL     1      25.005  -1.393  54.579  1.00  0.00     0.160 HD
BRANCH   8  10
HETATM   10  C5  UNL     1      23.243  -0.393  53.818  1.00  0.00     0.028 A 
HETATM   11  C6  UNL     1      22.855   0.676  53.039  1.00  0.00     0.029 A 
HETATM   12  C7  UNL     1      21.522   1.063  53.035  1.00  0.00     0.002 A 
HETATM   13  C8  UNL     1      20.611   0.360  53.819  1.00  0.00     0.000 A 
HETATM   14  C9  UNL     1      21.040  -0.703  54.584  1.00  0.00     0.002 A 
HETATM   15  C10 UNL     1      22.360  -1.105  54.604  1.00  0.00     0.029 A 
ENDBRANCH   8  10
ENDBRANCH   7   8
ENDBRANCH   4   7
BRANCH   5  16
HETATM   16  N4  UNL     1      26.798   1.829  51.283  1.00  0.00    -0.340 N 
HETATM   17  H12 UNL     1      27.252   1.289  50.504  1.00  0.00     0.167 HD
BRANCH  16  18
HETATM   18  C12 UNL     1      25.973   2.776  50.618  1.00  0.00     0.035 A 
HETATM   19  C13 UNL     1      24.601   2.800  50.503  1.00  0.00     0.029 A 
HETATM   20  C14 UNL     1      23.983   3.812  49.805  1.00  0.00     0.004 A 
HETATM   21  C15 UNL     1      24.785   4.770  49.243  1.00  0.00     0.019 A 
HETATM   22  C16 UNL     1      26.160   4.805  49.319  1.00  0.00     0.013 A 
HETATM   23 BR1  UNL     1      27.092   6.214  48.476  1.00  0.00    -0.051 Br
HETATM   24  C17 UNL     1      26.760   3.763  50.037  1.00  0.00     0.048 A 
ENDBRANCH  16  18
ENDBRANCH   5  16
BRANCH   1  25
HETATM   25  N1  UNL     1      30.071   2.436  54.647  1.00  0.00    -0.231 N 
HETATM   26  H1  UNL     1      30.600   1.674  55.110  1.00  0.00     0.174 HD
HETATM   27  H2  UNL     1      30.409   3.413  54.644  1.00  0.00     0.174 HD
ENDBRANCH   1  25
TORSDOF 6
ENDMDL
MODEL 4
REMARK VINA RESULT:      -7.7      2.651      5.644
REMARK  6 active torsions:
REMARK  status: ('A' for Active; 'I' for Inactive)
REMARK    1  A    between atoms: N1_1  and  C1_2 
REMARK    2  A    between atoms: C3_5  and  C4_6 
REMARK    3  A    between atoms: C4_6  and  N3_7 
REMARK    4  A    between atoms: N3_7  and  C5_8 
REMARK    5  A    between atoms: C11_14  and  N4_15 
REMARK    6  A    between atoms: N4_15  and  C12_16 
ROOT
HETATM    1  C1  UNL     1      28.394   1.969  53.787  1.00  0.00     0.721 A 
HETATM    2  N2  UNL     1      27.516   1.240  54.497  1.00  0.00    -0.075 NA
HETATM    3  C2  UNL     1      26.305   0.932  54.029  1.00  0.00     0.149 A 
HETATM    4  C3  UNL     1      25.892   1.349  52.782  1.00  0.00     0.024 A 
HETATM    5  C11 UNL     1      26.791   2.097  52.053  1.00  0.00     0.156 A 
HETATM    6  N5  UNL     1      28.016   2.396  52.554  1.00  0.00    -0.045 NA
ENDROOT
BRANCH   4   7
HETATM    7  C4  UNL     1      24.606   1.079  52.140  1.00  0.00     0.164 C 
BRANCH   7   8
HETATM    8  N3  UNL     1      23.468   1.400  52.981  1.00  0.00    -0.385 N 
HETATM    9  H6  UNL     1      23.387   2.411  53.274  1.00  0.00     0.160 HD
BRANCH   8  10
HETATM   10  C5  UNL     1      22.509   0.436  53.399  1.00  0.00     0.028 A 
HETATM   11  C6  UNL     1      21.184   0.639  53.080  1.00  0.00     0.029 A 
HETATM   12  C7  UNL     1      20.239  -0.294  53.485  1.00  0.00     0.002 A 
HETATM   13  C8  UNL     1      20.657  -1.412  54.202  1.00  0.00     0.000 A 
HETATM   14  C9  UNL     1      21.992  -1.578  54.500  1.00  0.00     0.002 A 
HETATM   15  C10 UNL     1      22.948  -0.663  54.109  1.00  0.00     0.029 A 
ENDBRANCH   8  10
ENDBRANCH   7   8
ENDBRANCH   4   7
BRANCH   5  16
HETATM   16  N4  UNL     1      26.660   2.675  50.763  1.00  0.00    -0.340 N 
HETATM   17  H12 UNL     1      26.771   1.938  50.022  1.00  0.00     0.167 HD
BRANCH  16  18
HETATM   18  C12 UNL     1      26.433   3.873  50.033  1.00  0.00     0.035 A 
HETATM   19  C13 UNL     1      27.220   4.461  49.067  1.00  0.00     0.029 A 
HETATM   20  C14 UNL     1      26.824   5.638  48.475  1.00  0.00     0.004 A 
HETATM   21  C15 UNL     1      25.635   6.182  48.888  1.00  0.00     0.019 A 
HETATM   22  C16 UNL     1      24.804   5.647  49.847  1.00  0.00     0.013 A 
HETATM   23 BR1  UNL     1      23.202   6.548  50.280  1.00  0.00    -0.051 Br
HETATM   24  C17 UNL     1      25.233   4.449  50.430  1.00  0.00     0.048 A 
ENDBRANCH  16  18
ENDBRANCH   5  16
BRANCH   1  25
HETATM   25  N1  UNL     1      29.634   2.212  54.415  1.00  0.00    -0.231 N 
HETATM   26  H1  UNL     1      29.720   3.246  54.385  1.00  0.00     0.174 HD
HETATM   27  H2  UNL     1      30.364   1.615  54.838  1.00  0.00     0.174 HD
ENDBRANCH   1  25
TORSDOF 6
ENDMDL
MODEL 5
REMARK VINA RESULT:      -7.4      2.531      6.061
REMARK  6 active torsions:
REMARK  status: ('A' for Active; 'I' for Inactive)
REMARK    1  A    between atoms: N1_1  and  C1_2 
REMARK    2  A    between atoms: C3_5  and  C4_6 
REMARK    3  A    between atoms: C4_6  and  N3_7 
REMARK    4  A    between atoms: N3_7  and  C5_8 
REMARK    5  A    between atoms: C11_14  and  N4_15 
REMARK    6  A    between atoms: N4_15  and  C12_16 
ROOT
HETATM    1  C1  UNL     1      20.619  -0.896  53.951  1.00  0.00     0.721 A 
HETATM    2  N2  UNL     1      21.344  -1.716  54.730  1.00  0.00    -0.075 NA
HETATM    3  C2  UNL     1      22.662  -1.575  54.878  1.00  0.00     0.149 A 
HETATM    4  C3  UNL     1      23.352  -0.572  54.233  1.00  0.00     0.024 A 
HETATM    5  C11 UNL     1      22.609   0.270  53.433  1.00  0.00     0.156 A 
HETATM    6  N5  UNL     1      21.270   0.104  53.301  1.00  0.00    -0.045 NA
ENDROOT
BRANCH   4   7
HETATM    7  C4  UNL     1      24.785  -0.293  54.310  1.00  0.00     0.164 C 
BRANCH   7   8
HETATM    8  N3  UNL     1      25.537  -0.851  53.202  1.00  0.00    -0.385 N 
HETATM    9  H6  UNL     1      24.971  -1.107  52.349  1.00  0.00     0.160 HD
BRANCH   8  10
HETATM   10  C5  UNL     1      26.945  -1.052  53.236  1.00  0.00     0.028 A 
HETATM   11  C6  UNL     1      27.755  -0.003  53.612  1.00  0.00     0.029 A 
HETATM   12  C7  UNL     1      29.130  -0.187  53.646  1.00  0.00     0.002 A 
HETATM   13  C8  UNL     1      29.655  -1.429  53.300  1.00  0.00     0.000 A 
HETATM   14  C9  UNL     1      28.810  -2.453  52.930  1.00  0.00     0.002 A 
HETATM   15  C10 UNL     1      27.440  -2.292  52.888  1.00  0.00     0.029 A 
ENDBRANCH   8  10
ENDBRANCH   7   8
ENDBRANCH   4   7
BRANCH   5  16
HETATM   16  N4  UNL     1      23.024   1.373  52.641  1.00  0.00    -0.340 N 
HETATM   17  H12 UNL     1      23.429   2.127  53.251  1.00  0.00     0.167 HD
BRANCH  16  18
HETATM   18  C12 UNL     1      23.123   1.899  51.325  1.00  0.00     0.035 A 
HETATM   19  C13 UNL     1      22.218   1.820  50.289  1.00  0.00     0.029 A 
HETATM   20  C14 UNL     1      22.505   2.396  49.074  1.00  0.00     0.004 A 
HETATM   21  C15 UNL     1      23.711   3.036  48.950  1.00  0.00     0.019 A 
HETATM   22  C16 UNL     1      24.658   3.151  49.942  1.00  0.00     0.013 A 
HETATM   23 BR1  UNL     1      26.264   4.075  49.577  1.00  0.00    -0.051 Br
HETATM   24  C17 UNL     1      24.337   2.555  51.168  1.00  0.00     0.048 A 
ENDBRANCH  16  18
ENDBRANCH   5  16
BRANCH   1  25
HETATM   25  N1  UNL     1      19.236  -1.172  53.895  1.00  0.00    -0.231 N 
HETATM   26  H1  UNL     1      19.043  -1.232  52.878  1.00  0.00     0.174 HD
HETATM   27  H2  UNL     1      18.493  -1.303  54.601  1.00  0.00     0.174 HD
ENDBRANCH   1  25
TORSDOF 6
ENDMDL
MODEL 6
REMARK VINA RESULT:      -7.4      2.748      5.775
REMARK  6 active torsions:
REMARK  status: ('A' for Active; 'I' for Inactive)
REMARK    1  A    between atoms: N1_1  and  C1_2 
REMARK    2  A    between atoms: C3_5  and  C4_6 
REMARK    3  A    between atoms: C4_6  and  N3_7 
REMARK    4  A    between atoms: N3_7  and  C5_8 
REMARK    5  A    between atoms: C11_14  and  N4_15 
REMARK    6  A    between atoms: N4_15  and  C12_16 
ROOT
HETATM    1  C1  UNL     1      23.710   6.583  50.787  1.00  0.00     0.721 A 
HETATM    2  N2  UNL     1      24.824   6.678  50.041  1.00  0.00    -0.075 NA
HETATM    3  C2  UNL     1      25.647   5.645  49.859  1.00  0.00     0.149 A 
HETATM    4  C3  UNL     1      25.394   4.417  50.432  1.00  0.00     0.024 A 
HETATM    5  C11 UNL     1      24.252   4.319  51.198  1.00  0.00     0.156 A 
HETATM    6  N5  UNL     1      23.432   5.386  51.366  1.00  0.00    -0.045 NA
ENDROOT
BRANCH   4   7
HETATM    7  C4  UNL     1      26.198   3.202  50.311  1.00  0.00     0.164 C 
BRANCH   7   8
HETATM    8  N3  UNL     1      26.977   2.910  51.499  1.00  0.00    -0.385 N 
HETATM    9  H6  UNL     1      27.742   3.601  51.725  1.00  0.00     0.160 HD
BRANCH   8  10
HETATM   10  C5  UNL     1      26.747   1.775  52.325  1.00  0.00     0.028 A 
HETATM   11  C6  UNL     1      26.751   1.939  53.693  1.00  0.00     0.029 A 
HETATM   12  C7  UNL     1      26.530   0.838  54.509  1.00  0.00     0.002 A 
HETATM   13  C8  UNL     1      26.309  -0.405  53.922  1.00  0.00     0.000 A 
HETATM   14  C9  UNL     1      26.312  -0.527  52.550  1.00  0.00     0.002 A 
HETATM   15  C10 UNL     1      26.531   0.554  51.719  1.00  0.00     0.029 A 
ENDBRANCH   8  10
ENDBRANCH   7   8
ENDBRANCH   4   7
BRANCH   5  16
HETATM   16  N4  UNL     1      23.732   3.212  51.918  1.00  0.00    -0.340 N 
HETATM   17  H12 UNL     1      24.037   3.256  52.923  1.00  0.00     0.167 HD
BRANCH  16  18
HETATM   18  C12 UNL     1      22.944   2.031  51.844  1.00  0.00     0.035 A 
HETATM   19  C13 UNL     1      22.129   1.596  50.822  1.00  0.00     0.029 A 
HETATM   20  C14 UNL     1      21.437   0.413  50.946  1.00  0.00     0.004 A 
HETATM   21  C15 UNL     1      21.596  -0.290  52.111  1.00  0.00     0.019 A 
HETATM   22  C16 UNL     1      22.391   0.088  53.169  1.00  0.00     0.013 A 
HETATM   23 BR1  UNL     1      22.479  -1.020  54.696  1.00  0.00    -0.051 Br
HETATM   24  C17 UNL     1      23.084   1.295  53.014  1.00  0.00     0.048 A 
ENDBRANCH  16  18
ENDBRANCH   5  16
BRANCH   1  25
HETATM   25  N1  UNL     1      22.939   7.761  50.886  1.00  0.00    -0.231 N 
HETATM   26  H1  UNL     1      22.435   7.796  49.980  1.00  0.00     0.174 HD
HETATM   27  H2  UNL     1      22.815   8.489  51.609  1.00  0.00     0.174 HD
ENDBRANCH   1  25
TORSDOF 6
ENDMDL
MODEL 7
REMARK VINA RESULT:      -7.3      2.414      5.544
REMARK  6 active torsions:
REMARK  status: ('A' for Active; 'I' for Inactive)
REMARK    1  A    between atoms: N1_1  and  C1_2 
REMARK    2  A    between atoms: C3_5  and  C4_6 
REMARK    3  A    between atoms: C4_6  and  N3_7 
REMARK    4  A    between atoms: N3_7  and  C5_8 
REMARK    5  A    between atoms: C11_14  and  N4_15 
REMARK    6  A    between atoms: N4_15  and  C12_16 
ROOT
HETATM    1  C1  UNL     1      23.098   5.870  51.170  1.00  0.00     0.721 A 
HETATM    2  N2  UNL     1      24.067   5.930  50.241  1.00  0.00    -0.075 NA
HETATM    3  C2  UNL     1      24.967   4.957  50.090  1.00  0.00     0.149 A 
HETATM    4  C3  UNL     1      24.947   3.833  50.886  1.00  0.00     0.024 A 
HETATM    5  C11 UNL     1      23.954   3.771  51.839  1.00  0.00     0.156 A 
HETATM    6  N5  UNL     1      23.051   4.774  51.971  1.00  0.00    -0.045 NA
ENDROOT
BRANCH   4   7
HETATM    7  C4  UNL     1      25.859   2.691  50.827  1.00  0.00     0.164 C 
BRANCH   7   8
HETATM    8  N3  UNL     1      27.039   2.857  51.652  1.00  0.00    -0.385 N 
HETATM    9  H6  UNL     1      27.508   3.801  51.594  1.00  0.00     0.160 HD
BRANCH   8  10
HETATM   10  C5  UNL     1      27.554   1.833  52.495  1.00  0.00     0.028 A 
HETATM   11  C6  UNL     1      27.106   0.542  52.318  1.00  0.00     0.029 A 
HETATM   12  C7  UNL     1      27.599  -0.465  53.135  1.00  0.00     0.002 A 
HETATM   13  C8  UNL     1      28.536  -0.143  54.114  1.00  0.00     0.000 A 
HETATM   14  C9  UNL     1      28.958   1.160  54.258  1.00  0.00     0.002 A 
HETATM   15  C10 UNL     1      28.481   2.178  53.457  1.00  0.00     0.029 A 
ENDBRANCH   8  10
ENDBRANCH   7   8
ENDBRANCH   4   7
BRANCH   5  16
HETATM   16  N4  UNL     1      23.680   2.767  52.805  1.00  0.00    -0.340 N 
HETATM   17  H12 UNL     1      23.917   3.114  53.768  1.00  0.00     0.167 HD
BRANCH  16  18
HETATM   18  C12 UNL     1      23.202   1.446  53.018  1.00  0.00     0.035 A 
HETATM   19  C13 UNL     1      23.890   0.336  53.457  1.00  0.00     0.029 A 
HETATM   20  C14 UNL     1      23.242  -0.870  53.596  1.00  0.00     0.004 A 
HETATM   21  C15 UNL     1      21.909  -0.908  53.279  1.00  0.00     0.019 A 
HETATM   22  C16 UNL     1      21.164   0.161  52.835  1.00  0.00     0.013 A 
HETATM   23 BR1  UNL     1      19.332  -0.092  52.450  1.00  0.00    -0.051 Br
HETATM   24  C17 UNL     1      21.850   1.375  52.705  1.00  0.00     0.048 A 
ENDBRANCH  16  18
ENDBRANCH   5  16
BRANCH   1  25
HETATM   25  N1  UNL     1      22.220   6.975  51.207  1.00  0.00    -0.231 N 
HETATM   26  H1  UNL     1      21.893   6.989  52.192  1.00  0.00     0.174 HD
HETATM   27  H2  UNL     1      21.897   7.671  50.514  1.00  0.00     0.174 HD
ENDBRANCH   1  25
TORSDOF 6
ENDMDL
MODEL 8
REMARK VINA RESULT:      -7.3      2.334      2.932
REMARK  6 active torsions:
REMARK  status: ('A' for Active; 'I' for Inactive)
REMARK    1  A    between atoms: N1_1  and  C1_2 
REMARK    2  A    between atoms: C3_5  and  C4_6 
REMARK    3  A    between atoms: C4_6  and  N3_7 
REMARK    4  A    between atoms: N3_7  and  C5_8 
REMARK    5  A    between atoms: C11_14  and  N4_15 
REMARK    6  A    between atoms: N4_15  and  C12_16 
ROOT
HETATM    1  C1  UNL     1      27.780   0.367  54.051  1.00  0.00     0.721 A 
HETATM    2  N2  UNL     1      28.308   1.482  53.518  1.00  0.00    -0.075 NA
HETATM    3  C2  UNL     1      27.636   2.242  52.652  1.00  0.00     0.149 A 
HETATM    4  C3  UNL     1      26.356   1.919  52.257  1.00  0.00     0.024 A 
HETATM    5  C11 UNL     1      25.814   0.775  52.803  1.00  0.00     0.156 A 
HETATM    6  N5  UNL     1      26.519   0.021  53.682  1.00  0.00    -0.045 NA
ENDROOT
BRANCH   4   7
HETATM    7  C4  UNL     1      25.503   2.659  51.329  1.00  0.00     0.164 C 
BRANCH   7   8
HETATM    8  N3  UNL     1      26.124   2.889  50.039  1.00  0.00    -0.385 N 
HETATM    9  H6  UNL     1      26.491   2.029  49.548  1.00  0.00     0.160 HD
BRANCH   8  10
HETATM   10  C5  UNL     1      26.247   4.178  49.449  1.00  0.00     0.028 A 
HETATM   11  C6  UNL     1      25.138   4.993  49.404  1.00  0.00     0.029 A 
HETATM   12  C7  UNL     1      25.245   6.252  48.829  1.00  0.00     0.002 A 
HETATM   13  C8  UNL     1      26.474   6.658  48.313  1.00  0.00     0.000 A 
HETATM   14  C9  UNL     1      27.559   5.811  48.379  1.00  0.00     0.002 A 
HETATM   15  C10 UNL     1      27.475   4.555  48.945  1.00  0.00     0.029 A 
ENDBRANCH   8  10
ENDBRANCH   7   8
ENDBRANCH   4   7
BRANCH   5  16
HETATM   16  N4  UNL     1      24.544   0.178  52.590  1.00  0.00    -0.340 N 
HETATM   17  H12 UNL     1      24.460  -0.152  51.596  1.00  0.00     0.167 HD
BRANCH  16  18
HETATM   18  C12 UNL     1      23.299  -0.170  53.179  1.00  0.00     0.035 A 
HETATM   19  C13 UNL     1      23.054  -0.790  54.384  1.00  0.00     0.029 A 
HETATM   20  C14 UNL     1      21.762  -1.049  54.780  1.00  0.00     0.004 A 
HETATM   21  C15 UNL     1      20.756  -0.667  53.931  1.00  0.00     0.019 A 
HETATM   22  C16 UNL     1      20.931  -0.045  52.715  1.00  0.00     0.013 A 
HETATM   23 BR1  UNL     1      19.413   0.405  51.686  1.00  0.00    -0.051 Br
HETATM   24  C17 UNL     1      22.256   0.205  52.341  1.00  0.00     0.048 A 
ENDBRANCH  16  18
ENDBRANCH   5  16
BRANCH   1  25
HETATM   25  N1  UNL     1      28.612  -0.331  54.953  1.00  0.00    -0.231 N 
HETATM   26  H1  UNL     1      28.001  -0.480  55.778  1.00  0.00     0.174 HD
HETATM   27  H2  UNL     1      29.588  -0.668  54.928  1.00  0.00     0.174 HD
ENDBRANCH   1  25
TORSDOF 6
ENDMDL
MODEL 9
REMARK VINA RESULT:      -7.1      2.954      6.135
REMARK  6 active torsions:
REMARK  status: ('A' for Active; 'I' for Inactive)
REMARK    1  A    between atoms: N1_1  and  C1_2 
REMARK    2  A    between atoms: C3_5  and  C4_6 
REMARK    3  A    between atoms: C4_6  and  N3_7 
REMARK    4  A    between atoms: N3_7  and  C5_8 
REMARK    5  A    between atoms: C11_14  and  N4_15 
REMARK    6  A    between atoms: N4_15  and  C12_16 
ROOT
HETATM    1  C1  UNL     1      26.918   4.419  49.240  1.00  0.00     0.721 A 
HETATM    2  N2  UNL     1      25.706   4.976  49.077  1.00  0.00    -0.075 NA
HETATM    3  C2  UNL     1      24.652   4.610  49.806  1.00  0.00     0.149 A 
HETATM    4  C3  UNL     1      24.754   3.633  50.773  1.00  0.00     0.024 A 
HETATM    5  C11 UNL     1      25.996   3.060  50.940  1.00  0.00     0.156 A 
HETATM    6  N5  UNL     1      27.052   3.452  50.185  1.00  0.00    -0.045 NA
ENDROOT
BRANCH   4   7
HETATM    7  C4  UNL     1      23.691   3.140  51.649  1.00  0.00     0.164 C 
BRANCH   7   8
HETATM    8  N3  UNL     1      23.184   1.840  51.258  1.00  0.00    -0.385 N 
HETATM    9  H6  UNL     1      23.150   1.655  50.219  1.00  0.00     0.160 HD
BRANCH   8  10
HETATM   10  C5  UNL     1      22.752   0.856  52.191  1.00  0.00     0.028 A 
HETATM   11  C6  UNL     1      21.421   0.503  52.212  1.00  0.00     0.029 A 
HETATM   12  C7  UNL     1      20.987  -0.454  53.120  1.00  0.00     0.002 A 
HETATM   13  C8  UNL     1      21.912  -1.031  53.987  1.00  0.00     0.000 A 
HETATM   14  C9  UNL     1      23.234  -0.649  53.934  1.00  0.00     0.002 A 
HETATM   15  C10 UNL     1      23.687   0.300  53.040  1.00  0.00     0.029 A 
ENDBRANCH   8  10
ENDBRANCH   7   8
ENDBRANCH   4   7
BRANCH   5  16
HETATM   16  N4  UNL     1      26.414   2.036  51.830  1.00  0.00    -0.340 N 
HETATM   17  H12 UNL     1      25.674   1.293  51.902  1.00  0.00     0.167 HD
BRANCH  16  18
HETATM   18  C12 UNL     1      27.449   1.581  52.691  1.00  0.00     0.035 A 
HETATM   19  C13 UNL     1      28.227   2.304  53.568  1.00  0.00     0.029 A 
HETATM   20  C14 UNL     1      29.192   1.673  54.319  1.00  0.00     0.004 A 
HETATM   21  C15 UNL     1      29.337   0.321  54.150  1.00  0.00     0.019 A 
HETATM   22  C16 UNL     1      28.595  -0.459  53.292  1.00  0.00     0.013 A 
HETATM   23 BR1  UNL     1      28.945  -2.313  53.201  1.00  0.00    -0.051 Br
HETATM   24  C17 UNL     1      27.620   0.210  52.543  1.00  0.00     0.048 A 
ENDBRANCH  16  18
ENDBRANCH   5  16
BRANCH   1  25
HETATM   25  N1  UNL     1      27.935   4.911  48.394  1.00  0.00    -0.231 N 
HETATM   26  H1  UNL     1      27.547   5.808  48.047  1.00  0.00     0.174 HD
HETATM   27  H2  UNL     1      28.868   4.572  48.106  1.00  0.00     0.174 HD
ENDBRANCH   1  25
TORSDOF 6
ENDMDL
