MODEL 1
REMARK VINA RESULT:      -7.9      0.000      0.000
REMARK  9 active torsions:
REMARK  status: ('A' for Active; 'I' for Inactive)
REMARK    1  A    between atoms: C2_2  and  C3_3 
REMARK    2  A    between atoms: C2_2  and  C7_9 
REMARK    3  A    between atoms: C3_3  and  N1_4 
REMARK    4  A    between atoms: N1_4  and  C5_6 
REMARK    5  A    between atoms: C5_6  and  C6_7 
REMARK    6  A    between atoms: C10_12  and  N2_13 
REMARK    7  A    between atoms: C15_20  and  N3_21 
REMARK    8  A    between atoms: C21_29  and  O1_30 
REMARK    9  A    between atoms: O1_30  and  C22_31 
ROOT
HETATM    1  C7  UNL     1      24.816   0.621  53.033  1.00  0.00    -0.018 A 
HETATM    2  C8  UNL     1      24.273   1.705  52.333  1.00  0.00     0.026 A 
HETATM    3  C9  UNL     1      22.902   1.993  52.361  1.00  0.00     0.022 A 
HETATM    4  C10 UNL     1      22.414   3.071  51.653  1.00  0.00     0.075 A 
HETATM    5  C16 UNL     1      21.066   3.325  51.702  1.00  0.00     0.090 A 
HETATM    6  C17 UNL     1      20.544   4.453  50.967  1.00  0.00     0.103 C 
HETATM    7  N4  UNL     1      20.122   5.377  50.389  1.00  0.00    -0.191 NA
HETATM    8  C18 UNL     1      20.236   2.502  52.452  1.00  0.00     0.142 A 
HETATM    9  N5  UNL     1      20.720   1.438  53.150  1.00  0.00    -0.259 NA
HETATM   10  C19 UNL     1      22.039   1.212  53.085  1.00  0.00     0.071 A 
HETATM   11  C20 UNL     1      22.530   0.135  53.792  1.00  0.00     0.069 A 
HETATM   12  C21 UNL     1      23.884  -0.108  53.733  1.00  0.00     0.077 A 
ENDROOT
BRANCH   4  13
HETATM   13  N2  UNL     1      23.252   3.924  50.877  1.00  0.00    -0.305 N 
HETATM   14  C11 UNL     1      23.402   3.398  49.565  1.00  0.00     0.098 A 
HETATM   15  C12 UNL     1      24.141   4.015  48.636  1.00  0.00     0.033 A 
HETATM   16  C13 UNL     1      24.848   5.300  48.953  1.00  0.00     0.243 A 
HETATM   17  F2  UNL     1      26.180   5.215  48.601  1.00  0.00    -0.239 F 
HETATM   18  C14 UNL     1      24.629   5.756  50.328  1.00  0.00     0.093 A 
HETATM   19 CL1  UNL     1      25.397   7.241  50.821  1.00  0.00    -0.082 Cl
HETATM   20  C15 UNL     1      23.898   5.137  51.231  1.00  0.00     0.127 A 
BRANCH  20  21
HETATM   21  N3  UNL     1      23.664   5.540  52.565  1.00  0.00    -0.384 N 
HETATM   22  H16 UNL     1      23.001   6.347  52.366  1.00  0.00     0.157 HD
HETATM   23  H17 UNL     1      24.168   4.972  53.282  1.00  0.00     0.157 HD
ENDBRANCH  20  21
ENDBRANCH   4  13
BRANCH   1  24
HETATM   24  C2  UNL     1      26.246   0.303  53.019  1.00  0.00    -0.006 C 
HETATM   25  C1  UNL     1      26.535  -0.222  51.842  1.00  0.00     0.056 C 
BRANCH  24  26
HETATM   26  C3  UNL     1      27.113   0.576  54.172  1.00  0.00     0.126 C 
BRANCH  26  27
HETATM   27  N1  UNL     1      28.309   1.254  53.899  1.00  0.00    -0.414 N 
HETATM   28  C4  UNL     1      28.290   2.569  53.394  1.00  0.00     0.143 C 
BRANCH  27  29
HETATM   29  C5  UNL     1      29.514   0.550  53.753  1.00  0.00     0.147 C 
BRANCH  29  30
HETATM   30  C6  UNL     1      29.425  -0.932  54.040  1.00  0.00     0.241 C 
HETATM   31  F1  UNL     1      29.615  -1.728  52.950  1.00  0.00    -0.254 F 
ENDBRANCH  29  30
ENDBRANCH  27  29
ENDBRANCH  26  27
ENDBRANCH  24  26
ENDBRANCH   1  24
BRANCH  12  32
HETATM   32  O1  UNL     1      24.373  -1.164  54.423  1.00  0.00    -0.351 OA
BRANCH  32  33
HETATM   33  C22 UNL     1      24.184  -1.563  55.729  1.00  0.00     0.171 C 
HETATM   34  C23 UNL     1      25.085  -0.861  56.736  1.00  0.00     0.034 C 
ENDBRANCH  32  33
ENDBRANCH  12  32
TORSDOF 9
ENDMDL
MODEL 2
REMARK VINA RESULT:      -7.6      1.503      2.065
REMARK  9 active torsions:
REMARK  status: ('A' for Active; 'I' for Inactive)
REMARK    1  A    between atoms: C2_2  and  C3_3 
REMARK    2  A    between atoms: C2_2  and  C7_9 
REMARK    3  A    between atoms: C3_3  and  N1_4 
REMARK    4  A    between atoms: N1_4  and  C5_6 
REMARK    5  A    between atoms: C5_6  and  C6_7 
REMARK    6  A    between atoms: C10_12  and  N2_13 
REMARK    7  A    between atoms: C15_20  and  N3_21 
REMARK    8  A    between atoms: C21_29  and  O1_30 
REMARK    9  A    between atoms: O1_30  and  C22_31 
ROOT
HETATM    1  C7  UNL     1      24.718   2.243  52.283  1.00  0.00    -0.018 A 
HETATM    2  C8  UNL     1      24.390   3.414  51.589  1.00  0.00     0.026 A 
HETATM    3  C9  UNL     1      23.064   3.850  51.457  1.00  0.00     0.022 A 
HETATM    4  C10 UNL     1      22.792   5.009  50.763  1.00  0.00     0.075 A 
HETATM    5  C16 UNL     1      21.482   5.408  50.653  1.00  0.00     0.090 A 
HETATM    6  C17 UNL     1      21.184   6.622  49.930  1.00  0.00     0.103 C 
HETATM    7  N4  UNL     1      20.942   7.615  49.363  1.00  0.00    -0.191 NA
HETATM    8  C18 UNL     1      20.478   4.645  51.234  1.00  0.00     0.142 A 
HETATM    9  N5  UNL     1      20.750   3.500  51.919  1.00  0.00    -0.259 NA
HETATM   10  C19 UNL     1      22.035   3.134  52.011  1.00  0.00     0.071 A 
HETATM   11  C20 UNL     1      22.311   1.975  52.705  1.00  0.00     0.069 A 
HETATM   12  C21 UNL     1      23.629   1.587  52.807  1.00  0.00     0.077 A 
ENDROOT
BRANCH   4  13
HETATM   13  N2  UNL     1      23.810   5.802  50.160  1.00  0.00    -0.305 N 
HETATM   14  C11 UNL     1      23.919   5.487  48.778  1.00  0.00     0.098 A 
HETATM   15  C12 UNL     1      24.804   6.096  47.981  1.00  0.00     0.033 A 
HETATM   16  C13 UNL     1      25.725   7.148  48.527  1.00  0.00     0.243 A 
HETATM   17  F2  UNL     1      27.032   6.866  48.183  1.00  0.00    -0.239 F 
HETATM   18  C14 UNL     1      25.533   7.398  49.958  1.00  0.00     0.093 A 
HETATM   19 CL1  UNL     1      26.543   8.600  50.713  1.00  0.00    -0.082 Cl
HETATM   20  C15 UNL     1      24.656   6.788  50.729  1.00  0.00     0.127 A 
BRANCH  20  21
HETATM   21  N3  UNL     1      24.441   6.998  52.109  1.00  0.00    -0.384 N 
HETATM   22  H16 UNL     1      25.061   6.218  52.480  1.00  0.00     0.157 HD
HETATM   23  H17 UNL     1      23.794   7.787  52.330  1.00  0.00     0.157 HD
ENDBRANCH  20  21
ENDBRANCH   4  13
BRANCH   1  24
HETATM   24  C2  UNL     1      26.096   1.769  52.435  1.00  0.00    -0.006 C 
HETATM   25  C1  UNL     1      26.429   1.123  51.332  1.00  0.00     0.056 C 
BRANCH  24  26
HETATM   26  C3  UNL     1      26.878   2.037  53.648  1.00  0.00     0.126 C 
BRANCH  26  27
HETATM   27  N1  UNL     1      27.518   0.932  54.228  1.00  0.00    -0.414 N 
HETATM   28  C4  UNL     1      26.822   0.082  55.109  1.00  0.00     0.143 C 
BRANCH  27  29
HETATM   29  C5  UNL     1      28.918   0.851  54.263  1.00  0.00     0.147 C 
BRANCH  29  30
HETATM   30  C6  UNL     1      29.486  -0.517  53.958  1.00  0.00     0.241 C 
HETATM   31  F1  UNL     1      28.944  -1.119  52.862  1.00  0.00    -0.254 F 
ENDBRANCH  29  30
ENDBRANCH  27  29
ENDBRANCH  26  27
ENDBRANCH  24  26
ENDBRANCH   1  24
BRANCH  12  32
HETATM   32  O1  UNL     1      23.908   0.450  53.486  1.00  0.00    -0.351 OA
BRANCH  32  33
HETATM   33  C22 UNL     1      23.264  -0.768  53.524  1.00  0.00     0.171 C 
HETATM   34  C23 UNL     1      22.550  -1.060  54.836  1.00  0.00     0.034 C 
ENDBRANCH  32  33
ENDBRANCH  12  32
TORSDOF 9
ENDMDL
MODEL 3
REMARK VINA RESULT:      -7.5      3.065      5.343
REMARK  9 active torsions:
REMARK  status: ('A' for Active; 'I' for Inactive)
REMARK    1  A    between atoms: C2_2  and  C3_3 
REMARK    2  A    between atoms: C2_2  and  C7_9 
REMARK    3  A    between atoms: C3_3  and  N1_4 
REMARK    4  A    between atoms: N1_4  and  C5_6 
REMARK    5  A    between atoms: C5_6  and  C6_7 
REMARK    6  A    between atoms: C10_12  and  N2_13 
REMARK    7  A    between atoms: C15_20  and  N3_21 
REMARK    8  A    between atoms: C21_29  and  O1_30 
REMARK    9  A    between atoms: O1_30  and  C22_31 
ROOT
HETATM    1  C7  UNL     1      24.890   0.536  52.628  1.00  0.00    -0.018 A 
HETATM    2  C8  UNL     1      24.247   1.548  51.906  1.00  0.00     0.026 A 
HETATM    3  C9  UNL     1      24.955   2.443  51.093  1.00  0.00     0.022 A 
HETATM    4  C10 UNL     1      24.278   3.425  50.403  1.00  0.00     0.075 A 
HETATM    5  C16 UNL     1      25.002   4.285  49.615  1.00  0.00     0.090 A 
HETATM    6  C17 UNL     1      24.303   5.316  48.885  1.00  0.00     0.103 C 
HETATM    7  N4  UNL     1      23.737   6.138  48.278  1.00  0.00    -0.191 NA
HETATM    8  C18 UNL     1      26.382   4.149  49.535  1.00  0.00     0.142 A 
HETATM    9  N5  UNL     1      27.050   3.178  50.218  1.00  0.00    -0.259 NA
HETATM   10  C19 UNL     1      26.318   2.353  50.979  1.00  0.00     0.071 A 
HETATM   11  C20 UNL     1      26.994   1.370  51.670  1.00  0.00     0.069 A 
HETATM   12  C21 UNL     1      26.254   0.515  52.457  1.00  0.00     0.077 A 
ENDROOT
BRANCH   4  13
HETATM   13  N2  UNL     1      22.863   3.579  50.476  1.00  0.00    -0.305 N 
HETATM   14  C11 UNL     1      22.521   4.442  51.553  1.00  0.00     0.098 A 
HETATM   15  C12 UNL     1      21.251   4.753  51.836  1.00  0.00     0.033 A 
HETATM   16  C13 UNL     1      20.128   4.192  51.014  1.00  0.00     0.243 A 
HETATM   17  F2  UNL     1      19.178   3.614  51.832  1.00  0.00    -0.239 F 
HETATM   18  C14 UNL     1      20.585   3.317  49.932  1.00  0.00     0.093 A 
HETATM   19 CL1  UNL     1      19.374   2.602  48.902  1.00  0.00    -0.082 Cl
HETATM   20  C15 UNL     1      21.840   3.021  49.667  1.00  0.00     0.127 A 
BRANCH  20  21
HETATM   21  N3  UNL     1      22.322   2.182  48.637  1.00  0.00    -0.384 N 
HETATM   22  H16 UNL     1      21.479   2.234  47.992  1.00  0.00     0.157 HD
HETATM   23  H17 UNL     1      23.279   1.798  48.805  1.00  0.00     0.157 HD
ENDBRANCH  20  21
ENDBRANCH   4  13
BRANCH   1  24
HETATM   24  C2  UNL     1      24.168  -0.411  53.482  1.00  0.00    -0.006 C 
HETATM   25  C1  UNL     1      24.801  -0.480  54.640  1.00  0.00     0.056 C 
BRANCH  24  26
HETATM   26  C3  UNL     1      22.955  -1.099  53.025  1.00  0.00     0.126 C 
BRANCH  26  27
HETATM   27  N1  UNL     1      21.750  -0.679  53.606  1.00  0.00    -0.414 N 
HETATM   28  C4  UNL     1      20.979  -1.569  54.380  1.00  0.00     0.143 C 
BRANCH  27  29
HETATM   29  C5  UNL     1      21.093   0.470  53.142  1.00  0.00     0.147 C 
BRANCH  29  30
HETATM   30  C6  UNL     1      20.268   0.272  51.889  1.00  0.00     0.241 C 
HETATM   31  F1  UNL     1      21.002   0.048  50.763  1.00  0.00    -0.254 F 
ENDBRANCH  29  30
ENDBRANCH  27  29
ENDBRANCH  26  27
ENDBRANCH  24  26
ENDBRANCH   1  24
BRANCH  12  32
HETATM   32  O1  UNL     1      26.910  -0.452  53.139  1.00  0.00    -0.351 OA
BRANCH  32  33
HETATM   33  C22 UNL     1      28.225  -0.550  53.540  1.00  0.00     0.171 C 
HETATM   34  C23 UNL     1      28.549   0.205  54.821  1.00  0.00     0.034 C 
ENDBRANCH  32  33
ENDBRANCH  12  32
TORSDOF 9
ENDMDL
MODEL 4
REMARK VINA RESULT:      -7.2      2.727      4.487
REMARK  9 active torsions:
REMARK  status: ('A' for Active; 'I' for Inactive)
REMARK    1  A    between atoms: C2_2  and  C3_3 
REMARK    2  A    between atoms: C2_2  and  C7_9 
REMARK    3  A    between atoms: C3_3  and  N1_4 
REMARK    4  A    between atoms: N1_4  and  C5_6 
REMARK    5  A    between atoms: C5_6  and  C6_7 
REMARK    6  A    between atoms: C10_12  and  N2_13 
REMARK    7  A    between atoms: C15_20  and  N3_21 
REMARK    8  A    between atoms: C21_29  and  O1_30 
REMARK    9  A    between atoms: O1_30  and  C22_31 
ROOT
HETATM    1  C7  UNL     1      25.538   1.308  52.122  1.00  0.00    -0.018 A 
HETATM    2  C8  UNL     1      24.171   1.361  51.819  1.00  0.00     0.026 A 
HETATM    3  C9  UNL     1      23.234   0.558  52.484  1.00  0.00     0.022 A 
HETATM    4  C10 UNL     1      21.900   0.644  52.149  1.00  0.00     0.075 A 
HETATM    5  C16 UNL     1      21.008  -0.156  52.820  1.00  0.00     0.090 A 
HETATM    6  C17 UNL     1      19.607  -0.073  52.480  1.00  0.00     0.103 C 
HETATM    7  N4  UNL     1      18.471   0.007  52.220  1.00  0.00    -0.191 NA
HETATM    8  C18 UNL     1      21.464  -1.022  53.805  1.00  0.00     0.142 A 
HETATM    9  N5  UNL     1      22.783  -1.106  54.134  1.00  0.00    -0.259 NA
HETATM   10  C19 UNL     1      23.632  -0.314  53.464  1.00  0.00     0.071 A 
HETATM   11  C20 UNL     1      24.967  -0.398  53.796  1.00  0.00     0.069 A 
HETATM   12  C21 UNL     1      25.850   0.410  53.115  1.00  0.00     0.077 A 
ENDROOT
BRANCH   4  13
HETATM   13  N2  UNL     1      21.416   1.526  51.140  1.00  0.00    -0.305 N 
HETATM   14  C11 UNL     1      21.406   0.867  49.880  1.00  0.00     0.098 A 
HETATM   15  C12 UNL     1      20.991   1.479  48.765  1.00  0.00     0.033 A 
HETATM   16  C13 UNL     1      20.515   2.901  48.807  1.00  0.00     0.243 A 
HETATM   17  F2  UNL     1      21.165   3.653  47.848  1.00  0.00    -0.239 F 
HETATM   18  C14 UNL     1      20.565   3.488  50.149  1.00  0.00     0.093 A 
HETATM   19 CL1  UNL     1      20.036   5.139  50.332  1.00  0.00    -0.082 Cl
HETATM   20  C15 UNL     1      20.976   2.871  51.237  1.00  0.00     0.127 A 
BRANCH  20  21
HETATM   21  N3  UNL     1      21.041   3.400  52.546  1.00  0.00    -0.384 N 
HETATM   22  H16 UNL     1      20.033   3.725  52.629  1.00  0.00     0.157 HD
HETATM   23  H17 UNL     1      21.979   3.318  52.998  1.00  0.00     0.157 HD
ENDBRANCH  20  21
ENDBRANCH   4  13
BRANCH   1  24
HETATM   24  C2  UNL     1      26.534   2.139  51.442  1.00  0.00    -0.006 C 
HETATM   25  C1  UNL     1      27.407   2.550  52.344  1.00  0.00     0.056 C 
BRANCH  24  26
HETATM   26  C3  UNL     1      26.475   2.393  49.997  1.00  0.00     0.126 C 
BRANCH  26  27
HETATM   27  N1  UNL     1      26.320   3.732  49.610  1.00  0.00    -0.414 N 
HETATM   28  C4  UNL     1      27.373   4.422  48.977  1.00  0.00     0.143 C 
BRANCH  27  29
HETATM   29  C5  UNL     1      25.301   4.523  50.160  1.00  0.00     0.147 C 
BRANCH  29  30
HETATM   30  C6  UNL     1      23.973   4.443  49.441  1.00  0.00     0.241 C 
HETATM   31  F1  UNL     1      23.749   3.257  48.806  1.00  0.00    -0.254 F 
ENDBRANCH  29  30
ENDBRANCH  27  29
ENDBRANCH  26  27
ENDBRANCH  24  26
ENDBRANCH   1  24
BRANCH  12  32
HETATM   32  O1  UNL     1      27.162   0.333  53.435  1.00  0.00    -0.351 OA
BRANCH  32  33
HETATM   33  C22 UNL     1      27.985  -0.753  53.644  1.00  0.00     0.171 C 
HETATM   34  C23 UNL     1      29.463  -0.407  53.766  1.00  0.00     0.034 C 
ENDBRANCH  32  33
ENDBRANCH  12  32
TORSDOF 9
ENDMDL
MODEL 5
REMARK VINA RESULT:      -7.0      2.939      5.146
REMARK  9 active torsions:
REMARK  status: ('A' for Active; 'I' for Inactive)
REMARK    1  A    between atoms: C2_2  and  C3_3 
REMARK    2  A    between atoms: C2_2  and  C7_9 
REMARK    3  A    between atoms: C3_3  and  N1_4 
REMARK    4  A    between atoms: N1_4  and  C5_6 
REMARK    5  A    between atoms: C5_6  and  C6_7 
REMARK    6  A    between atoms: C10_12  and  N2_13 
REMARK    7  A    between atoms: C15_20  and  N3_21 
REMARK    8  A    between atoms: C21_29  and  O1_30 
REMARK    9  A    between atoms: O1_30  and  C22_31 
ROOT
HETATM    1  C7  UNL     1      23.955   2.220  51.142  1.00  0.00    -0.018 A 
HETATM    2  C8  UNL     1      23.815   3.412  50.421  1.00  0.00     0.026 A 
HETATM    3  C9  UNL     1      24.919   4.081  49.875  1.00  0.00     0.022 A 
HETATM    4  C10 UNL     1      24.730   5.252  49.173  1.00  0.00     0.075 A 
HETATM    5  C16 UNL     1      25.833   5.883  48.651  1.00  0.00     0.090 A 
HETATM    6  C17 UNL     1      25.648   7.109  47.912  1.00  0.00     0.103 C 
HETATM    7  N4  UNL     1      25.499   8.091  47.296  1.00  0.00    -0.191 NA
HETATM    8  C18 UNL     1      27.095   5.334  48.840  1.00  0.00     0.142 A 
HETATM    9  N5  UNL     1      27.279   4.177  49.534  1.00  0.00    -0.259 NA
HETATM   10  C19 UNL     1      26.186   3.582  50.033  1.00  0.00     0.071 A 
HETATM   11  C20 UNL     1      26.371   2.411  50.735  1.00  0.00     0.069 A 
HETATM   12  C21 UNL     1      25.257   1.790  51.253  1.00  0.00     0.077 A 
ENDROOT
BRANCH   4  13
HETATM   13  N2  UNL     1      23.443   5.829  48.972  1.00  0.00    -0.305 N 
HETATM   14  C11 UNL     1      22.881   5.355  47.755  1.00  0.00     0.098 A 
HETATM   15  C12 UNL     1      21.673   5.745  47.334  1.00  0.00     0.033 A 
HETATM   16  C13 UNL     1      20.858   6.711  48.144  1.00  0.00     0.243 A 
HETATM   17  F2  UNL     1      20.430   7.758  47.353  1.00  0.00    -0.239 F 
HETATM   18  C14 UNL     1      21.525   7.138  49.377  1.00  0.00     0.093 A 
HETATM   19 CL1  UNL     1      20.680   8.261  50.408  1.00  0.00    -0.082 Cl
HETATM   20  C15 UNL     1      22.716   6.744  49.776  1.00  0.00     0.127 A 
BRANCH  20  21
HETATM   21  N3  UNL     1      23.394   7.132  50.954  1.00  0.00    -0.384 N 
HETATM   22  H16 UNL     1      22.600   6.980  51.644  1.00  0.00     0.157 HD
HETATM   23  H17 UNL     1      24.386   7.425  50.804  1.00  0.00     0.157 HD
ENDBRANCH  20  21
ENDBRANCH   4  13
BRANCH   1  24
HETATM   24  C2  UNL     1      22.816   1.503  51.720  1.00  0.00    -0.006 C 
HETATM   25  C1  UNL     1      22.117   0.981  50.728  1.00  0.00     0.056 C 
BRANCH  24  26
HETATM   26  C3  UNL     1      22.596   1.436  53.170  1.00  0.00     0.126 C 
BRANCH  26  27
HETATM   27  N1  UNL     1      22.039   0.245  53.657  1.00  0.00    -0.414 N 
HETATM   28  C4  UNL     1      20.802   0.255  54.330  1.00  0.00     0.143 C 
BRANCH  27  29
HETATM   29  C5  UNL     1      22.834  -0.897  53.834  1.00  0.00     0.147 C 
BRANCH  29  30
HETATM   30  C6  UNL     1      22.773  -1.508  55.216  1.00  0.00     0.241 C 
HETATM   31  F1  UNL     1      23.842  -1.214  56.008  1.00  0.00    -0.254 F 
ENDBRANCH  29  30
ENDBRANCH  27  29
ENDBRANCH  26  27
ENDBRANCH  24  26
ENDBRANCH   1  24
BRANCH  12  32
HETATM   32  O1  UNL     1      25.431   0.640  51.944  1.00  0.00    -0.351 OA
BRANCH  32  33
HETATM   33  C22 UNL     1      26.574  -0.030  52.323  1.00  0.00     0.171 C 
HETATM   34  C23 UNL     1      26.618  -0.413  53.796  1.00  0.00     0.034 C 
ENDBRANCH  32  33
ENDBRANCH  12  32
TORSDOF 9
ENDMDL
MODEL 6
REMARK VINA RESULT:      -6.9      6.245      9.900
REMARK  9 active torsions:
REMARK  status: ('A' for Active; 'I' for Inactive)
REMARK    1  A    between atoms: C2_2  and  C3_3 
REMARK    2  A    between atoms: C2_2  and  C7_9 
REMARK    3  A    between atoms: C3_3  and  N1_4 
REMARK    4  A    between atoms: N1_4  and  C5_6 
REMARK    5  A    between atoms: C5_6  and  C6_7 
REMARK    6  A    between atoms: C10_12  and  N2_13 
REMARK    7  A    between atoms: C15_20  and  N3_21 
REMARK    8  A    between atoms: C21_29  and  O1_30 
REMARK    9  A    between atoms: O1_30  and  C22_31 
ROOT
HETATM    1  C7  UNL     1      26.460   6.886  48.779  1.00  0.00    -0.018 A 
HETATM    2  C8  UNL     1      27.599   7.611  48.411  1.00  0.00     0.026 A 
HETATM    3  C9  UNL     1      28.824   6.984  48.148  1.00  0.00     0.022 A 
HETATM    4  C10 UNL     1      29.918   7.741  47.791  1.00  0.00     0.075 A 
HETATM    5  C16 UNL     1      31.104   7.095  47.540  1.00  0.00     0.090 A 
HETATM    6  C17 UNL     1      32.256   7.878  47.162  1.00  0.00     0.103 C 
HETATM    7  N4  UNL     1      33.186   8.507  46.837  1.00  0.00    -0.191 NA
HETATM    8  C18 UNL     1      31.171   5.712  47.651  1.00  0.00     0.142 A 
HETATM    9  N5  UNL     1      30.089   4.965  48.004  1.00  0.00    -0.259 NA
HETATM   10  C19 UNL     1      28.945   5.622  48.244  1.00  0.00     0.071 A 
HETATM   11  C20 UNL     1      27.849   4.866  48.601  1.00  0.00     0.069 A 
HETATM   12  C21 UNL     1      26.668   5.528  48.851  1.00  0.00     0.077 A 
ENDROOT
BRANCH   4  13
HETATM   13  N2  UNL     1      29.866   9.161  47.674  1.00  0.00    -0.305 N 
HETATM   14  C11 UNL     1      29.463   9.528  46.361  1.00  0.00     0.098 A 
HETATM   15  C12 UNL     1      29.334  10.807  45.992  1.00  0.00     0.033 A 
HETATM   16  C13 UNL     1      29.614  11.914  46.966  1.00  0.00     0.243 A 
HETATM   17  F2  UNL     1      30.490  12.827  46.415  1.00  0.00    -0.239 F 
HETATM   18  C14 UNL     1      30.022  11.431  48.288  1.00  0.00     0.093 A 
HETATM   19 CL1  UNL     1      30.375  12.621  49.512  1.00  0.00    -0.082 Cl
HETATM   20  C15 UNL     1      30.144  10.167  48.635  1.00  0.00     0.127 A 
BRANCH  20  21
HETATM   21  N3  UNL     1      30.535   9.660  49.895  1.00  0.00    -0.384 N 
HETATM   22  H16 UNL     1      30.113   8.688  49.806  1.00  0.00     0.157 HD
HETATM   23  H17 UNL     1      31.074  10.335  50.483  1.00  0.00     0.157 HD
ENDBRANCH  20  21
ENDBRANCH   4  13
BRANCH   1  24
HETATM   24  C2  UNL     1      25.169   7.521  49.057  1.00  0.00    -0.006 C 
HETATM   25  C1  UNL     1      25.050   7.645  50.367  1.00  0.00     0.056 C 
BRANCH  24  26
HETATM   26  C3  UNL     1      24.253   7.918  47.982  1.00  0.00     0.126 C 
BRANCH  26  27
HETATM   27  N1  UNL     1      24.114   9.296  47.765  1.00  0.00    -0.414 N 
HETATM   28  C4  UNL     1      22.852   9.915  47.869  1.00  0.00     0.143 C 
BRANCH  27  29
HETATM   29  C5  UNL     1      25.105  10.018  47.083  1.00  0.00     0.147 C 
BRANCH  29  30
HETATM   30  C6  UNL     1      25.751  11.127  47.884  1.00  0.00     0.241 C 
HETATM   31  F1  UNL     1      26.714  10.705  48.751  1.00  0.00    -0.254 F 
ENDBRANCH  29  30
ENDBRANCH  27  29
ENDBRANCH  26  27
ENDBRANCH  24  26
ENDBRANCH   1  24
BRANCH  12  32
HETATM   32  O1  UNL     1      25.587   4.794  49.203  1.00  0.00    -0.351 OA
BRANCH  32  33
HETATM   33  C22 UNL     1      25.421   3.827  50.171  1.00  0.00     0.171 C 
HETATM   34  C23 UNL     1      24.169   3.997  51.020  1.00  0.00     0.034 C 
ENDBRANCH  32  33
ENDBRANCH  12  32
TORSDOF 9
ENDMDL
MODEL 7
REMARK VINA RESULT:      -6.8      1.822      2.027
REMARK  9 active torsions:
REMARK  status: ('A' for Active; 'I' for Inactive)
REMARK    1  A    between atoms: C2_2  and  C3_3 
REMARK    2  A    between atoms: C2_2  and  C7_9 
REMARK    3  A    between atoms: C3_3  and  N1_4 
REMARK    4  A    between atoms: N1_4  and  C5_6 
REMARK    5  A    between atoms: C5_6  and  C6_7 
REMARK    6  A    between atoms: C10_12  and  N2_13 
REMARK    7  A    between atoms: C15_20  and  N3_21 
REMARK    8  A    between atoms: C21_29  and  O1_30 
REMARK    9  A    between atoms: O1_30  and  C22_31 
ROOT
HETATM    1  C7  UNL     1      24.223   1.117  52.448  1.00  0.00    -0.018 A 
HETATM    2  C8  UNL     1      23.293   1.752  51.615  1.00  0.00     0.026 A 
HETATM    3  C9  UNL     1      21.958   1.333  51.539  1.00  0.00     0.022 A 
HETATM    4  C10 UNL     1      21.081   1.989  50.703  1.00  0.00     0.075 A 
HETATM    5  C16 UNL     1      19.780   1.553  50.653  1.00  0.00     0.090 A 
HETATM    6  C17 UNL     1      18.851   2.234  49.783  1.00  0.00     0.103 C 
HETATM    7  N4  UNL     1      18.093   2.797  49.094  1.00  0.00    -0.191 NA
HETATM    8  C18 UNL     1      19.384   0.476  51.435  1.00  0.00     0.142 A 
HETATM    9  N5  UNL     1      20.252  -0.172  52.260  1.00  0.00    -0.259 NA
HETATM   10  C19 UNL     1      21.516   0.275  52.290  1.00  0.00     0.071 A 
HETATM   11  C20 UNL     1      22.395  -0.380  53.125  1.00  0.00     0.069 A 
HETATM   12  C21 UNL     1      23.697   0.068  53.164  1.00  0.00     0.077 A 
ENDROOT
BRANCH   4  13
HETATM   13  N2  UNL     1      21.472   3.095  49.894  1.00  0.00    -0.305 N 
HETATM   14  C11 UNL     1      21.925   2.636  48.627  1.00  0.00     0.098 A 
HETATM   15  C12 UNL     1      22.348   3.479  47.678  1.00  0.00     0.033 A 
HETATM   16  C13 UNL     1      22.358   4.960  47.923  1.00  0.00     0.243 A 
HETATM   17  F2  UNL     1      23.596   5.488  47.618  1.00  0.00    -0.239 F 
HETATM   18  C14 UNL     1      21.873   5.329  49.256  1.00  0.00     0.093 A 
HETATM   19 CL1  UNL     1      21.835   7.022  49.665  1.00  0.00    -0.082 Cl
HETATM   20  C15 UNL     1      21.460   4.485  50.179  1.00  0.00     0.127 A 
BRANCH  20  21
HETATM   21  N3  UNL     1      20.988   4.798  51.473  1.00  0.00    -0.384 N 
HETATM   22  H16 UNL     1      20.903   3.807  51.848  1.00  0.00     0.157 HD
HETATM   23  H17 UNL     1      20.875   5.820  51.656  1.00  0.00     0.157 HD
ENDBRANCH  20  21
ENDBRANCH   4  13
BRANCH   1  24
HETATM   24  C2  UNL     1      25.622   1.540  52.543  1.00  0.00    -0.006 C 
HETATM   25  C1  UNL     1      26.119   1.585  51.319  1.00  0.00     0.056 C 
BRANCH  24  26
HETATM   26  C3  UNL     1      26.254   1.844  53.832  1.00  0.00     0.126 C 
BRANCH  26  27
HETATM   27  N1  UNL     1      27.607   1.494  53.956  1.00  0.00    -0.414 N 
HETATM   28  C4  UNL     1      28.619   2.425  53.651  1.00  0.00     0.143 C 
BRANCH  27  29
HETATM   29  C5  UNL     1      27.996   0.148  54.010  1.00  0.00     0.147 C 
BRANCH  29  30
HETATM   30  C6  UNL     1      29.395  -0.132  53.507  1.00  0.00     0.241 C 
HETATM   31  F1  UNL     1      30.065  -1.086  54.213  1.00  0.00    -0.254 F 
ENDBRANCH  29  30
ENDBRANCH  27  29
ENDBRANCH  26  27
ENDBRANCH  24  26
ENDBRANCH   1  24
BRANCH  12  32
HETATM   32  O1  UNL     1      24.566  -0.570  53.981  1.00  0.00    -0.351 OA
BRANCH  32  33
HETATM   33  C22 UNL     1      24.368  -1.270  55.152  1.00  0.00     0.171 C 
HETATM   34  C23 UNL     1      25.205  -0.779  56.326  1.00  0.00     0.034 C 
ENDBRANCH  32  33
ENDBRANCH  12  32
TORSDOF 9
ENDMDL
MODEL 8
REMARK VINA RESULT:      -6.8      3.259      5.770
REMARK  9 active torsions:
REMARK  status: ('A' for Active; 'I' for Inactive)
REMARK    1  A    between atoms: C2_2  and  C3_3 
REMARK    2  A    between atoms: C2_2  and  C7_9 
REMARK    3  A    between atoms: C3_3  and  N1_4 
REMARK    4  A    between atoms: N1_4  and  C5_6 
REMARK    5  A    between atoms: C5_6  and  C6_7 
REMARK    6  A    between atoms: C10_12  and  N2_13 
REMARK    7  A    between atoms: C15_20  and  N3_21 
REMARK    8  A    between atoms: C21_29  and  O1_30 
REMARK    9  A    between atoms: O1_30  and  C22_31 
ROOT
HETATM    1  C7  UNL     1      22.506   1.386  51.907  1.00  0.00    -0.018 A 
HETATM    2  C8  UNL     1      22.812   2.524  51.151  1.00  0.00     0.026 A 
HETATM    3  C9  UNL     1      24.135   2.886  50.861  1.00  0.00     0.022 A 
HETATM    4  C10 UNL     1      24.386   4.017  50.115  1.00  0.00     0.075 A 
HETATM    5  C16 UNL     1      25.693   4.344  49.848  1.00  0.00     0.090 A 
HETATM    6  C17 UNL     1      25.969   5.524  49.064  1.00  0.00     0.103 C 
HETATM    7  N4  UNL     1      26.194   6.469  48.414  1.00  0.00    -0.191 NA
HETATM    8  C18 UNL     1      26.716   3.539  50.331  1.00  0.00     0.142 A 
HETATM    9  N5  UNL     1      26.466   2.423  51.070  1.00  0.00    -0.259 NA
HETATM   10  C19 UNL     1      25.182   2.127  51.315  1.00  0.00     0.071 A 
HETATM   11  C20 UNL     1      24.928   0.997  52.062  1.00  0.00     0.069 A 
HETATM   12  C21 UNL     1      23.612   0.682  52.321  1.00  0.00     0.077 A 
ENDROOT
BRANCH   4  13
HETATM   13  N2  UNL     1      23.347   4.854  49.613  1.00  0.00    -0.305 N 
HETATM   14  C11 UNL     1      22.977   4.440  48.304  1.00  0.00     0.098 A 
HETATM   15  C12 UNL     1      22.018   5.063  47.610  1.00  0.00     0.033 A 
HETATM   16  C13 UNL     1      21.291   6.237  48.197  1.00  0.00     0.243 A 
HETATM   17  F2  UNL     1      21.307   7.300  47.316  1.00  0.00    -0.239 F 
HETATM   18  C14 UNL     1      21.747   6.583  49.546  1.00  0.00     0.093 A 
HETATM   19 CL1  UNL     1      20.979   7.931  50.340  1.00  0.00    -0.082 Cl
HETATM   20  C15 UNL     1      22.693   5.959  50.216  1.00  0.00     0.127 A 
BRANCH  20  21
HETATM   21  N3  UNL     1      23.162   6.260  51.514  1.00  0.00    -0.384 N 
HETATM   22  H16 UNL     1      23.427   5.275  51.813  1.00  0.00     0.157 HD
HETATM   23  H17 UNL     1      23.113   7.273  51.767  1.00  0.00     0.157 HD
ENDBRANCH  20  21
ENDBRANCH   4  13
BRANCH   1  24
HETATM   24  C2  UNL     1      21.131   0.988  52.221  1.00  0.00    -0.006 C 
HETATM   25  C1  UNL     1      20.831   1.465  53.416  1.00  0.00     0.056 C 
BRANCH  24  26
HETATM   26  C3  UNL     1      20.319   0.201  51.285  1.00  0.00     0.126 C 
BRANCH  26  27
HETATM   27  N1  UNL     1      18.950   0.500  51.251  1.00  0.00    -0.414 N 
HETATM   28  C4  UNL     1      18.009  -0.382  51.819  1.00  0.00     0.143 C 
BRANCH  27  29
HETATM   29  C5  UNL     1      18.446   1.451  50.351  1.00  0.00     0.147 C 
BRANCH  29  30
HETATM   30  C6  UNL     1      19.438   1.941  49.319  1.00  0.00     0.241 C 
HETATM   31  F1  UNL     1      20.055   3.111  49.645  1.00  0.00    -0.254 F 
ENDBRANCH  29  30
ENDBRANCH  27  29
ENDBRANCH  26  27
ENDBRANCH  24  26
ENDBRANCH   1  24
BRANCH  12  32
HETATM   32  O1  UNL     1      23.354  -0.425  53.054  1.00  0.00    -0.351 OA
BRANCH  32  33
HETATM   33  C22 UNL     1      23.728  -0.777  54.334  1.00  0.00     0.171 C 
HETATM   34  C23 UNL     1      22.597  -1.335  55.186  1.00  0.00     0.034 C 
ENDBRANCH  32  33
ENDBRANCH  12  32
TORSDOF 9
ENDMDL
MODEL 9
REMARK VINA RESULT:      -6.8      3.331      5.389
REMARK  9 active torsions:
REMARK  status: ('A' for Active; 'I' for Inactive)
REMARK    1  A    between atoms: C2_2  and  C3_3 
REMARK    2  A    between atoms: C2_2  and  C7_9 
REMARK    3  A    between atoms: C3_3  and  N1_4 
REMARK    4  A    between atoms: N1_4  and  C5_6 
REMARK    5  A    between atoms: C5_6  and  C6_7 
REMARK    6  A    between atoms: C10_12  and  N2_13 
REMARK    7  A    between atoms: C15_20  and  N3_21 
REMARK    8  A    between atoms: C21_29  and  O1_30 
REMARK    9  A    between atoms: O1_30  and  C22_31 
ROOT
HETATM    1  C7  UNL     1      23.096   1.648  52.460  1.00  0.00    -0.018 A 
HETATM    2  C8  UNL     1      21.785   1.774  51.984  1.00  0.00     0.026 A 
HETATM    3  C9  UNL     1      20.777   0.869  52.341  1.00  0.00     0.022 A 
HETATM    4  C10 UNL     1      19.502   1.034  51.846  1.00  0.00     0.075 A 
HETATM    5  C16 UNL     1      18.537   0.130  52.216  1.00  0.00     0.090 A 
HETATM    6  C17 UNL     1      17.197   0.294  51.705  1.00  0.00     0.103 C 
HETATM    7  N4  UNL     1      16.107   0.436  51.309  1.00  0.00    -0.191 NA
HETATM    8  C18 UNL     1      18.865  -0.917  53.068  1.00  0.00     0.142 A 
HETATM    9  N5  UNL     1      20.126  -1.079  53.557  1.00  0.00    -0.259 NA
HETATM   10  C19 UNL     1      21.047  -0.182  53.180  1.00  0.00     0.071 A 
HETATM   11  C20 UNL     1      22.324  -0.345  53.674  1.00  0.00     0.069 A 
HETATM   12  C21 UNL     1      23.280   0.570  53.294  1.00  0.00     0.077 A 
ENDROOT
BRANCH   4  13
HETATM   13  N2  UNL     1      19.150   2.101  50.969  1.00  0.00    -0.305 N 
HETATM   14  C11 UNL     1      18.548   3.158  51.705  1.00  0.00     0.098 A 
HETATM   15  C12 UNL     1      18.127   4.282  51.113  1.00  0.00     0.033 A 
HETATM   16  C13 UNL     1      18.279   4.467  49.632  1.00  0.00     0.243 A 
HETATM   17  F2  UNL     1      17.074   4.841  49.070  1.00  0.00    -0.239 F 
HETATM   18  C14 UNL     1      18.909   3.323  48.968  1.00  0.00     0.093 A 
HETATM   19 CL1  UNL     1      19.143   3.414  47.243  1.00  0.00    -0.082 Cl
HETATM   20  C15 UNL     1      19.318   2.223  49.566  1.00  0.00     0.127 A 
BRANCH  20  21
HETATM   21  N3  UNL     1      19.927   1.099  48.964  1.00  0.00    -0.384 N 
HETATM   22  H16 UNL     1      20.941   1.385  49.098  1.00  0.00     0.157 HD
HETATM   23  H17 UNL     1      19.254   0.386  48.601  1.00  0.00     0.157 HD
ENDBRANCH  20  21
ENDBRANCH   4  13
BRANCH   1  24
HETATM   24  C2  UNL     1      24.165   2.583  52.101  1.00  0.00    -0.006 C 
HETATM   25  C1  UNL     1      24.203   3.531  53.020  1.00  0.00     0.056 C 
BRANCH  24  26
HETATM   26  C3  UNL     1      24.993   2.391  50.904  1.00  0.00     0.126 C 
BRANCH  26  27
HETATM   27  N1  UNL     1      24.937   3.410  49.943  1.00  0.00    -0.414 N 
HETATM   28  C4  UNL     1      26.015   4.302  49.779  1.00  0.00     0.143 C 
BRANCH  27  29
HETATM   29  C5  UNL     1      23.708   3.813  49.397  1.00  0.00     0.147 C 
BRANCH  29  30
HETATM   30  C6  UNL     1      22.980   2.746  48.610  1.00  0.00     0.241 C 
HETATM   31  F1  UNL     1      22.579   3.140  47.368  1.00  0.00    -0.254 F 
ENDBRANCH  29  30
ENDBRANCH  27  29
ENDBRANCH  26  27
ENDBRANCH  24  26
ENDBRANCH   1  24
BRANCH  12  32
HETATM   32  O1  UNL     1      24.536   0.416  53.774  1.00  0.00    -0.351 OA
BRANCH  32  33
HETATM   33  C22 UNL     1      25.409  -0.649  53.714  1.00  0.00     0.171 C 
HETATM   34  C23 UNL     1      26.376  -0.602  52.539  1.00  0.00     0.034 C 
ENDBRANCH  32  33
ENDBRANCH  12  32
TORSDOF 9
ENDMDL
