MODEL 1
REMARK VINA RESULT:      -9.1      0.000      0.000
REMARK  2 active torsions:
REMARK  status: ('A' for Active; 'I' for Inactive)
REMARK    1  A    between atoms: C7_7  and  N1_8 
REMARK    2  A    between atoms: N1_8  and  C8_9 
ROOT
HETATM    1  C1  UNL     1      30.385  -1.679  53.830  1.00  0.00     0.018 C 
HETATM    2  C2  UNL     1      29.514  -0.845  53.689  1.00  0.00    -0.078 C 
HETATM    3  C3  UNL     1      28.502   0.158  53.528  1.00  0.00     0.019 A 
HETATM    4  C4  UNL     1      28.696   1.505  53.714  1.00  0.00     0.021 A 
HETATM    5  C5  UNL     1      27.635   2.371  53.526  1.00  0.00     0.004 A 
HETATM    6  C6  UNL     1      26.395   1.901  53.158  1.00  0.00     0.029 A 
HETATM    7  C7  UNL     1      26.167   0.531  52.961  1.00  0.00     0.034 A 
HETATM    8  C20 UNL     1      27.265  -0.315  53.160  1.00  0.00     0.050 A 
ENDROOT
BRANCH   7   9
HETATM    9  N1  UNL     1      24.821   0.299  52.564  1.00  0.00    -0.355 N 
HETATM   10  H5  UNL     1      25.016   0.624  51.623  1.00  0.00     0.166 HD
BRANCH   9  11
HETATM   11  C8  UNL     1      23.859  -0.225  53.436  1.00  0.00     0.046 A 
HETATM   12  C9  UNL     1      24.070  -0.891  54.608  1.00  0.00     0.049 A 
HETATM   13  C10 UNL     1      23.012  -1.396  55.364  1.00  0.00     0.119 A 
HETATM   14  N2  UNL     1      21.698  -1.257  54.982  1.00  0.00    -0.260 NA
HETATM   15  C11 UNL     1      21.571  -0.609  53.852  1.00  0.00     0.071 A 
HETATM   16  C12 UNL     1      22.607  -0.070  53.034  1.00  0.00     0.016 A 
HETATM   17  C18 UNL     1      20.215  -0.593  53.643  1.00  0.00     0.069 C 
HETATM   18  C13 UNL     1      22.443   0.615  51.861  1.00  0.00    -0.010 C 
HETATM   19  C14 UNL     1      21.376   0.506  50.817  1.00  0.00     0.038 C 
HETATM   20  C15 UNL     1      20.109   1.144  50.973  1.00  0.00     0.039 C 
HETATM   21  C16 UNL     1      19.553   1.592  52.255  1.00  0.00     0.017 C 
HETATM   22  C19 UNL     1      18.860   0.324  50.504  1.00  0.00     0.184 C 
HETATM   23  C17 UNL     1      19.514   0.288  52.649  1.00  0.00     0.067 C 
HETATM   24  O1  UNL     1      18.494  -0.273  51.811  1.00  0.00    -0.351 OA
ENDBRANCH   9  11
ENDBRANCH   7   9
TORSDOF 2
ENDMDL
MODEL 2
REMARK VINA RESULT:      -8.5      3.312      5.089
REMARK  2 active torsions:
REMARK  status: ('A' for Active; 'I' for Inactive)
REMARK    1  A    between atoms: C7_7  and  N1_8 
REMARK    2  A    between atoms: N1_8  and  C8_9 
ROOT
HETATM    1  C1  UNL     1      23.703   8.034  50.606  1.00  0.00     0.018 C 
HETATM    2  C2  UNL     1      24.230   6.962  50.386  1.00  0.00    -0.078 C 
HETATM    3  C3  UNL     1      24.871   5.709  50.115  1.00  0.00     0.019 A 
HETATM    4  C4  UNL     1      26.069   5.567  49.457  1.00  0.00     0.021 A 
HETATM    5  C5  UNL     1      26.583   4.299  49.258  1.00  0.00     0.004 A 
HETATM    6  C6  UNL     1      25.911   3.185  49.709  1.00  0.00     0.029 A 
HETATM    7  C7  UNL     1      24.686   3.299  50.384  1.00  0.00     0.034 A 
HETATM    8  C20 UNL     1      24.198   4.599  50.567  1.00  0.00     0.050 A 
ENDROOT
BRANCH   7   9
HETATM    9  N1  UNL     1      24.204   2.018  50.768  1.00  0.00    -0.355 N 
HETATM   10  H5  UNL     1      23.536   2.012  50.004  1.00  0.00     0.166 HD
BRANCH   9  11
HETATM   11  C8  UNL     1      24.729   1.312  51.857  1.00  0.00     0.046 A 
HETATM   12  C9  UNL     1      26.039   1.185  52.216  1.00  0.00     0.049 A 
HETATM   13  C10 UNL     1      26.428   0.415  53.312  1.00  0.00     0.119 A 
HETATM   14  N2  UNL     1      25.524  -0.263  54.097  1.00  0.00    -0.260 NA
HETATM   15  C11 UNL     1      24.289  -0.097  53.695  1.00  0.00     0.071 A 
HETATM   16  C12 UNL     1      23.827   0.675  52.588  1.00  0.00     0.016 A 
HETATM   17  C18 UNL     1      23.561  -0.852  54.579  1.00  0.00     0.069 C 
HETATM   18  C13 UNL     1      22.526   0.841  52.200  1.00  0.00    -0.010 C 
HETATM   19  C14 UNL     1      21.352  -0.079  52.328  1.00  0.00     0.038 C 
HETATM   20  C15 UNL     1      20.619  -0.189  53.548  1.00  0.00     0.039 C 
HETATM   21  C16 UNL     1      21.127   0.211  54.865  1.00  0.00     0.017 C 
HETATM   22  C19 UNL     1      20.166  -1.632  53.953  1.00  0.00     0.184 C 
HETATM   23  C17 UNL     1      22.071  -0.764  54.755  1.00  0.00     0.067 C 
HETATM   24  O1  UNL     1      21.303  -1.971  54.842  1.00  0.00    -0.351 OA
ENDBRANCH   9  11
ENDBRANCH   7   9
TORSDOF 2
ENDMDL
MODEL 3
REMARK VINA RESULT:      -8.4      2.346      2.929
REMARK  2 active torsions:
REMARK  status: ('A' for Active; 'I' for Inactive)
REMARK    1  A    between atoms: C7_7  and  N1_8 
REMARK    2  A    between atoms: N1_8  and  C8_9 
ROOT
HETATM    1  C1  UNL     1      28.985  -2.742  53.155  1.00  0.00     0.018 C 
HETATM    2  C2  UNL     1      28.699  -1.564  53.226  1.00  0.00    -0.078 C 
HETATM    3  C3  UNL     1      28.384  -0.168  53.318  1.00  0.00     0.019 A 
HETATM    4  C4  UNL     1      29.253   0.805  53.749  1.00  0.00     0.021 A 
HETATM    5  C5  UNL     1      28.826   2.119  53.791  1.00  0.00     0.004 A 
HETATM    6  C6  UNL     1      27.547   2.459  53.409  1.00  0.00     0.029 A 
HETATM    7  C7  UNL     1      26.638   1.488  52.965  1.00  0.00     0.034 A 
HETATM    8  C20 UNL     1      27.108   0.168  52.936  1.00  0.00     0.050 A 
ENDROOT
BRANCH   7   9
HETATM    9  N1  UNL     1      25.399   2.086  52.607  1.00  0.00    -0.355 N 
HETATM   10  H5  UNL     1      25.836   2.999  52.524  1.00  0.00     0.166 HD
BRANCH   9  11
HETATM   11  C8  UNL     1      24.214   1.350  52.488  1.00  0.00     0.046 A 
HETATM   12  C9  UNL     1      23.780   0.334  53.288  1.00  0.00     0.049 A 
HETATM   13  C10 UNL     1      22.588  -0.344  53.030  1.00  0.00     0.119 A 
HETATM   14  N2  UNL     1      21.778  -0.034  51.962  1.00  0.00    -0.260 NA
HETATM   15  C11 UNL     1      22.256   0.948  51.240  1.00  0.00     0.071 A 
HETATM   16  C12 UNL     1      23.463   1.679  51.449  1.00  0.00     0.016 A 
HETATM   17  C18 UNL     1      21.330   1.088  50.237  1.00  0.00     0.069 C 
HETATM   18  C13 UNL     1      23.930   2.712  50.683  1.00  0.00    -0.010 C 
HETATM   19  C14 UNL     1      23.759   2.989  49.222  1.00  0.00     0.038 C 
HETATM   20  C15 UNL     1      22.571   3.596  48.712  1.00  0.00     0.039 C 
HETATM   21  C16 UNL     1      21.283   3.629  49.414  1.00  0.00     0.017 C 
HETATM   22  C19 UNL     1      22.031   3.024  47.358  1.00  0.00     0.184 C 
HETATM   23  C17 UNL     1      21.239   2.271  49.316  1.00  0.00     0.067 C 
HETATM   24  O1  UNL     1      21.056   2.053  47.911  1.00  0.00    -0.351 OA
ENDBRANCH   9  11
ENDBRANCH   7   9
TORSDOF 2
ENDMDL
MODEL 4
REMARK VINA RESULT:      -8.4      4.454      7.130
REMARK  2 active torsions:
REMARK  status: ('A' for Active; 'I' for Inactive)
REMARK    1  A    between atoms: C7_7  and  N1_8 
REMARK    2  A    between atoms: N1_8  and  C8_9 
ROOT
HETATM    1  C1  UNL     1      22.826   8.419  49.692  1.00  0.00     0.018 C 
HETATM    2  C2  UNL     1      23.771   7.681  49.501  1.00  0.00    -0.078 C 
HETATM    3  C3  UNL     1      24.900   6.828  49.266  1.00  0.00     0.019 A 
HETATM    4  C4  UNL     1      26.085   7.234  48.702  1.00  0.00     0.021 A 
HETATM    5  C5  UNL     1      27.100   6.312  48.530  1.00  0.00     0.004 A 
HETATM    6  C6  UNL     1      26.936   5.000  48.914  1.00  0.00     0.029 A 
HETATM    7  C7  UNL     1      25.738   4.557  49.492  1.00  0.00     0.034 A 
HETATM    8  C20 UNL     1      24.733   5.520  49.651  1.00  0.00     0.050 A 
ENDROOT
BRANCH   7   9
HETATM    9  N1  UNL     1      25.821   3.176  49.823  1.00  0.00    -0.355 N 
HETATM   10  H5  UNL     1      26.673   3.072  49.281  1.00  0.00     0.166 HD
BRANCH   9  11
HETATM   11  C8  UNL     1      24.886   2.543  50.650  1.00  0.00     0.046 A 
HETATM   12  C9  UNL     1      23.527   2.643  50.603  1.00  0.00     0.049 A 
HETATM   13  C10 UNL     1      22.710   1.981  51.520  1.00  0.00     0.119 A 
HETATM   14  N2  UNL     1      23.218   1.190  52.525  1.00  0.00    -0.260 NA
HETATM   15  C11 UNL     1      24.526   1.140  52.510  1.00  0.00     0.071 A 
HETATM   16  C12 UNL     1      25.414   1.790  51.603  1.00  0.00     0.016 A 
HETATM   17  C18 UNL     1      24.827   0.333  53.578  1.00  0.00     0.069 C 
HETATM   18  C13 UNL     1      26.779   1.708  51.605  1.00  0.00    -0.010 C 
HETATM   19  C14 UNL     1      27.736   1.504  52.738  1.00  0.00     0.038 C 
HETATM   20  C15 UNL     1      27.996   0.205  53.271  1.00  0.00     0.039 C 
HETATM   21  C16 UNL     1      27.117  -0.957  53.102  1.00  0.00     0.017 C 
HETATM   22  C19 UNL     1      28.131   0.113  54.828  1.00  0.00     0.184 C 
HETATM   23  C17 UNL     1      26.169  -0.296  53.822  1.00  0.00     0.067 C 
HETATM   24  O1  UNL     1      26.730  -0.260  55.141  1.00  0.00    -0.351 OA
ENDBRANCH   9  11
ENDBRANCH   7   9
TORSDOF 2
ENDMDL
MODEL 5
REMARK VINA RESULT:      -8.3      2.589      7.486
REMARK  2 active torsions:
REMARK  status: ('A' for Active; 'I' for Inactive)
REMARK    1  A    between atoms: C7_7  and  N1_8 
REMARK    2  A    between atoms: N1_8  and  C8_9 
ROOT
HETATM    1  C1  UNL     1      16.405   4.306  51.812  1.00  0.00     0.018 C 
HETATM    2  C2  UNL     1      17.336   3.608  51.467  1.00  0.00    -0.078 C 
HETATM    3  C3  UNL     1      18.422   2.776  51.037  1.00  0.00     0.019 A 
HETATM    4  C4  UNL     1      18.414   1.999  49.905  1.00  0.00     0.021 A 
HETATM    5  C5  UNL     1      19.528   1.239  49.601  1.00  0.00     0.004 A 
HETATM    6  C6  UNL     1      20.638   1.253  50.416  1.00  0.00     0.029 A 
HETATM    7  C7  UNL     1      20.674   2.036  51.579  1.00  0.00     0.034 A 
HETATM    8  C20 UNL     1      19.527   2.792  51.853  1.00  0.00     0.050 A 
ENDROOT
BRANCH   7   9
HETATM    9  N1  UNL     1      21.928   1.901  52.236  1.00  0.00    -0.355 N 
HETATM   10  H5  UNL     1      22.288   2.729  51.773  1.00  0.00     0.166 HD
BRANCH   9  11
HETATM   11  C8  UNL     1      22.192   0.874  53.150  1.00  0.00     0.046 A 
HETATM   12  C9  UNL     1      21.304   0.232  53.963  1.00  0.00     0.049 A 
HETATM   13  C10 UNL     1      21.712  -0.756  54.860  1.00  0.00     0.119 A 
HETATM   14  N2  UNL     1      23.026  -1.144  54.983  1.00  0.00    -0.260 NA
HETATM   15  C11 UNL     1      23.821  -0.488  54.175  1.00  0.00     0.071 A 
HETATM   16  C12 UNL     1      23.467   0.528  53.238  1.00  0.00     0.016 A 
HETATM   17  C18 UNL     1      25.061  -0.999  54.461  1.00  0.00     0.069 C 
HETATM   18  C13 UNL     1      24.319   1.188  52.396  1.00  0.00    -0.010 C 
HETATM   19  C14 UNL     1      25.766   1.537  52.559  1.00  0.00     0.038 C 
HETATM   20  C15 UNL     1      26.797   0.583  52.307  1.00  0.00     0.039 C 
HETATM   21  C16 UNL     1      26.601  -0.871  52.281  1.00  0.00     0.017 C 
HETATM   22  C19 UNL     1      28.004   0.591  53.304  1.00  0.00     0.184 C 
HETATM   23  C17 UNL     1      26.281  -0.812  53.604  1.00  0.00     0.067 C 
HETATM   24  O1  UNL     1      27.527  -0.470  54.224  1.00  0.00    -0.351 OA
ENDBRANCH   9  11
ENDBRANCH   7   9
TORSDOF 2
ENDMDL
MODEL 6
REMARK VINA RESULT:      -8.3      3.968      5.118
REMARK  2 active torsions:
REMARK  status: ('A' for Active; 'I' for Inactive)
REMARK    1  A    between atoms: C7_7  and  N1_8 
REMARK    2  A    between atoms: N1_8  and  C8_9 
ROOT
HETATM    1  C1  UNL     1      30.500   5.810  47.816  1.00  0.00     0.018 C 
HETATM    2  C2  UNL     1      29.326   5.791  48.123  1.00  0.00    -0.078 C 
HETATM    3  C3  UNL     1      27.937   5.794  48.481  1.00  0.00     0.019 A 
HETATM    4  C4  UNL     1      27.141   6.913  48.526  1.00  0.00     0.021 A 
HETATM    5  C5  UNL     1      25.813   6.781  48.888  1.00  0.00     0.004 A 
HETATM    6  C6  UNL     1      25.285   5.549  49.203  1.00  0.00     0.029 A 
HETATM    7  C7  UNL     1      26.074   4.390  49.166  1.00  0.00     0.034 A 
HETATM    8  C20 UNL     1      27.413   4.563  48.795  1.00  0.00     0.050 A 
ENDROOT
BRANCH   7   9
HETATM    9  N1  UNL     1      25.300   3.246  49.507  1.00  0.00    -0.355 N 
HETATM   10  H5  UNL     1      24.889   3.218  48.579  1.00  0.00     0.166 HD
BRANCH   9  11
HETATM   11  C8  UNL     1      25.367   2.640  50.767  1.00  0.00     0.046 A 
HETATM   12  C9  UNL     1      26.467   2.476  51.556  1.00  0.00     0.049 A 
HETATM   13  C10 UNL     1      26.398   1.815  52.783  1.00  0.00     0.119 A 
HETATM   14  N2  UNL     1      25.225   1.290  53.274  1.00  0.00    -0.260 NA
HETATM   15  C11 UNL     1      24.213   1.484  52.466  1.00  0.00     0.071 A 
HETATM   16  C12 UNL     1      24.218   2.149  51.204  1.00  0.00     0.016 A 
HETATM   17  C18 UNL     1      23.165   0.883  53.117  1.00  0.00     0.069 C 
HETATM   18  C13 UNL     1      23.139   2.349  50.388  1.00  0.00    -0.010 C 
HETATM   19  C14 UNL     1      21.905   1.524  50.193  1.00  0.00     0.038 C 
HETATM   20  C15 UNL     1      20.804   1.602  51.100  1.00  0.00     0.039 C 
HETATM   21  C16 UNL     1      20.887   2.120  52.470  1.00  0.00     0.017 C 
HETATM   22  C19 UNL     1      20.106   0.247  51.454  1.00  0.00     0.184 C 
HETATM   23  C17 UNL     1      21.717   1.083  52.771  1.00  0.00     0.067 C 
HETATM   24  O1  UNL     1      20.850  -0.057  52.701  1.00  0.00    -0.351 OA
ENDBRANCH   9  11
ENDBRANCH   7   9
TORSDOF 2
ENDMDL
MODEL 7
REMARK VINA RESULT:      -8.3      3.875      7.284
REMARK  2 active torsions:
REMARK  status: ('A' for Active; 'I' for Inactive)
REMARK    1  A    between atoms: C7_7  and  N1_8 
REMARK    2  A    between atoms: N1_8  and  C8_9 
ROOT
HETATM    1  C1  UNL     1      21.422   3.835  45.473  1.00  0.00     0.018 C 
HETATM    2  C2  UNL     1      21.915   4.125  46.544  1.00  0.00    -0.078 C 
HETATM    3  C3  UNL     1      22.485   4.490  47.808  1.00  0.00     0.019 A 
HETATM    4  C4  UNL     1      22.295   5.697  48.434  1.00  0.00     0.021 A 
HETATM    5  C5  UNL     1      22.903   5.926  49.655  1.00  0.00     0.004 A 
HETATM    6  C6  UNL     1      23.691   4.963  50.244  1.00  0.00     0.029 A 
HETATM    7  C7  UNL     1      23.903   3.721  49.628  1.00  0.00     0.034 A 
HETATM    8  C20 UNL     1      23.271   3.526  48.393  1.00  0.00     0.050 A 
ENDROOT
BRANCH   7   9
HETATM    9  N1  UNL     1      24.727   2.893  50.439  1.00  0.00    -0.355 N 
HETATM   10  H5  UNL     1      25.566   3.354  50.099  1.00  0.00     0.166 HD
BRANCH   9  11
HETATM   11  C8  UNL     1      24.204   1.916  51.293  1.00  0.00     0.046 A 
HETATM   12  C9  UNL     1      22.901   1.536  51.427  1.00  0.00     0.049 A 
HETATM   13  C10 UNL     1      22.511   0.567  52.353  1.00  0.00     0.119 A 
HETATM   14  N2  UNL     1      23.408  -0.064  53.184  1.00  0.00    -0.260 NA
HETATM   15  C11 UNL     1      24.636   0.349  53.001  1.00  0.00     0.071 A 
HETATM   16  C12 UNL     1      25.098   1.331  52.075  1.00  0.00     0.016 A 
HETATM   17  C18 UNL     1      25.357  -0.374  53.918  1.00  0.00     0.069 C 
HETATM   18  C13 UNL     1      26.394   1.733  51.897  1.00  0.00    -0.010 C 
HETATM   19  C14 UNL     1      27.530   1.799  52.869  1.00  0.00     0.038 C 
HETATM   20  C15 UNL     1      28.293   0.640  53.206  1.00  0.00     0.039 C 
HETATM   21  C16 UNL     1      27.841  -0.742  53.008  1.00  0.00     0.017 C 
HETATM   22  C19 UNL     1      28.695   0.492  54.712  1.00  0.00     0.184 C 
HETATM   23  C17 UNL     1      26.853  -0.508  53.915  1.00  0.00     0.067 C 
HETATM   24  O1  UNL     1      27.570  -0.370  55.149  1.00  0.00    -0.351 OA
ENDBRANCH   9  11
ENDBRANCH   7   9
TORSDOF 2
ENDMDL
MODEL 8
REMARK VINA RESULT:      -8.2      4.753      6.720
REMARK  2 active torsions:
REMARK  status: ('A' for Active; 'I' for Inactive)
REMARK    1  A    between atoms: C7_7  and  N1_8 
REMARK    2  A    between atoms: N1_8  and  C8_9 
ROOT
HETATM    1  C1  UNL     1      30.887   5.550  47.908  1.00  0.00     0.018 C 
HETATM    2  C2  UNL     1      29.694   5.699  48.073  1.00  0.00    -0.078 C 
HETATM    3  C3  UNL     1      28.286   5.899  48.259  1.00  0.00     0.019 A 
HETATM    4  C4  UNL     1      27.618   7.068  47.989  1.00  0.00     0.021 A 
HETATM    5  C5  UNL     1      26.255   7.132  48.212  1.00  0.00     0.004 A 
HETATM    6  C6  UNL     1      25.566   6.044  48.699  1.00  0.00     0.029 A 
HETATM    7  C7  UNL     1      26.222   4.837  48.985  1.00  0.00     0.034 A 
HETATM    8  C20 UNL     1      27.602   4.811  48.745  1.00  0.00     0.050 A 
ENDROOT
BRANCH   7   9
HETATM    9  N1  UNL     1      25.298   3.862  49.451  1.00  0.00    -0.355 N 
HETATM   10  H5  UNL     1      25.356   3.352  48.575  1.00  0.00     0.166 HD
BRANCH   9  11
HETATM   11  C8  UNL     1      24.737   3.910  50.732  1.00  0.00     0.046 A 
HETATM   12  C9  UNL     1      23.860   4.831  51.226  1.00  0.00     0.049 A 
HETATM   13  C10 UNL     1      23.407   4.779  52.545  1.00  0.00     0.119 A 
HETATM   14  N2  UNL     1      23.811   3.804  53.427  1.00  0.00    -0.260 NA
HETATM   15  C11 UNL     1      24.650   2.957  52.887  1.00  0.00     0.071 A 
HETATM   16  C12 UNL     1      25.150   2.954  51.551  1.00  0.00     0.016 A 
HETATM   17  C18 UNL     1      24.938   2.094  53.914  1.00  0.00     0.069 C 
HETATM   18  C13 UNL     1      26.017   2.045  51.010  1.00  0.00    -0.010 C 
HETATM   19  C14 UNL     1      27.109   1.248  51.652  1.00  0.00     0.038 C 
HETATM   20  C15 UNL     1      26.832   0.046  52.372  1.00  0.00     0.039 C 
HETATM   21  C16 UNL     1      25.518  -0.316  52.916  1.00  0.00     0.017 C 
HETATM   22  C19 UNL     1      27.648  -0.173  53.690  1.00  0.00     0.184 C 
HETATM   23  C17 UNL     1      25.609   0.760  53.747  1.00  0.00     0.067 C 
HETATM   24  O1  UNL     1      26.662   0.388  54.646  1.00  0.00    -0.351 OA
ENDBRANCH   9  11
ENDBRANCH   7   9
TORSDOF 2
ENDMDL
MODEL 9
REMARK VINA RESULT:      -8.0      2.186      4.092
REMARK  2 active torsions:
REMARK  status: ('A' for Active; 'I' for Inactive)
REMARK    1  A    between atoms: C7_7  and  N1_8 
REMARK    2  A    between atoms: N1_8  and  C8_9 
ROOT
HETATM    1  C1  UNL     1      27.625   0.400  54.450  1.00  0.00     0.018 C 
HETATM    2  C2  UNL     1      26.457   0.071  54.437  1.00  0.00    -0.078 C 
HETATM    3  C3  UNL     1      25.080  -0.329  54.443  1.00  0.00     0.019 A 
HETATM    4  C4  UNL     1      24.479  -1.057  55.442  1.00  0.00     0.021 A 
HETATM    5  C5  UNL     1      23.140  -1.380  55.329  1.00  0.00     0.004 A 
HETATM    6  C6  UNL     1      22.407  -0.982  54.233  1.00  0.00     0.029 A 
HETATM    7  C7  UNL     1      22.993  -0.239  53.198  1.00  0.00     0.034 A 
HETATM    8  C20 UNL     1      24.351   0.069  53.348  1.00  0.00     0.050 A 
ENDROOT
BRANCH   7   9
HETATM    9  N1  UNL     1      22.032   0.069  52.195  1.00  0.00    -0.355 N 
HETATM   10  H5  UNL     1      22.116  -0.860  51.795  1.00  0.00     0.166 HD
BRANCH   9  11
HETATM   11  C8  UNL     1      21.394   1.313  52.122  1.00  0.00     0.046 A 
HETATM   12  C9  UNL     1      21.954   2.548  52.265  1.00  0.00     0.049 A 
HETATM   13  C10 UNL     1      21.187   3.712  52.205  1.00  0.00     0.119 A 
HETATM   14  N2  UNL     1      19.826   3.691  52.001  1.00  0.00    -0.260 NA
HETATM   15  C11 UNL     1      19.358   2.475  51.873  1.00  0.00     0.071 A 
HETATM   16  C12 UNL     1      20.086   1.250  51.923  1.00  0.00     0.016 A 
HETATM   17  C18 UNL     1      18.011   2.668  51.699  1.00  0.00     0.069 C 
HETATM   18  C13 UNL     1      19.570  -0.008  51.773  1.00  0.00    -0.010 C 
HETATM   19  C14 UNL     1      18.215  -0.546  52.112  1.00  0.00     0.038 C 
HETATM   20  C15 UNL     1      17.096  -0.351  51.247  1.00  0.00     0.039 C 
HETATM   21  C16 UNL     1      17.012   0.686  50.212  1.00  0.00     0.017 C 
HETATM   22  C19 UNL     1      15.732  -0.029  51.945  1.00  0.00     0.184 C 
HETATM   23  C17 UNL     1      17.055   1.622  51.201  1.00  0.00     0.067 C 
HETATM   24  O1  UNL     1      15.796   1.451  51.864  1.00  0.00    -0.351 OA
ENDBRANCH   9  11
ENDBRANCH   7   9
TORSDOF 2
ENDMDL
