MODEL 1
REMARK VINA RESULT:      -8.4      0.000      0.000
REMARK  2 active torsions:
REMARK  status: ('A' for Active; 'I' for Inactive)
REMARK    1  A    between atoms: N2_6  and  C4_7 
REMARK    2  A    between atoms: C4_7  and  C5_8 
ROOT
HETATM    1  O1  UNL     1      21.417  -0.108  53.106  1.00  0.00     0.000 OA
HETATM    2  C1  UNL     1      20.433  -0.124  53.926  1.00  0.00     0.290 A 
HETATM    3  N1  UNL     1      21.787  -0.420  54.343  1.00  0.00     0.117 N 
HETATM    4  C2  UNL     1      22.975  -0.431  53.451  1.00  0.00     0.298 A 
HETATM    5  C3  UNL     1      23.643   0.737  53.266  1.00  0.00     0.097 C 
HETATM    6  N2  UNL     1      24.395   1.925  53.021  1.00  0.00    -0.380 N 
HETATM    7  C10 UNL     1      23.862   2.844  51.987  1.00  0.00     0.206 C 
HETATM    8  S1  UNL     1      22.194   3.406  52.215  1.00  0.00    -0.049 SA
HETATM    9  C11 UNL     1      20.877   2.281  51.998  1.00  0.00     0.291 C 
HETATM   10  O2  UNL     1      20.103   3.183  52.399  1.00  0.00    -0.259 OA
HETATM   11  N4  UNL     1      19.797   1.357  51.818  1.00  0.00    -0.284 N 
HETATM   12  C12 UNL     1      18.916   1.477  50.714  1.00  0.00     0.101 C 
HETATM   13  C13 UNL     1      17.940   0.607  50.516  1.00  0.00     0.019 C 
HETATM   14  C14 UNL     1      17.864  -0.452  51.510  1.00  0.00     0.016 C 
HETATM   15  C15 UNL     1      18.621  -0.532  52.567  1.00  0.00     0.002 C 
HETATM   16  C16 UNL     1      19.628   0.247  52.771  1.00  0.00     0.076 C 
HETATM   17  H1  UNL     1      22.330  -0.676  55.169  1.00  0.00     0.318 HD
ENDROOT
BRANCH   6  18
HETATM   18  C4  UNL     1      25.614   2.160  53.767  1.00  0.00     0.152 C 
BRANCH  18  19
HETATM   19  C5  UNL     1      26.739   1.455  52.993  1.00  0.00     0.147 A 
HETATM   20  N3  UNL     1      27.913   2.278  52.927  1.00  0.00    -0.293 NA
HETATM   21  C6  UNL     1      29.030   1.873  53.343  1.00  0.00     0.110 A 
HETATM   22  C7  UNL     1      29.397   0.596  53.937  1.00  0.00     0.016 A 
HETATM   23  C8  UNL     1      28.336  -0.191  54.002  1.00  0.00    -0.003 A 
HETATM   24  C9  UNL     1      26.949   0.086  53.562  1.00  0.00     0.131 A 
HETATM   25 CL1  UNL     1      26.585  -1.174  52.316  1.00  0.00    -0.118 Cl
ENDBRANCH  18  19
ENDBRANCH   6  18
TORSDOF 2
ENDMDL
MODEL 2
REMARK VINA RESULT:      -8.1      3.316      7.781
REMARK  2 active torsions:
REMARK  status: ('A' for Active; 'I' for Inactive)
REMARK    1  A    between atoms: N2_6  and  C4_7 
REMARK    2  A    between atoms: C4_7  and  C5_8 
ROOT
HETATM    1  O1  UNL     1      27.388   1.437  52.391  1.00  0.00     0.000 OA
HETATM    2  C1  UNL     1      28.105   1.602  53.439  1.00  0.00     0.290 A 
HETATM    3  N1  UNL     1      27.468   2.710  52.760  1.00  0.00     0.117 N 
HETATM    4  C2  UNL     1      26.631   2.600  51.538  1.00  0.00     0.298 A 
HETATM    5  C3  UNL     1      25.302   2.366  51.695  1.00  0.00     0.097 C 
HETATM    6  N2  UNL     1      23.899   2.120  51.779  1.00  0.00    -0.380 N 
HETATM    7  C10 UNL     1      23.484   0.708  51.962  1.00  0.00     0.206 C 
HETATM    8  S1  UNL     1      24.176  -0.142  53.358  1.00  0.00    -0.049 SA
HETATM    9  C11 UNL     1      25.869  -0.564  53.348  1.00  0.00     0.291 C 
HETATM   10  O2  UNL     1      25.729  -0.956  54.532  1.00  0.00    -0.259 OA
HETATM   11  N4  UNL     1      27.259  -0.912  53.339  1.00  0.00    -0.284 N 
HETATM   12  C12 UNL     1      27.668  -2.264  53.233  1.00  0.00     0.101 C 
HETATM   13  C13 UNL     1      28.948  -2.594  53.183  1.00  0.00     0.019 C 
HETATM   14  C14 UNL     1      29.864  -1.466  53.243  1.00  0.00     0.016 C 
HETATM   15  C15 UNL     1      29.503  -0.226  53.412  1.00  0.00     0.002 C 
HETATM   16  C16 UNL     1      28.271   0.156  53.398  1.00  0.00     0.076 C 
HETATM   17  H1  UNL     1      27.363   3.725  52.814  1.00  0.00     0.318 HD
ENDROOT
BRANCH   6  18
HETATM   18  C4  UNL     1      22.976   3.231  51.672  1.00  0.00     0.152 C 
BRANCH  18  19
HETATM   19  C5  UNL     1      21.615   2.629  51.289  1.00  0.00     0.147 A 
HETATM   20  N3  UNL     1      20.564   3.174  52.100  1.00  0.00    -0.293 NA
HETATM   21  C6  UNL     1      19.560   3.739  51.591  1.00  0.00     0.110 A 
HETATM   22  C7  UNL     1      19.226   3.966  50.193  1.00  0.00     0.016 A 
HETATM   23  C8  UNL     1      20.173   3.464  49.418  1.00  0.00    -0.003 A 
HETATM   24  C9  UNL     1      21.415   2.758  49.811  1.00  0.00     0.131 A 
HETATM   25 CL1  UNL     1      21.294   1.122  49.048  1.00  0.00    -0.118 Cl
ENDBRANCH  18  19
ENDBRANCH   6  18
TORSDOF 2
ENDMDL
MODEL 3
REMARK VINA RESULT:      -8.1      2.592      7.853
REMARK  2 active torsions:
REMARK  status: ('A' for Active; 'I' for Inactive)
REMARK    1  A    between atoms: N2_6  and  C4_7 
REMARK    2  A    between atoms: C4_7  and  C5_8 
ROOT
HETATM    1  O1  UNL     1      25.749   1.892  52.864  1.00  0.00     0.000 OA
HETATM    2  C1  UNL     1      26.367   2.547  53.775  1.00  0.00     0.290 A 
HETATM    3  N1  UNL     1      25.181   3.064  53.127  1.00  0.00     0.117 N 
HETATM    4  C2  UNL     1      24.416   2.370  52.059  1.00  0.00     0.298 A 
HETATM    5  C3  UNL     1      23.432   1.513  52.435  1.00  0.00     0.097 C 
HETATM    6  N2  UNL     1      22.384   0.597  52.751  1.00  0.00    -0.380 N 
HETATM    7  C10 UNL     1      22.795  -0.786  53.094  1.00  0.00     0.206 C 
HETATM    8  S1  UNL     1      23.960  -0.956  54.423  1.00  0.00    -0.049 SA
HETATM    9  C11 UNL     1      25.611  -0.447  54.182  1.00  0.00     0.291 C 
HETATM   10  O2  UNL     1      25.812  -0.685  55.397  1.00  0.00    -0.259 OA
HETATM   11  N4  UNL     1      26.968  -0.030  53.982  1.00  0.00    -0.284 N 
HETATM   12  C12 UNL     1      28.015  -0.981  53.909  1.00  0.00     0.101 C 
HETATM   13  C13 UNL     1      29.265  -0.611  53.685  1.00  0.00     0.019 C 
HETATM   14  C14 UNL     1      29.451   0.823  53.524  1.00  0.00     0.016 C 
HETATM   15  C15 UNL     1      28.509   1.712  53.661  1.00  0.00     0.002 C 
HETATM   16  C16 UNL     1      27.266   1.402  53.810  1.00  0.00     0.076 C 
HETATM   17  H1  UNL     1      24.562   3.877  53.125  1.00  0.00     0.318 HD
ENDROOT
BRANCH   6  18
HETATM   18  C4  UNL     1      21.009   1.049  52.711  1.00  0.00     0.152 C 
BRANCH  18  19
HETATM   19  C5  UNL     1      20.377   0.408  51.466  1.00  0.00     0.147 A 
HETATM   20  N3  UNL     1      19.116  -0.199  51.783  1.00  0.00    -0.293 NA
HETATM   21  C6  UNL     1      18.058   0.116  51.178  1.00  0.00     0.110 A 
HETATM   22  C7  UNL     1      17.849   1.076  50.104  1.00  0.00     0.016 A 
HETATM   23  C8  UNL     1      18.997   1.646  49.780  1.00  0.00    -0.003 A 
HETATM   24  C9  UNL     1      20.343   1.412  50.355  1.00  0.00     0.131 A 
HETATM   25 CL1  UNL     1      21.361   0.850  48.969  1.00  0.00    -0.118 Cl
ENDBRANCH  18  19
ENDBRANCH   6  18
TORSDOF 2
ENDMDL
MODEL 4
REMARK VINA RESULT:      -7.7      2.488      7.510
REMARK  2 active torsions:
REMARK  status: ('A' for Active; 'I' for Inactive)
REMARK    1  A    between atoms: N2_6  and  C4_7 
REMARK    2  A    between atoms: C4_7  and  C5_8 
ROOT
HETATM    1  O1  UNL     1      25.240   0.228  53.329  1.00  0.00     0.000 OA
HETATM    2  C1  UNL     1      26.081  -0.671  52.973  1.00  0.00     0.290 A 
HETATM    3  N1  UNL     1      24.651  -0.883  52.902  1.00  0.00     0.117 N 
HETATM    4  C2  UNL     1      23.616   0.104  53.304  1.00  0.00     0.298 A 
HETATM    5  C3  UNL     1      23.194   0.998  52.372  1.00  0.00     0.097 C 
HETATM    6  N2  UNL     1      22.701   1.969  51.451  1.00  0.00    -0.380 N 
HETATM    7  C10 UNL     1      23.525   3.189  51.270  1.00  0.00     0.206 C 
HETATM    8  S1  UNL     1      25.216   2.934  50.795  1.00  0.00    -0.049 SA
HETATM    9  C11 UNL     1      26.336   2.260  51.952  1.00  0.00     0.291 C 
HETATM   10  O2  UNL     1      27.190   2.225  51.033  1.00  0.00    -0.259 OA
HETATM   11  N4  UNL     1      27.255   1.708  52.903  1.00  0.00    -0.284 N 
HETATM   12  C12 UNL     1      28.289   2.502  53.456  1.00  0.00     0.101 C 
HETATM   13  C13 UNL     1      29.118   2.015  54.365  1.00  0.00     0.019 C 
HETATM   14  C14 UNL     1      28.869   0.629  54.728  1.00  0.00     0.016 C 
HETATM   15  C15 UNL     1      27.968  -0.132  54.175  1.00  0.00     0.002 C 
HETATM   16  C16 UNL     1      27.092   0.311  53.337  1.00  0.00     0.076 C 
HETATM   17  H1  UNL     1      23.961  -1.587  52.635  1.00  0.00     0.318 HD
ENDROOT
BRANCH   6  18
HETATM   18  C4  UNL     1      21.448   1.727  50.766  1.00  0.00     0.152 C 
BRANCH  18  19
HETATM   19  C5  UNL     1      20.364   1.663  51.853  1.00  0.00     0.147 A 
HETATM   20  N3  UNL     1      19.470   2.781  51.756  1.00  0.00    -0.293 NA
HETATM   21  C6  UNL     1      18.227   2.628  51.630  1.00  0.00     0.110 A 
HETATM   22  C7  UNL     1      17.441   1.404  51.559  1.00  0.00     0.016 A 
HETATM   23  C8  UNL     1      18.237   0.352  51.657  1.00  0.00    -0.003 A 
HETATM   24  C9  UNL     1      19.709   0.317  51.821  1.00  0.00     0.131 A 
HETATM   25 CL1  UNL     1      19.993  -0.558  53.379  1.00  0.00    -0.118 Cl
ENDBRANCH  18  19
ENDBRANCH   6  18
TORSDOF 2
ENDMDL
MODEL 5
REMARK VINA RESULT:      -7.5      3.747      7.458
REMARK  2 active torsions:
REMARK  status: ('A' for Active; 'I' for Inactive)
REMARK    1  A    between atoms: N2_6  and  C4_7 
REMARK    2  A    between atoms: C4_7  and  C5_8 
ROOT
HETATM    1  O1  UNL     1      25.048   3.747  50.855  1.00  0.00     0.000 OA
HETATM    2  C1  UNL     1      25.588   3.026  49.943  1.00  0.00     0.290 A 
HETATM    3  N1  UNL     1      24.935   2.446  51.097  1.00  0.00     0.117 N 
HETATM    4  C2  UNL     1      24.297   3.213  52.198  1.00  0.00     0.298 A 
HETATM    5  C3  UNL     1      22.994   3.566  52.055  1.00  0.00     0.097 C 
HETATM    6  N2  UNL     1      21.628   3.974  51.978  1.00  0.00    -0.380 N 
HETATM    7  C10 UNL     1      21.349   5.210  51.208  1.00  0.00     0.206 C 
HETATM    8  S1  UNL     1      21.925   5.240  49.529  1.00  0.00    -0.049 SA
HETATM    9  C11 UNL     1      23.638   5.344  49.216  1.00  0.00     0.291 C 
HETATM   10  O2  UNL     1      23.376   5.196  47.998  1.00  0.00    -0.259 OA
HETATM   11  N4  UNL     1      25.046   5.431  48.959  1.00  0.00    -0.284 N 
HETATM   12  C12 UNL     1      25.611   6.607  48.409  1.00  0.00     0.101 C 
HETATM   13  C13 UNL     1      26.914   6.714  48.205  1.00  0.00     0.019 C 
HETATM   14  C14 UNL     1      27.683   5.542  48.591  1.00  0.00     0.016 C 
HETATM   15  C15 UNL     1      27.168   4.429  49.031  1.00  0.00     0.002 C 
HETATM   16  C16 UNL     1      25.916   4.296  49.311  1.00  0.00     0.076 C 
HETATM   17  H1  UNL     1      24.712   1.541  51.518  1.00  0.00     0.318 HD
ENDROOT
BRANCH   6  18
HETATM   18  C4  UNL     1      20.613   3.187  52.648  1.00  0.00     0.152 C 
BRANCH  18  19
HETATM   19  C5  UNL     1      20.782   1.744  52.149  1.00  0.00     0.147 A 
HETATM   20  N3  UNL     1      20.533   0.802  53.202  1.00  0.00    -0.293 NA
HETATM   21  C6  UNL     1      19.668  -0.106  53.088  1.00  0.00     0.110 A 
HETATM   22  C7  UNL     1      18.783  -0.416  51.975  1.00  0.00     0.016 A 
HETATM   23  C8  UNL     1      18.996   0.430  50.982  1.00  0.00    -0.003 A 
HETATM   24  C9  UNL     1      19.964   1.549  50.910  1.00  0.00     0.131 A 
HETATM   25 CL1  UNL     1      21.035   1.162  49.504  1.00  0.00    -0.118 Cl
ENDBRANCH  18  19
ENDBRANCH   6  18
TORSDOF 2
ENDMDL
MODEL 6
REMARK VINA RESULT:      -7.4      3.266      7.568
REMARK  2 active torsions:
REMARK  status: ('A' for Active; 'I' for Inactive)
REMARK    1  A    between atoms: N2_6  and  C4_7 
REMARK    2  A    between atoms: C4_7  and  C5_8 
ROOT
HETATM    1  O1  UNL     1      25.200   0.306  53.485  1.00  0.00     0.000 OA
HETATM    2  C1  UNL     1      25.932  -0.606  52.964  1.00  0.00     0.290 A 
HETATM    3  N1  UNL     1      24.491  -0.719  53.028  1.00  0.00     0.117 N 
HETATM    4  C2  UNL     1      23.577   0.289  53.624  1.00  0.00     0.298 A 
HETATM    5  C3  UNL     1      23.130   1.293  52.826  1.00  0.00     0.097 C 
HETATM    6  N2  UNL     1      22.618   2.377  52.052  1.00  0.00    -0.380 N 
HETATM    7  C10 UNL     1      23.507   3.553  51.891  1.00  0.00     0.206 C 
HETATM    8  S1  UNL     1      25.118   3.237  51.217  1.00  0.00    -0.049 SA
HETATM    9  C11 UNL     1      26.296   2.387  52.183  1.00  0.00     0.291 C 
HETATM   10  O2  UNL     1      27.048   2.385  51.178  1.00  0.00    -0.259 OA
HETATM   11  N4  UNL     1      27.264   1.690  52.977  1.00  0.00    -0.284 N 
HETATM   12  C12 UNL     1      28.405   2.360  53.484  1.00  0.00     0.101 C 
HETATM   13  C13 UNL     1      29.284   1.737  54.252  1.00  0.00     0.019 C 
HETATM   14  C14 UNL     1      28.971   0.341  54.517  1.00  0.00     0.016 C 
HETATM   15  C15 UNL     1      27.966  -0.305  53.999  1.00  0.00     0.002 C 
HETATM   16  C16 UNL     1      27.045   0.270  53.302  1.00  0.00     0.076 C 
HETATM   17  H1  UNL     1      23.727  -1.350  52.776  1.00  0.00     0.318 HD
ENDROOT
BRANCH   6  18
HETATM   18  C4  UNL     1      21.288   2.280  51.487  1.00  0.00     0.152 C 
BRANCH  18  19
HETATM   19  C5  UNL     1      21.294   3.140  50.213  1.00  0.00     0.147 A 
HETATM   20  N3  UNL     1      21.518   2.333  49.048  1.00  0.00    -0.293 NA
HETATM   21  C6  UNL     1      20.711   2.326  48.082  1.00  0.00     0.110 A 
HETATM   22  C7  UNL     1      19.467   3.058  47.900  1.00  0.00     0.016 A 
HETATM   23  C8  UNL     1      19.237   3.822  48.955  1.00  0.00    -0.003 A 
HETATM   24  C9  UNL     1      20.056   3.983  50.179  1.00  0.00     0.131 A 
HETATM   25 CL1  UNL     1      20.490   5.738  50.233  1.00  0.00    -0.118 Cl
ENDBRANCH  18  19
ENDBRANCH   6  18
TORSDOF 2
ENDMDL
MODEL 7
REMARK VINA RESULT:      -7.4      4.626      6.276
REMARK  2 active torsions:
REMARK  status: ('A' for Active; 'I' for Inactive)
REMARK    1  A    between atoms: N2_6  and  C4_7 
REMARK    2  A    between atoms: C4_7  and  C5_8 
ROOT
HETATM    1  O1  UNL     1      25.501   1.875  51.875  1.00  0.00     0.000 OA
HETATM    2  C1  UNL     1      25.411   1.920  53.152  1.00  0.00     0.290 A 
HETATM    3  N1  UNL     1      26.548   2.465  52.441  1.00  0.00     0.117 N 
HETATM    4  C2  UNL     1      26.728   2.443  50.967  1.00  0.00     0.298 A 
HETATM    5  C3  UNL     1      26.207   3.471  50.247  1.00  0.00     0.097 C 
HETATM    6  N2  UNL     1      25.689   4.514  49.423  1.00  0.00    -0.380 N 
HETATM    7  C10 UNL     1      24.254   4.419  49.060  1.00  0.00     0.206 C 
HETATM    8  S1  UNL     1      23.106   4.295  50.408  1.00  0.00    -0.049 SA
HETATM    9  C11 UNL     1      23.042   2.824  51.343  1.00  0.00     0.291 C 
HETATM   10  O2  UNL     1      22.234   3.401  52.109  1.00  0.00    -0.259 OA
HETATM   11  N4  UNL     1      22.990   1.614  52.110  1.00  0.00    -0.284 N 
HETATM   12  C12 UNL     1      21.868   0.752  52.029  1.00  0.00     0.101 C 
HETATM   13  C13 UNL     1      21.825  -0.386  52.700  1.00  0.00     0.019 C 
HETATM   14  C14 UNL     1      23.007  -0.658  53.503  1.00  0.00     0.016 C 
HETATM   15  C15 UNL     1      24.013   0.159  53.642  1.00  0.00     0.002 C 
HETATM   16  C16 UNL     1      24.135   1.246  52.959  1.00  0.00     0.076 C 
HETATM   17  H1  UNL     1      27.437   2.942  52.603  1.00  0.00     0.318 HD
ENDROOT
BRANCH   6  18
HETATM   18  C4  UNL     1      26.569   5.578  48.985  1.00  0.00     0.152 C 
BRANCH  18  19
HETATM   19  C5  UNL     1      25.736   6.868  49.009  1.00  0.00     0.147 A 
HETATM   20  N3  UNL     1      26.052   7.664  50.161  1.00  0.00    -0.293 NA
HETATM   21  C6  UNL     1      26.435   8.859  50.056  1.00  0.00     0.110 A 
HETATM   22  C7  UNL     1      26.636   9.672  48.866  1.00  0.00     0.016 A 
HETATM   23  C8  UNL     1      26.342   8.969  47.785  1.00  0.00    -0.003 A 
HETATM   24  C9  UNL     1      25.868   7.568  47.692  1.00  0.00     0.131 A 
HETATM   25 CL1  UNL     1      24.261   7.663  46.866  1.00  0.00    -0.118 Cl
ENDBRANCH  18  19
ENDBRANCH   6  18
TORSDOF 2
ENDMDL
MODEL 8
REMARK VINA RESULT:      -7.3      4.360      5.713
REMARK  2 active torsions:
REMARK  status: ('A' for Active; 'I' for Inactive)
REMARK    1  A    between atoms: N2_6  and  C4_7 
REMARK    2  A    between atoms: C4_7  and  C5_8 
ROOT
HETATM    1  O1  UNL     1      24.031   2.531  51.805  1.00  0.00     0.000 OA
HETATM    2  C1  UNL     1      24.074   2.286  53.061  1.00  0.00     0.290 A 
HETATM    3  N1  UNL     1      25.109   3.043  52.390  1.00  0.00     0.117 N 
HETATM    4  C2  UNL     1      25.135   3.359  50.939  1.00  0.00     0.298 A 
HETATM    5  C3  UNL     1      24.504   4.488  50.522  1.00  0.00     0.097 C 
HETATM    6  N2  UNL     1      23.864   5.655  50.008  1.00  0.00    -0.380 N 
HETATM    7  C10 UNL     1      22.404   5.557  49.768  1.00  0.00     0.206 C 
HETATM    8  S1  UNL     1      21.408   5.069  51.154  1.00  0.00    -0.049 SA
HETATM    9  C11 UNL     1      21.497   3.425  51.733  1.00  0.00     0.291 C 
HETATM   10  O2  UNL     1      20.752   3.770  52.681  1.00  0.00    -0.259 OA
HETATM   11  N4  UNL     1      21.570   2.075  52.207  1.00  0.00    -0.284 N 
HETATM   12  C12 UNL     1      20.478   1.187  52.037  1.00  0.00     0.101 C 
HETATM   13  C13 UNL     1      20.548  -0.072  52.434  1.00  0.00     0.019 C 
HETATM   14  C14 UNL     1      21.817  -0.444  53.041  1.00  0.00     0.016 C 
HETATM   15  C15 UNL     1      22.800   0.380  53.267  1.00  0.00     0.002 C 
HETATM   16  C16 UNL     1      22.810   1.597  52.840  1.00  0.00     0.076 C 
HETATM   17  H1  UNL     1      25.991   3.524  52.572  1.00  0.00     0.318 HD
ENDROOT
BRANCH   6  18
HETATM   18  C4  UNL     1      24.654   6.840  49.743  1.00  0.00     0.152 C 
BRANCH  18  19
HETATM   19  C5  UNL     1      25.478   6.539  48.481  1.00  0.00     0.147 A 
HETATM   20  N3  UNL     1      25.130   7.432  47.413  1.00  0.00    -0.293 NA
HETATM   21  C6  UNL     1      25.993   8.147  46.839  1.00  0.00     0.110 A 
HETATM   22  C7  UNL     1      27.425   8.249  47.075  1.00  0.00     0.016 A 
HETATM   23  C8  UNL     1      27.781   7.428  48.049  1.00  0.00    -0.003 A 
HETATM   24  C9  UNL     1      26.932   6.504  48.837  1.00  0.00     0.131 A 
HETATM   25 CL1  UNL     1      27.614   4.856  48.532  1.00  0.00    -0.118 Cl
ENDBRANCH  18  19
ENDBRANCH   6  18
TORSDOF 2
ENDMDL
MODEL 9
REMARK VINA RESULT:      -7.3      3.818      5.998
REMARK  2 active torsions:
REMARK  status: ('A' for Active; 'I' for Inactive)
REMARK    1  A    between atoms: N2_6  and  C4_7 
REMARK    2  A    between atoms: C4_7  and  C5_8 
ROOT
HETATM    1  O1  UNL     1      23.006   1.283  52.403  1.00  0.00     0.000 OA
HETATM    2  C1  UNL     1      22.423   0.195  52.058  1.00  0.00     0.290 A 
HETATM    3  N1  UNL     1      22.323   1.405  51.270  1.00  0.00     0.117 N 
HETATM    4  C2  UNL     1      22.960   2.704  51.608  1.00  0.00     0.298 A 
HETATM    5  C3  UNL     1      24.227   2.923  51.173  1.00  0.00     0.097 C 
HETATM    6  N2  UNL     1      25.557   3.227  50.752  1.00  0.00    -0.380 N 
HETATM    7  C10 UNL     1      26.655   2.685  51.588  1.00  0.00     0.206 C 
HETATM    8  S1  UNL     1      26.655   0.930  51.850  1.00  0.00    -0.049 SA
HETATM    9  C11 UNL     1      25.431   0.219  52.870  1.00  0.00     0.291 C 
HETATM   10  O2  UNL     1      25.878  -0.906  52.542  1.00  0.00    -0.259 OA
HETATM   11  N4  UNL     1      24.425  -0.364  53.709  1.00  0.00    -0.284 N 
HETATM   12  C12 UNL     1      24.761  -0.907  54.973  1.00  0.00     0.101 C 
HETATM   13  C13 UNL     1      23.837  -1.411  55.773  1.00  0.00     0.019 C 
HETATM   14  C14 UNL     1      22.483  -1.352  55.243  1.00  0.00     0.016 C 
HETATM   15  C15 UNL     1      22.171  -0.921  54.054  1.00  0.00     0.002 C 
HETATM   16  C16 UNL     1      23.021  -0.358  53.264  1.00  0.00     0.076 C 
HETATM   17  H1  UNL     1      21.896   1.768  50.416  1.00  0.00     0.318 HD
ENDROOT
BRANCH   6  18
HETATM   18  C4  UNL     1      25.760   4.037  49.569  1.00  0.00     0.152 C 
BRANCH  18  19
HETATM   19  C5  UNL     1      24.888   5.290  49.745  1.00  0.00     0.147 A 
HETATM   20  N3  UNL     1      25.685   6.424  50.117  1.00  0.00    -0.293 NA
HETATM   21  C6  UNL     1      25.678   7.488  49.444  1.00  0.00     0.110 A 
HETATM   22  C7  UNL     1      24.937   7.823  48.237  1.00  0.00     0.016 A 
HETATM   23  C8  UNL     1      24.183   6.799  47.873  1.00  0.00    -0.003 A 
HETATM   24  C9  UNL     1      24.038   5.477  48.526  1.00  0.00     0.131 A 
HETATM   25 CL1  UNL     1      22.286   5.348  48.957  1.00  0.00    -0.118 Cl
ENDBRANCH  18  19
ENDBRANCH   6  18
TORSDOF 2
ENDMDL
