MODEL 1
REMARK VINA RESULT:      -8.5      0.000      0.000
REMARK  5 active torsions:
REMARK  status: ('A' for Active; 'I' for Inactive)
REMARK    1  A    between atoms: S1_2  and  C2_5 
REMARK    2  A    between atoms: C2_5  and  C3_6 
REMARK    3  A    between atoms: C3_6  and  N1_7 
REMARK    4  A    between atoms: N1_7  and  C4_8 
REMARK    5  A    between atoms: N4_24  and  C17_25 
ROOT
HETATM    1  C17 UNL     1      26.054   4.391  49.600  1.00  0.00     0.117 C 
HETATM    2  C18 UNL     1      27.114   4.798  48.879  1.00  0.00     0.418 C 
HETATM    3  F1  UNL     1      28.180   5.347  48.281  1.00  0.00    -0.429 F 
ENDROOT
BRANCH   1   4
HETATM    4  N4  UNL     1      25.317   3.219  49.297  1.00  0.00    -0.351 N 
HETATM    5  C16 UNL     1      24.268   3.593  50.002  1.00  0.00     0.116 C 
HETATM    6  C9  UNL     1      23.267   2.555  49.499  1.00  0.00     0.044 A 
HETATM    7  N3  UNL     1      23.711   4.494  50.960  1.00  0.00    -0.228 NA
HETATM    8  C8  UNL     1      22.961   1.831  50.554  1.00  0.00     0.015 A 
HETATM    9  C10 UNL     1      21.992   1.566  49.786  1.00  0.00     0.062 A 
HETATM   10  C7  UNL     1      22.210   1.929  49.310  1.00  0.00     0.029 A 
HETATM   11  C5  UNL     1      24.025   2.060  51.545  1.00  0.00    -0.047 A 
HETATM   12  C6  UNL     1      22.317   1.336  50.722  1.00  0.00    -0.008 A 
HETATM   13  O3  UNL     1      23.043   1.186  52.038  1.00  0.00     0.000 OA
HETATM   14  C4  UNL     1      25.088   2.362  52.365  1.00  0.00     0.149 C 
HETATM   15  C11 UNL     1      21.131   0.668  50.466  1.00  0.00    -0.018 A 
HETATM   16  C12 UNL     1      20.857   0.276  51.778  1.00  0.00    -0.019 C 
HETATM   17  C13 UNL     1      20.455   1.436  52.560  1.00  0.00     0.016 C 
HETATM   18  C14 UNL     1      20.833   2.755  52.422  1.00  0.00     0.117 C 
HETATM   19  N2  UNL     1      21.542   3.872  52.311  1.00  0.00    -0.254 NA
HETATM   20  C15 UNL     1      22.458   4.317  51.444  1.00  0.00     0.234 C 
HETATM   21  H17 UNL     1      26.059   2.886  48.759  1.00  0.00     0.166 HD
BRANCH  14  22
HETATM   22  N1  UNL     1      26.018   1.283  52.238  1.00  0.00    -0.417 N 
HETATM   23  H8  UNL     1      26.918   1.667  51.839  1.00  0.00     0.153 HD
BRANCH  22  24
HETATM   24  C3  UNL     1      26.204   0.335  53.233  1.00  0.00     0.129 C 
BRANCH  24  25
HETATM   25  C2  UNL     1      26.992   0.979  54.373  1.00  0.00     0.159 C 
BRANCH  25  26
HETATM   26  S1  UNL     1      28.627   1.452  53.875  1.00  0.00     0.142 S 
HETATM   27  C1  UNL     1      29.551  -0.040  53.550  1.00  0.00     0.161 C 
HETATM   28  O1  UNL     1      29.294   2.220  54.987  1.00  0.00    -0.228 OA
HETATM   29  O2  UNL     1      28.608   2.334  52.659  1.00  0.00    -0.228 OA
ENDBRANCH  25  26
ENDBRANCH  24  25
ENDBRANCH  22  24
ENDBRANCH  14  22
ENDBRANCH   1   4
TORSDOF 5
ENDMDL
MODEL 2
REMARK VINA RESULT:      -7.9      2.799      4.547
REMARK  5 active torsions:
REMARK  status: ('A' for Active; 'I' for Inactive)
REMARK    1  A    between atoms: S1_2  and  C2_5 
REMARK    2  A    between atoms: C2_5  and  C3_6 
REMARK    3  A    between atoms: C3_6  and  N1_7 
REMARK    4  A    between atoms: N1_7  and  C4_8 
REMARK    5  A    between atoms: N4_24  and  C17_25 
ROOT
HETATM    1  C17 UNL     1      22.205  -0.155  52.840  1.00  0.00     0.117 C 
HETATM    2  C18 UNL     1      22.002  -1.138  53.735  1.00  0.00     0.418 C 
HETATM    3  F1  UNL     1      21.804  -2.235  54.480  1.00  0.00    -0.429 F 
ENDROOT
BRANCH   1   4
HETATM    4  N4  UNL     1      22.312   1.210  53.203  1.00  0.00    -0.351 N 
HETATM    5  C16 UNL     1      22.371   1.627  51.953  1.00  0.00     0.116 C 
HETATM    6  C9  UNL     1      22.166   3.120  52.195  1.00  0.00     0.044 A 
HETATM    7  N3  UNL     1      22.526   1.296  50.573  1.00  0.00    -0.228 NA
HETATM    8  C8  UNL     1      23.286   3.690  51.803  1.00  0.00     0.015 A 
HETATM    9  C10 UNL     1      22.493   4.675  51.793  1.00  0.00     0.062 A 
HETATM   10  C7  UNL     1      21.995   4.336  51.999  1.00  0.00     0.029 A 
HETATM   11  C5  UNL     1      24.306   2.630  51.764  1.00  0.00    -0.047 A 
HETATM   12  C6  UNL     1      23.467   4.469  51.583  1.00  0.00    -0.008 A 
HETATM   13  O3  UNL     1      24.834   3.867  51.359  1.00  0.00     0.000 OA
HETATM   14  C4  UNL     1      25.152   1.544  51.781  1.00  0.00     0.149 C 
HETATM   15  C11 UNL     1      23.221   5.815  51.369  1.00  0.00    -0.018 A 
HETATM   16  C12 UNL     1      24.394   6.104  50.668  1.00  0.00    -0.019 C 
HETATM   17  C13 UNL     1      24.327   5.509  49.340  1.00  0.00     0.016 C 
HETATM   18  C14 UNL     1      23.678   4.364  48.928  1.00  0.00     0.117 C 
HETATM   19  N2  UNL     1      23.255   3.112  48.814  1.00  0.00    -0.254 NA
HETATM   20  C15 UNL     1      22.616   2.261  49.626  1.00  0.00     0.234 C 
HETATM   21  H17 UNL     1      22.272   0.967  54.146  1.00  0.00     0.166 HD
BRANCH  14  22
HETATM   22  N1  UNL     1      25.874   1.613  53.014  1.00  0.00    -0.417 N 
HETATM   23  H8  UNL     1      25.696   2.558  53.449  1.00  0.00     0.153 HD
BRANCH  22  24
HETATM   24  C3  UNL     1      25.897   0.569  53.927  1.00  0.00     0.129 C 
BRANCH  24  25
HETATM   25  C2  UNL     1      27.120  -0.300  53.635  1.00  0.00     0.159 C 
BRANCH  25  26
HETATM   26  S1  UNL     1      28.641   0.591  53.840  1.00  0.00     0.142 S 
HETATM   27  C1  UNL     1      29.983  -0.545  53.533  1.00  0.00     0.161 C 
HETATM   28  O1  UNL     1      28.738   1.108  55.252  1.00  0.00    -0.228 OA
HETATM   29  O2  UNL     1      28.727   1.770  52.914  1.00  0.00    -0.228 OA
ENDBRANCH  25  26
ENDBRANCH  24  25
ENDBRANCH  22  24
ENDBRANCH  14  22
ENDBRANCH   1   4
TORSDOF 5
ENDMDL
MODEL 3
REMARK VINA RESULT:      -7.7      3.386      5.864
REMARK  5 active torsions:
REMARK  status: ('A' for Active; 'I' for Inactive)
REMARK    1  A    between atoms: S1_2  and  C2_5 
REMARK    2  A    between atoms: C2_5  and  C3_6 
REMARK    3  A    between atoms: C3_6  and  N1_7 
REMARK    4  A    between atoms: N1_7  and  C4_8 
REMARK    5  A    between atoms: N4_24  and  C17_25 
ROOT
HETATM    1  C17 UNL     1      23.822   3.742  52.935  1.00  0.00     0.117 C 
HETATM    2  C18 UNL     1      23.188   4.720  52.265  1.00  0.00     0.418 C 
HETATM    3  F1  UNL     1      22.612   5.808  51.736  1.00  0.00    -0.429 F 
ENDROOT
BRANCH   1   4
HETATM    4  N4  UNL     1      23.871   2.400  52.482  1.00  0.00    -0.351 N 
HETATM    5  C16 UNL     1      24.861   2.073  53.289  1.00  0.00     0.116 C 
HETATM    6  C9  UNL     1      24.802   0.556  53.128  1.00  0.00     0.044 A 
HETATM    7  N3  UNL     1      25.884   2.504  54.188  1.00  0.00    -0.228 NA
HETATM    8  C8  UNL     1      25.947   0.222  52.572  1.00  0.00     0.015 A 
HETATM    9  C10 UNL     1      25.573  -0.888  53.046  1.00  0.00     0.062 A 
HETATM   10  C7  UNL     1      25.027  -0.657  53.279  1.00  0.00     0.029 A 
HETATM   11  C5  UNL     1      26.500   1.451  51.979  1.00  0.00    -0.047 A 
HETATM   12  C6  UNL     1      26.358  -0.497  52.531  1.00  0.00    -0.008 A 
HETATM   13  O3  UNL     1      27.357   0.356  51.786  1.00  0.00     0.000 OA
HETATM   14  C4  UNL     1      26.888   2.670  51.471  1.00  0.00     0.149 C 
HETATM   15  C11 UNL     1      26.566  -1.851  52.735  1.00  0.00    -0.018 A 
HETATM   16  C12 UNL     1      27.918  -1.880  52.385  1.00  0.00    -0.019 C 
HETATM   17  C13 UNL     1      28.705  -1.233  53.426  1.00  0.00     0.016 C 
HETATM   18  C14 UNL     1      28.353  -0.204  54.273  1.00  0.00     0.117 C 
HETATM   19  N2  UNL     1      27.930   0.955  54.762  1.00  0.00    -0.254 NA
HETATM   20  C15 UNL     1      26.775   1.627  54.709  1.00  0.00     0.234 C 
HETATM   21  H17 UNL     1      23.138   2.578  51.864  1.00  0.00     0.166 HD
BRANCH  14  22
HETATM   22  N1  UNL     1      26.531   2.664  50.086  1.00  0.00    -0.417 N 
HETATM   23  H8  UNL     1      25.570   2.237  49.994  1.00  0.00     0.153 HD
BRANCH  22  24
HETATM   24  C3  UNL     1      26.744   3.753  49.254  1.00  0.00     0.129 C 
BRANCH  24  25
HETATM   25  C2  UNL     1      25.596   4.743  49.450  1.00  0.00     0.159 C 
BRANCH  25  26
HETATM   26  S1  UNL     1      26.052   6.397  48.998  1.00  0.00     0.142 S 
HETATM   27  C1  UNL     1      27.725   6.351  48.380  1.00  0.00     0.161 C 
HETATM   28  O1  UNL     1      25.991   7.288  50.212  1.00  0.00    -0.228 OA
HETATM   29  O2  UNL     1      25.125   6.969  47.964  1.00  0.00    -0.228 OA
ENDBRANCH  25  26
ENDBRANCH  24  25
ENDBRANCH  22  24
ENDBRANCH  14  22
ENDBRANCH   1   4
TORSDOF 5
ENDMDL
MODEL 4
REMARK VINA RESULT:      -7.6      3.344      6.173
REMARK  5 active torsions:
REMARK  status: ('A' for Active; 'I' for Inactive)
REMARK    1  A    between atoms: S1_2  and  C2_5 
REMARK    2  A    between atoms: C2_5  and  C3_6 
REMARK    3  A    between atoms: C3_6  and  N1_7 
REMARK    4  A    between atoms: N1_7  and  C4_8 
REMARK    5  A    between atoms: N4_24  and  C17_25 
ROOT
HETATM    1  C17 UNL     1      21.846   5.567  50.625  1.00  0.00     0.117 C 
HETATM    2  C18 UNL     1      21.505   6.863  50.742  1.00  0.00     0.418 C 
HETATM    3  F1  UNL     1      21.161   8.156  50.670  1.00  0.00    -0.429 F 
ENDROOT
BRANCH   1   4
HETATM    4  N4  UNL     1      22.085   4.728  51.742  1.00  0.00    -0.351 N 
HETATM    5  C16 UNL     1      23.314   4.432  51.365  1.00  0.00     0.116 C 
HETATM    6  C9  UNL     1      23.803   3.780  52.656  1.00  0.00     0.044 A 
HETATM    7  N3  UNL     1      24.308   4.468  50.340  1.00  0.00    -0.228 NA
HETATM    8  C8  UNL     1      24.051   2.527  52.338  1.00  0.00     0.015 A 
HETATM    9  C10 UNL     1      24.712   2.642  53.408  1.00  0.00     0.062 A 
HETATM   10  C7  UNL     1      24.539   3.248  53.505  1.00  0.00     0.029 A 
HETATM   11  C5  UNL     1      23.332   2.263  51.081  1.00  0.00    -0.047 A 
HETATM   12  C6  UNL     1      24.517   1.942  52.697  1.00  0.00    -0.008 A 
HETATM   13  O3  UNL     1      24.048   1.134  51.511  1.00  0.00     0.000 OA
HETATM   14  C4  UNL     1      22.604   2.159  49.917  1.00  0.00     0.149 C 
HETATM   15  C11 UNL     1      25.345   1.400  53.665  1.00  0.00    -0.018 A 
HETATM   16  C12 UNL     1      25.721   0.255  52.960  1.00  0.00    -0.019 C 
HETATM   17  C13 UNL     1      26.624   0.623  51.878  1.00  0.00     0.016 C 
HETATM   18  C14 UNL     1      26.680   1.792  51.148  1.00  0.00     0.117 C 
HETATM   19  N2  UNL     1      26.370   2.835  50.389  1.00  0.00    -0.254 NA
HETATM   20  C15 UNL     1      25.502   3.848  50.499  1.00  0.00     0.234 C 
HETATM   21  H17 UNL     1      21.187   4.907  52.075  1.00  0.00     0.166 HD
BRANCH  14  22
HETATM   22  N1  UNL     1      21.366   1.535  50.266  1.00  0.00    -0.417 N 
HETATM   23  H8  UNL     1      21.123   1.813  51.256  1.00  0.00     0.153 HD
BRANCH  22  24
HETATM   24  C3  UNL     1      20.276   1.501  49.409  1.00  0.00     0.129 C 
BRANCH  24  25
HETATM   25  C2  UNL     1      19.304   2.607  49.819  1.00  0.00     0.159 C 
BRANCH  25  26
HETATM   26  S1  UNL     1      18.774   2.442  51.504  1.00  0.00     0.142 S 
HETATM   27  C1  UNL     1      17.157   3.186  51.640  1.00  0.00     0.161 C 
HETATM   28  O1  UNL     1      19.735   3.167  52.410  1.00  0.00    -0.228 OA
HETATM   29  O2  UNL     1      18.731   1.005  51.939  1.00  0.00    -0.228 OA
ENDBRANCH  25  26
ENDBRANCH  24  25
ENDBRANCH  22  24
ENDBRANCH  14  22
ENDBRANCH   1   4
TORSDOF 5
ENDMDL
MODEL 5
REMARK VINA RESULT:      -7.2      3.262      5.760
REMARK  5 active torsions:
REMARK  status: ('A' for Active; 'I' for Inactive)
REMARK    1  A    between atoms: S1_2  and  C2_5 
REMARK    2  A    between atoms: C2_5  and  C3_6 
REMARK    3  A    between atoms: C3_6  and  N1_7 
REMARK    4  A    between atoms: N1_7  and  C4_8 
REMARK    5  A    between atoms: N4_24  and  C17_25 
ROOT
HETATM    1  C17 UNL     1      21.514   4.472  51.787  1.00  0.00     0.117 C 
HETATM    2  C18 UNL     1      21.492   3.222  52.281  1.00  0.00     0.418 C 
HETATM    3  F1  UNL     1      21.311   1.954  52.676  1.00  0.00    -0.429 F 
ENDROOT
BRANCH   1   4
HETATM    4  N4  UNL     1      22.536   5.405  52.090  1.00  0.00    -0.351 N 
HETATM    5  C16 UNL     1      22.688   5.777  50.834  1.00  0.00     0.116 C 
HETATM    6  C9  UNL     1      23.547   7.019  51.060  1.00  0.00     0.044 A 
HETATM    7  N3  UNL     1      22.404   5.532  49.455  1.00  0.00    -0.228 NA
HETATM    8  C8  UNL     1      24.701   6.749  50.487  1.00  0.00     0.015 A 
HETATM    9  C10 UNL     1      24.757   8.009  50.568  1.00  0.00     0.062 A 
HETATM   10  C7  UNL     1      24.191   8.062  50.856  1.00  0.00     0.029 A 
HETATM   11  C5  UNL     1      24.759   5.287  50.327  1.00  0.00    -0.047 A 
HETATM   12  C6  UNL     1      25.318   7.236  50.221  1.00  0.00    -0.008 A 
HETATM   13  O3  UNL     1      25.909   5.908  49.812  1.00  0.00     0.000 OA
HETATM   14  C4  UNL     1      24.679   3.915  50.249  1.00  0.00     0.149 C 
HETATM   15  C11 UNL     1      25.989   8.428  50.006  1.00  0.00    -0.018 A 
HETATM   16  C12 UNL     1      26.957   7.935  49.129  1.00  0.00    -0.019 C 
HETATM   17  C13 UNL     1      26.342   7.631  47.844  1.00  0.00     0.016 C 
HETATM   18  C14 UNL     1      25.055   7.222  47.568  1.00  0.00     0.117 C 
HETATM   19  N2  UNL     1      23.904   6.562  47.555  1.00  0.00    -0.254 NA
HETATM   20  C15 UNL     1      22.979   6.274  48.478  1.00  0.00     0.234 C 
HETATM   21  H17 UNL     1      22.472   5.176  53.035  1.00  0.00     0.166 HD
BRANCH  14  22
HETATM   22  N1  UNL     1      25.424   3.402  51.357  1.00  0.00    -0.417 N 
HETATM   23  H8  UNL     1      24.750   2.921  52.013  1.00  0.00     0.153 HD
BRANCH  22  24
HETATM   24  C3  UNL     1      26.631   2.736  51.203  1.00  0.00     0.129 C 
BRANCH  24  25
HETATM   25  C2  UNL     1      26.452   1.296  51.681  1.00  0.00     0.159 C 
BRANCH  25  26
HETATM   26  S1  UNL     1      25.796   1.212  53.327  1.00  0.00     0.142 S 
HETATM   27  C1  UNL     1      26.286  -0.353  54.030  1.00  0.00     0.161 C 
HETATM   28  O1  UNL     1      24.291   1.287  53.277  1.00  0.00    -0.228 OA
HETATM   29  O2  UNL     1      26.281   2.348  54.181  1.00  0.00    -0.228 OA
ENDBRANCH  25  26
ENDBRANCH  24  25
ENDBRANCH  22  24
ENDBRANCH  14  22
ENDBRANCH   1   4
TORSDOF 5
ENDMDL
MODEL 6
REMARK VINA RESULT:      -6.9      7.144      8.820
REMARK  5 active torsions:
REMARK  status: ('A' for Active; 'I' for Inactive)
REMARK    1  A    between atoms: S1_2  and  C2_5 
REMARK    2  A    between atoms: C2_5  and  C3_6 
REMARK    3  A    between atoms: C3_6  and  N1_7 
REMARK    4  A    between atoms: N1_7  and  C4_8 
REMARK    5  A    between atoms: N4_24  and  C17_25 
ROOT
HETATM    1  C17 UNL     1      31.267  10.778  46.587  1.00  0.00     0.117 C 
HETATM    2  C18 UNL     1      32.580  10.750  46.875  1.00  0.00     0.418 C 
HETATM    3  F1  UNL     1      33.879  10.910  47.164  1.00  0.00    -0.429 F 
ENDROOT
BRANCH   1   4
HETATM    4  N4  UNL     1      30.492   9.606  46.399  1.00  0.00    -0.351 N 
HETATM    5  C16 UNL     1      29.406  10.135  46.928  1.00  0.00     0.116 C 
HETATM    6  C9  UNL     1      28.396   9.076  46.495  1.00  0.00     0.044 A 
HETATM    7  N3  UNL     1      28.819  11.204  47.672  1.00  0.00    -0.228 NA
HETATM    8  C8  UNL     1      27.951   8.545  47.615  1.00  0.00     0.015 A 
HETATM    9  C10 UNL     1      27.044   8.203  46.804  1.00  0.00     0.062 A 
HETATM   10  C7  UNL     1      27.325   8.474  46.302  1.00  0.00     0.029 A 
HETATM   11  C5  UNL     1      28.932   8.884  48.659  1.00  0.00    -0.047 A 
HETATM   12  C6  UNL     1      27.266   8.113  47.793  1.00  0.00    -0.008 A 
HETATM   13  O3  UNL     1      27.858   8.146  49.182  1.00  0.00     0.000 OA
HETATM   14  C4  UNL     1      29.931   9.267  49.524  1.00  0.00     0.149 C 
HETATM   15  C11 UNL     1      26.071   7.466  47.526  1.00  0.00    -0.018 A 
HETATM   16  C12 UNL     1      25.655   7.303  48.849  1.00  0.00    -0.019 C 
HETATM   17  C13 UNL     1      25.253   8.592  49.396  1.00  0.00     0.016 C 
HETATM   18  C14 UNL     1      25.720   9.853  49.092  1.00  0.00     0.117 C 
HETATM   19  N2  UNL     1      26.501  10.904  48.880  1.00  0.00    -0.254 NA
HETATM   20  C15 UNL     1      27.519  11.163  48.050  1.00  0.00     0.234 C 
HETATM   21  H17 UNL     1      31.259   9.158  45.996  1.00  0.00     0.166 HD
BRANCH  14  22
HETATM   22  N1  UNL     1      30.803   8.141  49.662  1.00  0.00    -0.417 N 
HETATM   23  H8  UNL     1      30.257   7.270  49.421  1.00  0.00     0.153 HD
BRANCH  22  24
HETATM   24  C3  UNL     1      32.104   8.140  49.183  1.00  0.00     0.129 C 
BRANCH  24  25
HETATM   25  C2  UNL     1      32.519   6.693  48.917  1.00  0.00     0.159 C 
BRANCH  25  26
HETATM   26  S1  UNL     1      31.310   5.812  47.964  1.00  0.00     0.142 S 
HETATM   27  C1  UNL     1      32.076   4.318  47.359  1.00  0.00     0.161 C 
HETATM   28  O1  UNL     1      30.872   6.658  46.796  1.00  0.00    -0.228 OA
HETATM   29  O2  UNL     1      30.088   5.486  48.775  1.00  0.00    -0.228 OA
ENDBRANCH  25  26
ENDBRANCH  24  25
ENDBRANCH  22  24
ENDBRANCH  14  22
ENDBRANCH   1   4
TORSDOF 5
ENDMDL
MODEL 7
REMARK VINA RESULT:      -6.8      3.991      5.544
REMARK  5 active torsions:
REMARK  status: ('A' for Active; 'I' for Inactive)
REMARK    1  A    between atoms: S1_2  and  C2_5 
REMARK    2  A    between atoms: C2_5  and  C3_6 
REMARK    3  A    between atoms: C3_6  and  N1_7 
REMARK    4  A    between atoms: N1_7  and  C4_8 
REMARK    5  A    between atoms: N4_24  and  C17_25 
ROOT
HETATM    1  C17 UNL     1      23.126   8.403  47.840  1.00  0.00     0.117 C 
HETATM    2  C18 UNL     1      23.847   9.529  47.978  1.00  0.00     0.418 C 
HETATM    3  F1  UNL     1      24.402  10.741  48.120  1.00  0.00    -0.429 F 
ENDROOT
BRANCH   1   4
HETATM    4  N4  UNL     1      23.712   7.117  47.735  1.00  0.00    -0.351 N 
HETATM    5  C16 UNL     1      23.052   6.637  48.771  1.00  0.00     0.116 C 
HETATM    6  C9  UNL     1      23.354   5.154  48.574  1.00  0.00     0.044 A 
HETATM    7  N3  UNL     1      22.228   6.898  49.908  1.00  0.00    -0.228 NA
HETATM    8  C8  UNL     1      24.060   4.802  49.628  1.00  0.00     0.015 A 
HETATM    9  C10 UNL     1      23.661   3.677  49.214  1.00  0.00     0.062 A 
HETATM   10  C7  UNL     1      23.349   3.919  48.714  1.00  0.00     0.029 A 
HETATM   11  C5  UNL     1      24.583   6.046  50.217  1.00  0.00    -0.047 A 
HETATM   12  C6  UNL     1      24.215   4.065  49.973  1.00  0.00    -0.008 A 
HETATM   13  O3  UNL     1      24.974   4.920  50.960  1.00  0.00     0.000 OA
HETATM   14  C4  UNL     1      25.007   7.282  50.650  1.00  0.00     0.149 C 
HETATM   15  C11 UNL     1      24.169   2.686  50.092  1.00  0.00    -0.018 A 
HETATM   16  C12 UNL     1      24.662   2.599  51.395  1.00  0.00    -0.019 C 
HETATM   17  C13 UNL     1      23.652   3.075  52.331  1.00  0.00     0.016 C 
HETATM   18  C14 UNL     1      22.674   4.030  52.148  1.00  0.00     0.117 C 
HETATM   19  N2  UNL     1      22.032   5.156  51.870  1.00  0.00    -0.254 NA
HETATM   20  C15 UNL     1      21.894   5.910  50.773  1.00  0.00     0.234 C 
HETATM   21  H17 UNL     1      24.229   7.410  46.962  1.00  0.00     0.166 HD
BRANCH  14  22
HETATM   22  N1  UNL     1      26.340   7.449  50.159  1.00  0.00    -0.417 N 
HETATM   23  H8  UNL     1      26.476   6.791  49.344  1.00  0.00     0.153 HD
BRANCH  22  24
HETATM   24  C3  UNL     1      26.920   8.695  49.978  1.00  0.00     0.129 C 
BRANCH  24  25
HETATM   25  C2  UNL     1      28.178   8.524  49.128  1.00  0.00     0.159 C 
BRANCH  25  26
HETATM   26  S1  UNL     1      27.941   7.365  47.806  1.00  0.00     0.142 S 
HETATM   27  C1  UNL     1      29.175   7.699  46.561  1.00  0.00     0.161 C 
HETATM   28  O1  UNL     1      26.569   7.549  47.211  1.00  0.00    -0.228 OA
HETATM   29  O2  UNL     1      28.046   5.944  48.283  1.00  0.00    -0.228 OA
ENDBRANCH  25  26
ENDBRANCH  24  25
ENDBRANCH  22  24
ENDBRANCH  14  22
ENDBRANCH   1   4
TORSDOF 5
ENDMDL
MODEL 8
REMARK VINA RESULT:      -6.8      3.393      5.017
REMARK  5 active torsions:
REMARK  status: ('A' for Active; 'I' for Inactive)
REMARK    1  A    between atoms: S1_2  and  C2_5 
REMARK    2  A    between atoms: C2_5  and  C3_6 
REMARK    3  A    between atoms: C3_6  and  N1_7 
REMARK    4  A    between atoms: N1_7  and  C4_8 
REMARK    5  A    between atoms: N4_24  and  C17_25 
ROOT
HETATM    1  C17 UNL     1      20.719  -0.439  53.369  1.00  0.00     0.117 C 
HETATM    2  C18 UNL     1      19.603  -1.151  53.604  1.00  0.00     0.418 C 
HETATM    3  F1  UNL     1      18.594  -2.012  53.797  1.00  0.00    -0.429 F 
ENDROOT
BRANCH   1   4
HETATM    4  N4  UNL     1      20.775   0.972  53.485  1.00  0.00    -0.351 N 
HETATM    5  C16 UNL     1      20.832   1.163  52.182  1.00  0.00     0.116 C 
HETATM    6  C9  UNL     1      20.573   2.667  52.154  1.00  0.00     0.044 A 
HETATM    7  N3  UNL     1      21.013   0.598  50.882  1.00  0.00    -0.228 NA
HETATM    8  C8  UNL     1      21.676   3.199  51.671  1.00  0.00     0.015 A 
HETATM    9  C10 UNL     1      20.850   4.137  51.484  1.00  0.00     0.062 A 
HETATM   10  C7  UNL     1      20.362   3.822  51.745  1.00  0.00     0.029 A 
HETATM   11  C5  UNL     1      22.733   2.185  51.825  1.00  0.00    -0.047 A 
HETATM   12  C6  UNL     1      21.833   3.932  51.318  1.00  0.00    -0.008 A 
HETATM   13  O3  UNL     1      23.222   3.350  51.210  1.00  0.00     0.000 OA
HETATM   14  C4  UNL     1      23.616   1.151  52.039  1.00  0.00     0.149 C 
HETATM   15  C11 UNL     1      21.543   5.209  50.867  1.00  0.00    -0.018 A 
HETATM   16  C12 UNL     1      22.712   5.411  50.131  1.00  0.00    -0.019 C 
HETATM   17  C13 UNL     1      22.679   4.589  48.929  1.00  0.00     0.016 C 
HETATM   18  C14 UNL     1      22.075   3.366  48.725  1.00  0.00     0.117 C 
HETATM   19  N2  UNL     1      21.697   2.099  48.833  1.00  0.00    -0.254 NA
HETATM   20  C15 UNL     1      21.080   1.383  49.780  1.00  0.00     0.234 C 
HETATM   21  H17 UNL     1      20.733   0.898  54.456  1.00  0.00     0.166 HD
BRANCH  14  22
HETATM   22  N1  UNL     1      24.323   1.463  53.242  1.00  0.00    -0.417 N 
HETATM   23  H8  UNL     1      23.960   0.835  54.010  1.00  0.00     0.153 HD
BRANCH  22  24
HETATM   24  C3  UNL     1      25.696   1.656  53.275  1.00  0.00     0.129 C 
BRANCH  24  25
HETATM   25  C2  UNL     1      26.373   0.408  52.711  1.00  0.00     0.159 C 
BRANCH  25  26
HETATM   26  S1  UNL     1      27.660  -0.195  53.772  1.00  0.00     0.142 S 
HETATM   27  C1  UNL     1      29.056   0.906  53.616  1.00  0.00     0.161 C 
HETATM   28  O1  UNL     1      28.066  -1.581  53.340  1.00  0.00    -0.228 OA
HETATM   29  O2  UNL     1      27.212  -0.276  55.204  1.00  0.00    -0.228 OA
ENDBRANCH  25  26
ENDBRANCH  24  25
ENDBRANCH  22  24
ENDBRANCH  14  22
ENDBRANCH   1   4
TORSDOF 5
ENDMDL
MODEL 9
REMARK VINA RESULT:      -6.7      2.182      3.175
REMARK  5 active torsions:
REMARK  status: ('A' for Active; 'I' for Inactive)
REMARK    1  A    between atoms: S1_2  and  C2_5 
REMARK    2  A    between atoms: C2_5  and  C3_6 
REMARK    3  A    between atoms: C3_6  and  N1_7 
REMARK    4  A    between atoms: N1_7  and  C4_8 
REMARK    5  A    between atoms: N4_24  and  C17_25 
ROOT
HETATM    1  C17 UNL     1      21.308   4.046  47.137  1.00  0.00     0.117 C 
HETATM    2  C18 UNL     1      22.168   5.036  46.836  1.00  0.00     0.418 C 
HETATM    3  F1  UNL     1      22.873   6.120  46.486  1.00  0.00    -0.429 F 
ENDROOT
BRANCH   1   4
HETATM    4  N4  UNL     1      21.723   2.790  47.646  1.00  0.00    -0.351 N 
HETATM    5  C16 UNL     1      21.018   2.909  48.754  1.00  0.00     0.116 C 
HETATM    6  C9  UNL     1      21.124   1.471  49.254  1.00  0.00     0.044 A 
HETATM    7  N3  UNL     1      20.248   3.750  49.614  1.00  0.00    -0.228 NA
HETATM    8  C8  UNL     1      21.790   1.548  50.387  1.00  0.00     0.015 A 
HETATM    9  C10 UNL     1      21.245   0.414  50.500  1.00  0.00     0.062 A 
HETATM   10  C7  UNL     1      20.961   0.441  49.931  1.00  0.00     0.029 A 
HETATM   11  C5  UNL     1      22.476   2.851  50.383  1.00  0.00    -0.047 A 
HETATM   12  C6  UNL     1      21.853   1.031  51.032  1.00  0.00    -0.008 A 
HETATM   13  O3  UNL     1      22.726   2.140  51.569  1.00  0.00     0.000 OA
HETATM   14  C4  UNL     1      23.060   4.088  50.239  1.00  0.00     0.149 C 
HETATM   15  C11 UNL     1      21.631  -0.131  51.751  1.00  0.00    -0.018 A 
HETATM   16  C12 UNL     1      22.123   0.318  52.978  1.00  0.00    -0.019 C 
HETATM   17  C13 UNL     1      21.193   1.280  53.554  1.00  0.00     0.016 C 
HETATM   18  C14 UNL     1      20.345   2.161  52.917  1.00  0.00     0.117 C 
HETATM   19  N2  UNL     1      19.850   3.112  52.135  1.00  0.00    -0.254 NA
HETATM   20  C15 UNL     1      19.798   3.303  50.812  1.00  0.00     0.234 C 
HETATM   21  H17 UNL     1      22.264   2.641  46.849  1.00  0.00     0.166 HD
BRANCH  14  22
HETATM   22  N1  UNL     1      24.398   3.856  49.790  1.00  0.00    -0.417 N 
HETATM   23  H8  UNL     1      24.519   4.329  48.853  1.00  0.00     0.153 HD
BRANCH  22  24
HETATM   24  C3  UNL     1      25.499   3.973  50.625  1.00  0.00     0.129 C 
BRANCH  24  25
HETATM   25  C2  UNL     1      26.328   2.694  50.514  1.00  0.00     0.159 C 
BRANCH  25  26
HETATM   26  S1  UNL     1      26.731   2.015  52.102  1.00  0.00     0.142 S 
HETATM   27  C1  UNL     1      26.676   0.237  51.965  1.00  0.00     0.161 C 
HETATM   28  O1  UNL     1      25.716   2.469  53.120  1.00  0.00    -0.228 OA
HETATM   29  O2  UNL     1      28.084   2.464  52.575  1.00  0.00    -0.228 OA
ENDBRANCH  25  26
ENDBRANCH  24  25
ENDBRANCH  22  24
ENDBRANCH  14  22
ENDBRANCH   1   4
TORSDOF 5
ENDMDL
