MODEL 1
REMARK VINA RESULT:      -8.7      0.000      0.000
REMARK  5 active torsions:
REMARK  status: ('A' for Active; 'I' for Inactive)
REMARK    1  A    between atoms: O1_2  and  C2_3 
REMARK    2  A    between atoms: C4_5  and  O2_6 
REMARK    3  A    between atoms: O2_6  and  C5_7 
REMARK    4  A    between atoms: C10_13  and  N1_14 
REMARK    5  A    between atoms: N1_14  and  C11_15 
ROOT
HETATM    1  C2  UNL     1      20.122  -0.511  53.094  1.00  0.00     0.073 A 
HETATM    2  C3  UNL     1      20.947   0.208  52.226  1.00  0.00     0.074 A 
HETATM    3  C4  UNL     1      22.305   0.320  52.429  1.00  0.00     0.088 A 
HETATM    4  C9  UNL     1      22.847  -0.303  53.528  1.00  0.00     0.072 A 
HETATM    5  C10 UNL     1      24.200  -0.193  53.734  1.00  0.00     0.144 A 
HETATM    6  N2  UNL     1      24.684  -0.814  54.812  1.00  0.00    -0.223 NA
HETATM    7  C17 UNL     1      23.903  -1.506  55.650  1.00  0.00     0.236 A 
HETATM    8  N3  UNL     1      22.600  -1.596  55.428  1.00  0.00    -0.241 NA
HETATM    9  C18 UNL     1      22.030  -1.012  54.382  1.00  0.00     0.077 A 
HETATM   10  C19 UNL     1      20.674  -1.134  54.195  1.00  0.00     0.069 A 
ENDROOT
BRANCH   5  11
HETATM   11  N1  UNL     1      25.110   0.531  52.923  1.00  0.00    -0.340 N 
HETATM   12  H12 UNL     1      25.112   1.158  52.103  1.00  0.00     0.167 HD
BRANCH  11  13
HETATM   13  C11 UNL     1      26.526   0.488  53.180  1.00  0.00     0.036 A 
HETATM   14  C12 UNL     1      27.124   1.671  53.565  1.00  0.00     0.029 A 
HETATM   15  C13 UNL     1      28.475   1.758  53.811  1.00  0.00     0.005 A 
HETATM   16  C14 UNL     1      29.313   0.649  53.684  1.00  0.00     0.042 A 
HETATM   17  C15 UNL     1      28.727  -0.519  53.304  1.00  0.00     0.118 A 
HETATM   18  F1  UNL     1      29.459  -1.658  53.152  1.00  0.00    -0.206 F 
HETATM   19  C16 UNL     1      27.379  -0.611  53.057  1.00  0.00     0.071 A 
ENDBRANCH  11  13
ENDBRANCH   5  11
BRANCH   3  20
HETATM   20  O2  UNL     1      23.028   1.035  51.540  1.00  0.00    -0.343 OA
BRANCH  20  21
HETATM   21  C5  UNL     1      22.845   2.293  51.012  1.00  0.00     0.154 C 
HETATM   22  C6  UNL     1      22.527   3.362  52.025  1.00  0.00     0.061 C 
HETATM   23  C7  UNL     1      23.865   3.946  52.356  1.00  0.00     0.170 C 
HETATM   24  O3  UNL     1      24.818   3.407  51.529  1.00  0.00    -0.389 OA
HETATM   25  C8  UNL     1      24.210   2.748  50.483  1.00  0.00     0.200 C 
ENDBRANCH  20  21
ENDBRANCH   3  20
BRANCH   1  26
HETATM   26  O1  UNL     1      18.753  -0.658  52.941  1.00  0.00    -0.356 OA
HETATM   27  C1  UNL     1      18.004  -1.736  53.436  1.00  0.00     0.210 C 
ENDBRANCH   1  26
TORSDOF 5
ENDMDL
MODEL 2
REMARK VINA RESULT:      -8.2      3.135      6.969
REMARK  5 active torsions:
REMARK  status: ('A' for Active; 'I' for Inactive)
REMARK    1  A    between atoms: O1_2  and  C2_3 
REMARK    2  A    between atoms: C4_5  and  O2_6 
REMARK    3  A    between atoms: O2_6  and  C5_7 
REMARK    4  A    between atoms: C10_13  and  N1_14 
REMARK    5  A    between atoms: N1_14  and  C11_15 
ROOT
HETATM    1  C2  UNL     1      26.567   3.772  49.735  1.00  0.00     0.073 A 
HETATM    2  C3  UNL     1      26.636   2.540  50.390  1.00  0.00     0.074 A 
HETATM    3  C4  UNL     1      25.670   2.130  51.282  1.00  0.00     0.088 A 
HETATM    4  C9  UNL     1      24.612   2.974  51.523  1.00  0.00     0.072 A 
HETATM    5  C10 UNL     1      23.648   2.567  52.412  1.00  0.00     0.144 A 
HETATM    6  N2  UNL     1      22.639   3.417  52.615  1.00  0.00    -0.223 NA
HETATM    7  C17 UNL     1      22.564   4.601  51.993  1.00  0.00     0.236 A 
HETATM    8  N3  UNL     1      23.508   4.968  51.139  1.00  0.00    -0.241 NA
HETATM    9  C18 UNL     1      24.548   4.188  50.875  1.00  0.00     0.077 A 
HETATM   10  C19 UNL     1      25.502   4.614  49.982  1.00  0.00     0.069 A 
ENDROOT
BRANCH   5  11
HETATM   11  N1  UNL     1      23.644   1.350  53.138  1.00  0.00    -0.340 N 
HETATM   12  H12 UNL     1      24.289   0.746  53.672  1.00  0.00     0.167 HD
BRANCH  11  13
HETATM   13  C11 UNL     1      22.440   0.573  53.273  1.00  0.00     0.036 A 
HETATM   14  C12 UNL     1      22.393  -0.324  54.322  1.00  0.00     0.029 A 
HETATM   15  C13 UNL     1      21.305  -1.140  54.535  1.00  0.00     0.005 A 
HETATM   16  C14 UNL     1      20.188  -1.101  53.698  1.00  0.00     0.042 A 
HETATM   17  C15 UNL     1      20.231  -0.217  52.664  1.00  0.00     0.118 A 
HETATM   18  F1  UNL     1      19.191  -0.103  51.791  1.00  0.00    -0.206 F 
HETATM   19  C16 UNL     1      21.314   0.598  52.447  1.00  0.00     0.071 A 
ENDBRANCH  11  13
ENDBRANCH   5  11
BRANCH   3  20
HETATM   20  O2  UNL     1      25.815   0.922  51.872  1.00  0.00    -0.343 OA
BRANCH  20  21
HETATM   21  C5  UNL     1      26.894   0.327  52.485  1.00  0.00     0.154 C 
HETATM   22  C6  UNL     1      27.326   0.976  53.773  1.00  0.00     0.061 C 
HETATM   23  C7  UNL     1      26.593   0.201  54.824  1.00  0.00     0.170 C 
HETATM   24  O3  UNL     1      25.950  -0.864  54.243  1.00  0.00    -0.389 OA
HETATM   25  C8  UNL     1      26.420  -1.051  52.961  1.00  0.00     0.200 C 
ENDBRANCH  20  21
ENDBRANCH   3  20
BRANCH   1  26
HETATM   26  O1  UNL     1      27.508   4.237  48.829  1.00  0.00    -0.356 OA
HETATM   27  C1  UNL     1      27.679   5.584  48.478  1.00  0.00     0.210 C 
ENDBRANCH   1  26
TORSDOF 5
ENDMDL
MODEL 3
REMARK VINA RESULT:      -7.9      2.215      4.666
REMARK  5 active torsions:
REMARK  status: ('A' for Active; 'I' for Inactive)
REMARK    1  A    between atoms: O1_2  and  C2_3 
REMARK    2  A    between atoms: C4_5  and  O2_6 
REMARK    3  A    between atoms: O2_6  and  C5_7 
REMARK    4  A    between atoms: C10_13  and  N1_14 
REMARK    5  A    between atoms: N1_14  and  C11_15 
ROOT
HETATM    1  C2  UNL     1      21.454   2.071  49.019  1.00  0.00     0.073 A 
HETATM    2  C3  UNL     1      21.484   1.313  50.192  1.00  0.00     0.074 A 
HETATM    3  C4  UNL     1      22.540   1.369  51.074  1.00  0.00     0.088 A 
HETATM    4  C9  UNL     1      23.591   2.202  50.771  1.00  0.00     0.072 A 
HETATM    5  C10 UNL     1      24.647   2.258  51.648  1.00  0.00     0.144 A 
HETATM    6  N2  UNL     1      25.644   3.080  51.315  1.00  0.00    -0.223 NA
HETATM    7  C17 UNL     1      25.626   3.811  50.193  1.00  0.00     0.236 A 
HETATM    8  N3  UNL     1      24.596   3.737  49.364  1.00  0.00    -0.241 NA
HETATM    9  C18 UNL     1      23.559   2.947  49.613  1.00  0.00     0.077 A 
HETATM   10  C19 UNL     1      22.513   2.905  48.722  1.00  0.00     0.069 A 
ENDROOT
BRANCH   5  11
HETATM   11  N1  UNL     1      24.775   1.514  52.847  1.00  0.00    -0.340 N 
HETATM   12  H12 UNL     1      24.235   1.283  53.695  1.00  0.00     0.167 HD
BRANCH  11  13
HETATM   13  C11 UNL     1      25.983   0.787  53.142  1.00  0.00     0.036 A 
HETATM   14  C12 UNL     1      26.156  -0.419  52.494  1.00  0.00     0.029 A 
HETATM   15  C13 UNL     1      27.258  -1.214  52.716  1.00  0.00     0.005 A 
HETATM   16  C14 UNL     1      28.260  -0.837  53.613  1.00  0.00     0.042 A 
HETATM   17  C15 UNL     1      28.092   0.351  54.253  1.00  0.00     0.118 A 
HETATM   18  F1  UNL     1      29.014   0.808  55.146  1.00  0.00    -0.206 F 
HETATM   19  C16 UNL     1      26.994   1.147  54.034  1.00  0.00     0.071 A 
ENDBRANCH  11  13
ENDBRANCH   5  11
BRANCH   3  20
HETATM   20  O2  UNL     1      22.488   0.602  52.185  1.00  0.00    -0.343 OA
BRANCH  20  21
HETATM   21  C5  UNL     1      21.557  -0.314  52.622  1.00  0.00     0.154 C 
HETATM   22  C6  UNL     1      22.104  -1.387  53.526  1.00  0.00     0.061 C 
HETATM   23  C7  UNL     1      21.876  -0.842  54.902  1.00  0.00     0.170 C 
HETATM   24  O3  UNL     1      21.145   0.316  54.821  1.00  0.00    -0.389 OA
HETATM   25  C8  UNL     1      20.607   0.442  53.558  1.00  0.00     0.200 C 
ENDBRANCH  20  21
ENDBRANCH   3  20
BRANCH   1  26
HETATM   26  O1  UNL     1      20.420   2.056  48.096  1.00  0.00    -0.356 OA
HETATM   27  C1  UNL     1      19.388   3.004  48.037  1.00  0.00     0.210 C 
ENDBRANCH   1  26
TORSDOF 5
ENDMDL
MODEL 4
REMARK VINA RESULT:      -7.8      3.178      5.034
REMARK  5 active torsions:
REMARK  status: ('A' for Active; 'I' for Inactive)
REMARK    1  A    between atoms: O1_2  and  C2_3 
REMARK    2  A    between atoms: C4_5  and  O2_6 
REMARK    3  A    between atoms: O2_6  and  C5_7 
REMARK    4  A    between atoms: C10_13  and  N1_14 
REMARK    5  A    between atoms: N1_14  and  C11_15 
ROOT
HETATM    1  C2  UNL     1      20.887  -0.152  52.923  1.00  0.00     0.073 A 
HETATM    2  C3  UNL     1      22.136   0.270  53.387  1.00  0.00     0.074 A 
HETATM    3  C4  UNL     1      22.991   1.019  52.609  1.00  0.00     0.088 A 
HETATM    4  C9  UNL     1      22.586   1.352  51.338  1.00  0.00     0.072 A 
HETATM    5  C10 UNL     1      23.437   2.098  50.561  1.00  0.00     0.144 A 
HETATM    6  N2  UNL     1      23.002   2.399  49.335  1.00  0.00    -0.223 NA
HETATM    7  C17 UNL     1      21.808   1.999  48.880  1.00  0.00     0.236 A 
HETATM    8  N3  UNL     1      21.006   1.279  49.652  1.00  0.00    -0.241 NA
HETATM    9  C18 UNL     1      21.354   0.934  50.885  1.00  0.00     0.077 A 
HETATM   10  C19 UNL     1      20.487   0.186  51.646  1.00  0.00     0.069 A 
ENDROOT
BRANCH   5  11
HETATM   11  N1  UNL     1      24.726   2.552  50.935  1.00  0.00    -0.340 N 
HETATM   12  H12 UNL     1      25.470   2.341  51.619  1.00  0.00     0.167 HD
BRANCH  11  13
HETATM   13  C11 UNL     1      25.350   3.654  50.252  1.00  0.00     0.036 A 
HETATM   14  C12 UNL     1      26.517   3.380  49.567  1.00  0.00     0.029 A 
HETATM   15  C13 UNL     1      27.217   4.360  48.900  1.00  0.00     0.005 A 
HETATM   16  C14 UNL     1      26.779   5.686  48.881  1.00  0.00     0.042 A 
HETATM   17  C15 UNL     1      25.629   5.958  49.555  1.00  0.00     0.118 A 
HETATM   18  F1  UNL     1      25.119   7.221  49.596  1.00  0.00    -0.206 F 
HETATM   19  C16 UNL     1      24.928   4.985  50.223  1.00  0.00     0.071 A 
ENDBRANCH  11  13
ENDBRANCH   5  11
BRANCH   3  20
HETATM   20  O2  UNL     1      24.180   1.386  53.136  1.00  0.00    -0.343 OA
BRANCH  20  21
HETATM   21  C5  UNL     1      25.178   0.654  53.739  1.00  0.00     0.154 C 
HETATM   22  C6  UNL     1      25.722  -0.477  52.906  1.00  0.00     0.061 C 
HETATM   23  C7  UNL     1      26.902   0.130  52.211  1.00  0.00     0.170 C 
HETATM   24  O3  UNL     1      27.120   1.394  52.697  1.00  0.00    -0.389 OA
HETATM   25  C8  UNL     1      26.393   1.582  53.853  1.00  0.00     0.200 C 
ENDBRANCH  20  21
ENDBRANCH   3  20
BRANCH   1  26
HETATM   26  O1  UNL     1      19.987  -0.906  53.658  1.00  0.00    -0.356 OA
HETATM   27  C1  UNL     1      18.629  -1.062  53.341  1.00  0.00     0.210 C 
ENDBRANCH   1  26
TORSDOF 5
ENDMDL
MODEL 5
REMARK VINA RESULT:      -7.8      1.804      2.496
REMARK  5 active torsions:
REMARK  status: ('A' for Active; 'I' for Inactive)
REMARK    1  A    between atoms: O1_2  and  C2_3 
REMARK    2  A    between atoms: C4_5  and  O2_6 
REMARK    3  A    between atoms: O2_6  and  C5_7 
REMARK    4  A    between atoms: C10_13  and  N1_14 
REMARK    5  A    between atoms: N1_14  and  C11_15 
ROOT
HETATM    1  C2  UNL     1      20.435   2.833  52.419  1.00  0.00     0.073 A 
HETATM    2  C3  UNL     1      21.568   3.500  51.949  1.00  0.00     0.074 A 
HETATM    3  C4  UNL     1      22.830   2.956  52.040  1.00  0.00     0.088 A 
HETATM    4  C9  UNL     1      22.958   1.714  52.617  1.00  0.00     0.072 A 
HETATM    5  C10 UNL     1      24.215   1.169  52.710  1.00  0.00     0.144 A 
HETATM    6  N2  UNL     1      24.292  -0.038  53.275  1.00  0.00    -0.223 NA
HETATM    7  C17 UNL     1      23.212  -0.686  53.729  1.00  0.00     0.236 A 
HETATM    8  N3  UNL     1      22.011  -0.137  53.627  1.00  0.00    -0.241 NA
HETATM    9  C18 UNL     1      21.838   1.059  53.079  1.00  0.00     0.077 A 
HETATM   10  C19 UNL     1      20.571   1.587  52.996  1.00  0.00     0.069 A 
ENDROOT
BRANCH   5  11
HETATM   11  N1  UNL     1      25.421   1.778  52.282  1.00  0.00    -0.340 N 
HETATM   12  H12 UNL     1      25.748   2.532  51.657  1.00  0.00     0.167 HD
BRANCH  11  13
HETATM   13  C11 UNL     1      26.695   1.322  52.774  1.00  0.00     0.036 A 
HETATM   14  C12 UNL     1      27.515   2.271  53.350  1.00  0.00     0.029 A 
HETATM   15  C13 UNL     1      28.767   1.958  53.829  1.00  0.00     0.005 A 
HETATM   16  C14 UNL     1      29.272   0.658  53.759  1.00  0.00     0.042 A 
HETATM   17  C15 UNL     1      28.465  -0.280  53.193  1.00  0.00     0.118 A 
HETATM   18  F1  UNL     1      28.866  -1.577  53.077  1.00  0.00    -0.206 F 
HETATM   19  C16 UNL     1      27.216   0.028  52.712  1.00  0.00     0.071 A 
ENDBRANCH  11  13
ENDBRANCH   5  11
BRANCH   3  20
HETATM   20  O2  UNL     1      23.872   3.670  51.560  1.00  0.00    -0.343 OA
BRANCH  20  21
HETATM   21  C5  UNL     1      24.062   4.316  50.360  1.00  0.00     0.154 C 
HETATM   22  C6  UNL     1      25.290   5.188  50.300  1.00  0.00     0.061 C 
HETATM   23  C7  UNL     1      26.336   4.287  49.720  1.00  0.00     0.170 C 
HETATM   24  O3  UNL     1      25.760   3.103  49.336  1.00  0.00    -0.389 OA
HETATM   25  C8  UNL     1      24.388   3.231  49.327  1.00  0.00     0.200 C 
ENDBRANCH  20  21
ENDBRANCH   3  20
BRANCH   1  26
HETATM   26  O1  UNL     1      19.143   3.330  52.355  1.00  0.00    -0.356 OA
HETATM   27  C1  UNL     1      18.183   2.940  51.410  1.00  0.00     0.210 C 
ENDBRANCH   1  26
TORSDOF 5
ENDMDL
MODEL 6
REMARK VINA RESULT:      -7.8      3.314      6.974
REMARK  5 active torsions:
REMARK  status: ('A' for Active; 'I' for Inactive)
REMARK    1  A    between atoms: O1_2  and  C2_3 
REMARK    2  A    between atoms: C4_5  and  O2_6 
REMARK    3  A    between atoms: O2_6  and  C5_7 
REMARK    4  A    between atoms: C10_13  and  N1_14 
REMARK    5  A    between atoms: N1_14  and  C11_15 
ROOT
HETATM    1  C2  UNL     1      27.199  -0.053  53.587  1.00  0.00     0.073 A 
HETATM    2  C3  UNL     1      25.829  -0.163  53.839  1.00  0.00     0.074 A 
HETATM    3  C4  UNL     1      24.903   0.644  53.216  1.00  0.00     0.088 A 
HETATM    4  C9  UNL     1      25.360   1.582  52.321  1.00  0.00     0.072 A 
HETATM    5  C10 UNL     1      24.439   2.388  51.699  1.00  0.00     0.144 A 
HETATM    6  N2  UNL     1      24.927   3.283  50.837  1.00  0.00    -0.223 NA
HETATM    7  C17 UNL     1      26.238   3.397  50.589  1.00  0.00     0.236 A 
HETATM    8  N3  UNL     1      27.105   2.607  51.203  1.00  0.00    -0.241 NA
HETATM    9  C18 UNL     1      26.712   1.687  52.075  1.00  0.00     0.077 A 
HETATM   10  C19 UNL     1      27.650   0.891  52.687  1.00  0.00     0.069 A 
ENDROOT
BRANCH   5  11
HETATM   11  N1  UNL     1      23.037   2.365  51.906  1.00  0.00    -0.340 N 
HETATM   12  H12 UNL     1      22.353   2.330  52.678  1.00  0.00     0.167 HD
BRANCH  11  13
HETATM   13  C11 UNL     1      22.124   2.390  50.794  1.00  0.00     0.036 A 
HETATM   14  C12 UNL     1      22.076   1.259  50.003  1.00  0.00     0.029 A 
HETATM   15  C13 UNL     1      21.262   1.177  48.896  1.00  0.00     0.005 A 
HETATM   16  C14 UNL     1      20.438   2.239  48.517  1.00  0.00     0.042 A 
HETATM   17  C15 UNL     1      20.482   3.355  49.294  1.00  0.00     0.118 A 
HETATM   18  F1  UNL     1      19.716   4.444  49.008  1.00  0.00    -0.206 F 
HETATM   19  C16 UNL     1      21.294   3.441  50.399  1.00  0.00     0.071 A 
ENDBRANCH  11  13
ENDBRANCH   5  11
BRANCH   3  20
HETATM   20  O2  UNL     1      23.597   0.471  53.518  1.00  0.00    -0.343 OA
BRANCH  20  21
HETATM   21  C5  UNL     1      22.885  -0.646  53.891  1.00  0.00     0.154 C 
HETATM   22  C6  UNL     1      21.861  -0.411  54.971  1.00  0.00     0.061 C 
HETATM   23  C7  UNL     1      20.599  -0.141  54.211  1.00  0.00     0.170 C 
HETATM   24  O3  UNL     1      20.816  -0.354  52.873  1.00  0.00    -0.389 OA
HETATM   25  C8  UNL     1      22.007  -1.024  52.692  1.00  0.00     0.200 C 
ENDBRANCH  20  21
ENDBRANCH   3  20
BRANCH   1  26
HETATM   26  O1  UNL     1      28.176  -0.835  54.183  1.00  0.00    -0.356 OA
HETATM   27  C1  UNL     1      29.523  -0.866  53.792  1.00  0.00     0.210 C 
ENDBRANCH   1  26
TORSDOF 5
ENDMDL
MODEL 7
REMARK VINA RESULT:      -7.7      3.363      6.397
REMARK  5 active torsions:
REMARK  status: ('A' for Active; 'I' for Inactive)
REMARK    1  A    between atoms: O1_2  and  C2_3 
REMARK    2  A    between atoms: C4_5  and  O2_6 
REMARK    3  A    between atoms: O2_6  and  C5_7 
REMARK    4  A    between atoms: C10_13  and  N1_14 
REMARK    5  A    between atoms: N1_14  and  C11_15 
ROOT
HETATM    1  C2  UNL     1      25.778  -0.348  54.448  1.00  0.00     0.073 A 
HETATM    2  C3  UNL     1      25.543   0.433  53.314  1.00  0.00     0.074 A 
HETATM    3  C4  UNL     1      24.286   0.574  52.769  1.00  0.00     0.088 A 
HETATM    4  C9  UNL     1      23.242  -0.084  53.375  1.00  0.00     0.072 A 
HETATM    5  C10 UNL     1      21.987   0.054  52.833  1.00  0.00     0.144 A 
HETATM    6  N2  UNL     1      21.003  -0.601  53.454  1.00  0.00    -0.223 NA
HETATM    7  C17 UNL     1      21.218  -1.353  54.541  1.00  0.00     0.236 A 
HETATM    8  N3  UNL     1      22.438  -1.469  55.042  1.00  0.00    -0.241 NA
HETATM    9  C18 UNL     1      23.478  -0.854  54.493  1.00  0.00     0.077 A 
HETATM   10  C19 UNL     1      24.725  -1.005  55.050  1.00  0.00     0.069 A 
ENDROOT
BRANCH   5  11
HETATM   11  N1  UNL     1      21.656   0.804  51.677  1.00  0.00    -0.340 N 
HETATM   12  H12 UNL     1      22.110   1.225  50.851  1.00  0.00     0.167 HD
BRANCH  11  13
HETATM   13  C11 UNL     1      20.297   1.197  51.414  1.00  0.00     0.036 A 
HETATM   14  C12 UNL     1      19.546   0.347  50.626  1.00  0.00     0.029 A 
HETATM   15  C13 UNL     1      18.243   0.632  50.284  1.00  0.00     0.005 A 
HETATM   16  C14 UNL     1      17.612   1.798  50.720  1.00  0.00     0.042 A 
HETATM   17  C15 UNL     1      18.349   2.637  51.498  1.00  0.00     0.118 A 
HETATM   18  F1  UNL     1      17.824   3.801  51.974  1.00  0.00    -0.206 F 
HETATM   19  C16 UNL     1      19.649   2.358  51.841  1.00  0.00     0.071 A 
ENDBRANCH  11  13
ENDBRANCH   5  11
BRANCH   3  20
HETATM   20  O2  UNL     1      24.147   1.349  51.671  1.00  0.00    -0.343 OA
BRANCH  20  21
HETATM   21  C5  UNL     1      24.595   2.619  51.384  1.00  0.00     0.154 C 
HETATM   22  C6  UNL     1      24.224   3.125  50.015  1.00  0.00     0.061 C 
HETATM   23  C7  UNL     1      22.949   3.875  50.248  1.00  0.00     0.170 C 
HETATM   24  O3  UNL     1      22.696   3.941  51.595  1.00  0.00    -0.389 OA
HETATM   25  C8  UNL     1      23.820   3.572  52.301  1.00  0.00     0.200 C 
ENDBRANCH  20  21
ENDBRANCH   3  20
BRANCH   1  26
HETATM   26  O1  UNL     1      27.019  -0.527  55.039  1.00  0.00    -0.356 OA
HETATM   27  C1  UNL     1      28.174   0.196  54.706  1.00  0.00     0.210 C 
ENDBRANCH   1  26
TORSDOF 5
ENDMDL
MODEL 8
REMARK VINA RESULT:      -7.6      2.920      6.309
REMARK  5 active torsions:
REMARK  status: ('A' for Active; 'I' for Inactive)
REMARK    1  A    between atoms: O1_2  and  C2_3 
REMARK    2  A    between atoms: C4_5  and  O2_6 
REMARK    3  A    between atoms: O2_6  and  C5_7 
REMARK    4  A    between atoms: C10_13  and  N1_14 
REMARK    5  A    between atoms: N1_14  and  C11_15 
ROOT
HETATM    1  C2  UNL     1      26.580   0.144  52.998  1.00  0.00     0.073 A 
HETATM    2  C3  UNL     1      25.720   0.902  52.200  1.00  0.00     0.074 A 
HETATM    3  C4  UNL     1      24.357   0.917  52.400  1.00  0.00     0.088 A 
HETATM    4  C9  UNL     1      23.846   0.155  53.424  1.00  0.00     0.072 A 
HETATM    5  C10 UNL     1      22.488   0.168  53.625  1.00  0.00     0.144 A 
HETATM    6  N2  UNL     1      22.035  -0.585  54.631  1.00  0.00    -0.223 NA
HETATM    7  C17 UNL     1      22.851  -1.315  55.402  1.00  0.00     0.236 A 
HETATM    8  N3  UNL     1      24.158  -1.309  55.185  1.00  0.00    -0.241 NA
HETATM    9  C18 UNL     1      24.698  -0.591  54.209  1.00  0.00     0.077 A 
HETATM   10  C19 UNL     1      26.060  -0.618  54.024  1.00  0.00     0.069 A 
ENDROOT
BRANCH   5  11
HETATM   11  N1  UNL     1      21.538   0.884  52.856  1.00  0.00    -0.340 N 
HETATM   12  H12 UNL     1      21.430   1.794  52.380  1.00  0.00     0.167 HD
BRANCH  11  13
HETATM   13  C11 UNL     1      20.253   0.313  52.547  1.00  0.00     0.036 A 
HETATM   14  C12 UNL     1      19.706   0.640  51.322  1.00  0.00     0.029 A 
HETATM   15  C13 UNL     1      18.471   0.176  50.929  1.00  0.00     0.005 A 
HETATM   16  C14 UNL     1      17.707  -0.654  51.752  1.00  0.00     0.042 A 
HETATM   17  C15 UNL     1      18.244  -0.978  52.959  1.00  0.00     0.118 A 
HETATM   18  F1  UNL     1      17.577  -1.782  53.834  1.00  0.00    -0.206 F 
HETATM   19  C16 UNL     1      19.475  -0.517  53.356  1.00  0.00     0.071 A 
ENDBRANCH  11  13
ENDBRANCH   5  11
BRANCH   3  20
HETATM   20  O2  UNL     1      23.598   1.678  51.581  1.00  0.00    -0.343 OA
BRANCH  20  21
HETATM   21  C5  UNL     1      23.722   2.986  51.171  1.00  0.00     0.154 C 
HETATM   22  C6  UNL     1      22.715   3.423  50.140  1.00  0.00     0.061 C 
HETATM   23  C7  UNL     1      21.611   4.023  50.955  1.00  0.00     0.170 C 
HETATM   24  O3  UNL     1      21.993   4.082  52.271  1.00  0.00    -0.389 OA
HETATM   25  C8  UNL     1      23.349   3.858  52.375  1.00  0.00     0.200 C 
ENDBRANCH  20  21
ENDBRANCH   3  20
BRANCH   1  26
HETATM   26  O1  UNL     1      27.956   0.090  52.844  1.00  0.00    -0.356 OA
HETATM   27  C1  UNL     1      28.874  -0.039  53.897  1.00  0.00     0.210 C 
ENDBRANCH   1  26
TORSDOF 5
ENDMDL
MODEL 9
REMARK VINA RESULT:      -7.3      2.608      6.275
REMARK  5 active torsions:
REMARK  status: ('A' for Active; 'I' for Inactive)
REMARK    1  A    between atoms: O1_2  and  C2_3 
REMARK    2  A    between atoms: C4_5  and  O2_6 
REMARK    3  A    between atoms: O2_6  and  C5_7 
REMARK    4  A    between atoms: C10_13  and  N1_14 
REMARK    5  A    between atoms: N1_14  and  C11_15 
ROOT
HETATM    1  C2  UNL     1      25.382   5.007  49.252  1.00  0.00     0.073 A 
HETATM    2  C3  UNL     1      24.036   4.693  49.458  1.00  0.00     0.074 A 
HETATM    3  C4  UNL     1      23.644   3.589  50.182  1.00  0.00     0.088 A 
HETATM    4  C9  UNL     1      24.622   2.782  50.711  1.00  0.00     0.072 A 
HETATM    5  C10 UNL     1      24.234   1.680  51.432  1.00  0.00     0.144 A 
HETATM    6  N2  UNL     1      25.217   0.925  51.928  1.00  0.00    -0.223 NA
HETATM    7  C17 UNL     1      26.510   1.217  51.737  1.00  0.00     0.236 A 
HETATM    8  N3  UNL     1      26.857   2.286  51.036  1.00  0.00    -0.241 NA
HETATM    9  C18 UNL     1      25.948   3.095  50.505  1.00  0.00     0.077 A 
HETATM   10  C19 UNL     1      26.358   4.192  49.786  1.00  0.00     0.069 A 
ENDROOT
BRANCH   5  11
HETATM   11  N1  UNL     1      22.899   1.271  51.675  1.00  0.00    -0.340 N 
HETATM   12  H12 UNL     1      21.946   1.425  51.309  1.00  0.00     0.167 HD
BRANCH  11  13
HETATM   13  C11 UNL     1      22.589   0.349  52.736  1.00  0.00     0.036 A 
HETATM   14  C12 UNL     1      21.294  -0.129  52.786  1.00  0.00     0.029 A 
HETATM   15  C13 UNL     1      20.874  -0.993  53.771  1.00  0.00     0.005 A 
HETATM   16  C14 UNL     1      21.740  -1.434  54.774  1.00  0.00     0.042 A 
HETATM   17  C15 UNL     1      23.017  -0.965  54.727  1.00  0.00     0.118 A 
HETATM   18  F1  UNL     1      23.938  -1.335  55.660  1.00  0.00    -0.206 F 
HETATM   19  C16 UNL     1      23.440  -0.102  53.747  1.00  0.00     0.071 A 
ENDBRANCH  11  13
ENDBRANCH   5  11
BRANCH   3  20
HETATM   20  O2  UNL     1      22.320   3.359  50.332  1.00  0.00    -0.343 OA
BRANCH  20  21
HETATM   21  C5  UNL     1      21.278   4.197  50.657  1.00  0.00     0.154 C 
HETATM   22  C6  UNL     1      19.907   3.618  50.424  1.00  0.00     0.061 C 
HETATM   23  C7  UNL     1      19.542   3.025  51.749  1.00  0.00     0.170 C 
HETATM   24  O3  UNL     1      20.496   3.356  52.678  1.00  0.00    -0.389 OA
HETATM   25  C8  UNL     1      21.304   4.356  52.182  1.00  0.00     0.200 C 
ENDBRANCH  20  21
ENDBRANCH   3  20
BRANCH   1  26
HETATM   26  O1  UNL     1      25.835   6.102  48.533  1.00  0.00    -0.356 OA
HETATM   27  C1  UNL     1      27.164   6.550  48.514  1.00  0.00     0.210 C 
ENDBRANCH   1  26
TORSDOF 5
ENDMDL
