MODEL 1
REMARK VINA RESULT:      -7.8      0.000      0.000
REMARK  2 active torsions:
REMARK  status: ('A' for Active; 'I' for Inactive)
REMARK    1  A    between atoms: O1_2  and  C2_3 
REMARK    2  A    between atoms: C11_15  and  O3_16 
ROOT
HETATM    1  C2  UNL     1      23.344   2.717  49.850  1.00  0.00     0.071 C 
HETATM    2  C3  UNL     1      22.811   2.105  50.934  1.00  0.00     0.175 C 
HETATM    3  O2  UNL     1      22.509   1.742  52.285  1.00  0.00    -0.317 OA
HETATM    4  C4  UNL     1      23.525   0.959  52.847  1.00  0.00     0.109 A 
HETATM    5  C5  UNL     1      24.805   1.429  52.686  1.00  0.00     0.057 A 
HETATM    6  C6  UNL     1      26.066   1.030  53.036  1.00  0.00     0.042 A 
HETATM    7  C7  UNL     1      27.205   1.728  52.708  1.00  0.00     0.141 A 
HETATM    8  N1  UNL     1      28.331   1.144  53.146  1.00  0.00    -0.224 NA
HETATM    9  C8  UNL     1      28.280  -0.029  53.840  1.00  0.00     0.236 A 
HETATM   10  N2  UNL     1      27.141  -0.704  54.152  1.00  0.00    -0.241 NA
HETATM   11  C9  UNL     1      25.986  -0.154  53.733  1.00  0.00     0.075 A 
HETATM   12  C10 UNL     1      24.749  -0.755  53.976  1.00  0.00     0.072 A 
HETATM   13  C11 UNL     1      23.551  -0.223  53.550  1.00  0.00     0.104 A 
HETATM   14  N3  UNL     1      27.055   2.931  51.939  1.00  0.00    -0.350 N 
HETATM   15  C13 UNL     1      26.616   3.045  50.586  1.00  0.00     0.086 C 
HETATM   16  C14 UNL     1      25.678   3.342  49.697  1.00  0.00    -0.003 C 
HETATM   17  C15 UNL     1      24.340   3.814  50.112  1.00  0.00     0.095 C 
HETATM   18  H11 UNL     1      27.349   3.651  52.623  1.00  0.00     0.166 HD
ENDROOT
BRANCH   1  19
HETATM   19  O1  UNL     1      23.046   2.419  48.529  1.00  0.00    -0.358 OA
HETATM   20  C1  UNL     1      21.898   1.656  48.192  1.00  0.00     0.209 C 
ENDBRANCH   1  19
BRANCH  13  21
HETATM   21  O3  UNL     1      22.287  -0.712  53.723  1.00  0.00    -0.353 OA
HETATM   22  C12 UNL     1      21.484  -0.463  54.860  1.00  0.00     0.210 C 
ENDBRANCH  13  21
TORSDOF 2
ENDMDL
MODEL 2
REMARK VINA RESULT:      -7.5      2.890      6.246
REMARK  2 active torsions:
REMARK  status: ('A' for Active; 'I' for Inactive)
REMARK    1  A    between atoms: O1_2  and  C2_3 
REMARK    2  A    between atoms: C11_15  and  O3_16 
ROOT
HETATM    1  C2  UNL     1      27.442   0.028  53.474  1.00  0.00     0.071 C 
HETATM    2  C3  UNL     1      27.630   1.149  52.738  1.00  0.00     0.175 C 
HETATM    3  O2  UNL     1      27.509   2.477  52.221  1.00  0.00    -0.317 OA
HETATM    4  C4  UNL     1      26.392   2.605  51.385  1.00  0.00     0.109 A 
HETATM    5  C5  UNL     1      25.212   2.106  51.879  1.00  0.00     0.057 A 
HETATM    6  C6  UNL     1      23.917   2.000  51.450  1.00  0.00     0.042 A 
HETATM    7  C7  UNL     1      22.916   1.414  52.189  1.00  0.00     0.141 A 
HETATM    8  N1  UNL     1      21.728   1.411  51.566  1.00  0.00    -0.224 NA
HETATM    9  C8  UNL     1      21.596   1.953  50.320  1.00  0.00     0.236 A 
HETATM   10  N2  UNL     1      22.602   2.526  49.606  1.00  0.00    -0.241 NA
HETATM   11  C9  UNL     1      23.812   2.551  50.194  1.00  0.00     0.075 A 
HETATM   12  C10 UNL     1      24.930   3.099  49.561  1.00  0.00     0.072 A 
HETATM   13  C11 UNL     1      26.185   3.129  50.130  1.00  0.00     0.104 A 
HETATM   14  N3  UNL     1      23.261   0.867  53.471  1.00  0.00    -0.350 N 
HETATM   15  C13 UNL     1      24.095  -0.260  53.736  1.00  0.00     0.086 C 
HETATM   16  C14 UNL     1      25.253  -0.774  54.127  1.00  0.00    -0.003 C 
HETATM   17  C15 UNL     1      26.381   0.086  54.540  1.00  0.00     0.095 C 
HETATM   18  H11 UNL     1      22.748   1.502  54.109  1.00  0.00     0.166 HD
ENDROOT
BRANCH   1  19
HETATM   19  O1  UNL     1      28.143  -1.159  53.327  1.00  0.00    -0.358 OA
HETATM   20  C1  UNL     1      29.551  -1.203  53.497  1.00  0.00     0.209 C 
ENDBRANCH   1  19
BRANCH  13  21
HETATM   21  O3  UNL     1      27.347   3.632  49.616  1.00  0.00    -0.353 OA
HETATM   22  C12 UNL     1      27.425   4.781  48.796  1.00  0.00     0.210 C 
ENDBRANCH  13  21
TORSDOF 2
ENDMDL
MODEL 3
REMARK VINA RESULT:      -7.5      2.627      4.267
REMARK  2 active torsions:
REMARK  status: ('A' for Active; 'I' for Inactive)
REMARK    1  A    between atoms: O1_2  and  C2_3 
REMARK    2  A    between atoms: C11_15  and  O3_16 
ROOT
HETATM    1  C2  UNL     1      24.345   3.396  50.826  1.00  0.00     0.071 C 
HETATM    2  C3  UNL     1      25.521   2.780  51.090  1.00  0.00     0.175 C 
HETATM    3  O2  UNL     1      26.533   1.781  51.247  1.00  0.00    -0.317 OA
HETATM    4  C4  UNL     1      26.347   1.039  52.420  1.00  0.00     0.109 A 
HETATM    5  C5  UNL     1      25.077   0.562  52.634  1.00  0.00     0.057 A 
HETATM    6  C6  UNL     1      24.436  -0.173  53.594  1.00  0.00     0.042 A 
HETATM    7  C7  UNL     1      23.100  -0.494  53.542  1.00  0.00     0.141 A 
HETATM    8  N1  UNL     1      22.684  -1.212  54.596  1.00  0.00    -0.224 NA
HETATM    9  C8  UNL     1      23.555  -1.556  55.588  1.00  0.00     0.236 A 
HETATM   10  N2  UNL     1      24.874  -1.226  55.620  1.00  0.00    -0.241 NA
HETATM   11  C9  UNL     1      25.335  -0.505  54.582  1.00  0.00     0.075 A 
HETATM   12  C10 UNL     1      26.666  -0.091  54.501  1.00  0.00     0.072 A 
HETATM   13  C11 UNL     1      27.166   0.658  53.458  1.00  0.00     0.104 A 
HETATM   14  N3  UNL     1      22.337  -0.009  52.426  1.00  0.00    -0.350 N 
HETATM   15  C13 UNL     1      22.008   1.347  52.126  1.00  0.00     0.086 C 
HETATM   16  C14 UNL     1      22.196   2.453  51.419  1.00  0.00    -0.003 C 
HETATM   17  C15 UNL     1      23.214   2.523  50.351  1.00  0.00     0.095 C 
HETATM   18  H11 UNL     1      22.109  -0.891  51.934  1.00  0.00     0.166 HD
ENDROOT
BRANCH   1  19
HETATM   19  O1  UNL     1      24.100   4.754  50.955  1.00  0.00    -0.358 OA
HETATM   20  C1  UNL     1      24.902   5.710  50.279  1.00  0.00     0.209 C 
ENDBRANCH   1  19
BRANCH  13  21
HETATM   21  O3  UNL     1      28.437   1.122  53.267  1.00  0.00    -0.353 OA
HETATM   22  C12 UNL     1      28.898   2.385  53.703  1.00  0.00     0.210 C 
ENDBRANCH  13  21
TORSDOF 2
ENDMDL
MODEL 4
REMARK VINA RESULT:      -7.4      1.991      4.422
REMARK  2 active torsions:
REMARK  status: ('A' for Active; 'I' for Inactive)
REMARK    1  A    between atoms: O1_2  and  C2_3 
REMARK    2  A    between atoms: C11_15  and  O3_16 
ROOT
HETATM    1  C2  UNL     1      20.894   1.866  52.119  1.00  0.00     0.071 C 
HETATM    2  C3  UNL     1      21.938   2.201  51.325  1.00  0.00     0.175 C 
HETATM    3  O2  UNL     1      23.118   2.127  50.520  1.00  0.00    -0.317 OA
HETATM    4  C4  UNL     1      24.273   2.027  51.306  1.00  0.00     0.109 A 
HETATM    5  C5  UNL     1      24.239   1.086  52.306  1.00  0.00     0.057 A 
HETATM    6  C6  UNL     1      25.082   0.644  53.289  1.00  0.00     0.042 A 
HETATM    7  C7  UNL     1      24.753  -0.342  54.188  1.00  0.00     0.141 A 
HETATM    8  N1  UNL     1      25.730  -0.606  55.070  1.00  0.00    -0.224 NA
HETATM    9  C8  UNL     1      26.910   0.077  55.023  1.00  0.00     0.236 A 
HETATM   10  N2  UNL     1      27.214   1.053  54.124  1.00  0.00    -0.241 NA
HETATM   11  C9  UNL     1      26.262   1.350  53.220  1.00  0.00     0.075 A 
HETATM   12  C10 UNL     1      26.444   2.340  52.253  1.00  0.00     0.072 A 
HETATM   13  C11 UNL     1      25.486   2.676  51.321  1.00  0.00     0.104 A 
HETATM   14  N3  UNL     1      23.443  -0.922  54.098  1.00  0.00    -0.350 N 
HETATM   15  C13 UNL     1      22.194  -0.285  54.363  1.00  0.00     0.086 C 
HETATM   16  C14 UNL     1      21.072   0.280  53.940  1.00  0.00    -0.003 C 
HETATM   17  C15 UNL     1      20.769   0.415  52.500  1.00  0.00     0.095 C 
HETATM   18  H11 UNL     1      23.666  -1.889  53.800  1.00  0.00     0.166 HD
ENDROOT
BRANCH   1  19
HETATM   19  O1  UNL     1      19.936   2.743  52.604  1.00  0.00    -0.358 OA
HETATM   20  C1  UNL     1      19.241   3.622  51.733  1.00  0.00     0.209 C 
ENDBRANCH   1  19
BRANCH  13  21
HETATM   21  O3  UNL     1      25.543   3.619  50.334  1.00  0.00    -0.353 OA
HETATM   22  C12 UNL     1      26.667   3.837  49.505  1.00  0.00     0.210 C 
ENDBRANCH  13  21
TORSDOF 2
ENDMDL
MODEL 5
REMARK VINA RESULT:      -7.3      2.501      4.978
REMARK  2 active torsions:
REMARK  status: ('A' for Active; 'I' for Inactive)
REMARK    1  A    between atoms: O1_2  and  C2_3 
REMARK    2  A    between atoms: C11_15  and  O3_16 
ROOT
HETATM    1  C2  UNL     1      26.504   0.317  53.801  1.00  0.00     0.071 C 
HETATM    2  C3  UNL     1      25.267  -0.227  53.897  1.00  0.00     0.175 C 
HETATM    3  O2  UNL     1      23.988  -0.775  53.564  1.00  0.00    -0.317 OA
HETATM    4  C4  UNL     1      23.077   0.226  53.205  1.00  0.00     0.109 A 
HETATM    5  C5  UNL     1      23.526   1.148  52.292  1.00  0.00     0.057 A 
HETATM    6  C6  UNL     1      23.028   2.259  51.668  1.00  0.00     0.042 A 
HETATM    7  C7  UNL     1      23.747   3.019  50.776  1.00  0.00     0.141 A 
HETATM    8  N1  UNL     1      23.061   4.068  50.297  1.00  0.00    -0.224 NA
HETATM    9  C8  UNL     1      21.778   4.300  50.699  1.00  0.00     0.236 A 
HETATM   10  N2  UNL     1      21.085   3.535  51.585  1.00  0.00    -0.241 NA
HETATM   11  C9  UNL     1      21.735   2.471  52.092  1.00  0.00     0.075 A 
HETATM   12  C10 UNL     1      21.141   1.615  53.021  1.00  0.00     0.072 A 
HETATM   13  C11 UNL     1      21.783   0.524  53.566  1.00  0.00     0.104 A 
HETATM   14  N3  UNL     1      25.102   2.630  50.505  1.00  0.00    -0.350 N 
HETATM   15  C13 UNL     1      26.209   2.666  51.404  1.00  0.00     0.086 C 
HETATM   16  C14 UNL     1      27.066   2.050  52.208  1.00  0.00    -0.003 C 
HETATM   17  C15 UNL     1      27.019   0.588  52.413  1.00  0.00     0.095 C 
HETATM   18  H11 UNL     1      25.037   2.335  49.514  1.00  0.00     0.166 HD
ENDROOT
BRANCH   1  19
HETATM   19  O1  UNL     1      27.328   0.639  54.868  1.00  0.00    -0.358 OA
HETATM   20  C1  UNL     1      28.689   0.238  54.889  1.00  0.00     0.209 C 
ENDBRANCH   1  19
BRANCH  13  21
HETATM   21  O3  UNL     1      21.314  -0.380  54.477  1.00  0.00    -0.353 OA
HETATM   22  C12 UNL     1      20.577  -1.539  54.142  1.00  0.00     0.210 C 
ENDBRANCH  13  21
TORSDOF 2
ENDMDL
MODEL 6
REMARK VINA RESULT:      -7.1      2.881      4.558
REMARK  2 active torsions:
REMARK  status: ('A' for Active; 'I' for Inactive)
REMARK    1  A    between atoms: O1_2  and  C2_3 
REMARK    2  A    between atoms: C11_15  and  O3_16 
ROOT
HETATM    1  C2  UNL     1      24.913   5.188  49.696  1.00  0.00     0.071 C 
HETATM    2  C3  UNL     1      25.975   4.454  50.105  1.00  0.00     0.175 C 
HETATM    3  O2  UNL     1      26.880   3.368  50.321  1.00  0.00    -0.317 OA
HETATM    4  C4  UNL     1      26.411   2.495  51.310  1.00  0.00     0.109 A 
HETATM    5  C5  UNL     1      25.104   2.094  51.187  1.00  0.00     0.057 A 
HETATM    6  C6  UNL     1      24.238   1.290  51.877  1.00  0.00     0.042 A 
HETATM    7  C7  UNL     1      22.930   1.083  51.505  1.00  0.00     0.141 A 
HETATM    8  N1  UNL     1      22.264   0.267  52.336  1.00  0.00    -0.224 NA
HETATM    9  C8  UNL     1      22.884  -0.270  53.426  1.00  0.00     0.236 A 
HETATM   10  N2  UNL     1      24.180  -0.050  53.777  1.00  0.00    -0.241 NA
HETATM   11  C9  UNL     1      24.886   0.764  52.971  1.00  0.00     0.075 A 
HETATM   12  C10 UNL     1      26.222   1.081  53.228  1.00  0.00     0.072 A 
HETATM   13  C11 UNL     1      26.969   1.920  52.429  1.00  0.00     0.104 A 
HETATM   14  N3  UNL     1      22.449   1.767  50.338  1.00  0.00    -0.350 N 
HETATM   15  C13 UNL     1      22.256   3.171  50.176  1.00  0.00     0.086 C 
HETATM   16  C14 UNL     1      22.644   4.343  49.690  1.00  0.00    -0.003 C 
HETATM   17  C15 UNL     1      23.871   4.474  48.876  1.00  0.00     0.095 C 
HETATM   18  H11 UNL     1      22.291   0.977  49.687  1.00  0.00     0.166 HD
ENDROOT
BRANCH   1  19
HETATM   19  O1  UNL     1      24.710   6.532  49.965  1.00  0.00    -0.358 OA
HETATM   20  C1  UNL     1      25.803   7.400  50.225  1.00  0.00     0.209 C 
ENDBRANCH   1  19
BRANCH  13  21
HETATM   21  O3  UNL     1      28.272   2.305  52.574  1.00  0.00    -0.353 OA
HETATM   22  C12 UNL     1      28.943   2.398  53.815  1.00  0.00     0.210 C 
ENDBRANCH  13  21
TORSDOF 2
ENDMDL
MODEL 7
REMARK VINA RESULT:      -7.0      2.630      4.564
REMARK  2 active torsions:
REMARK  status: ('A' for Active; 'I' for Inactive)
REMARK    1  A    between atoms: O1_2  and  C2_3 
REMARK    2  A    between atoms: C11_15  and  O3_16 
ROOT
HETATM    1  C2  UNL     1      25.996   3.184  50.805  1.00  0.00     0.071 C 
HETATM    2  C3  UNL     1      24.871   3.844  51.169  1.00  0.00     0.175 C 
HETATM    3  O2  UNL     1      23.794   4.379  51.943  1.00  0.00    -0.317 OA
HETATM    4  C4  UNL     1      22.827   3.405  52.222  1.00  0.00     0.109 A 
HETATM    5  C5  UNL     1      23.299   2.210  52.705  1.00  0.00     0.057 A 
HETATM    6  C6  UNL     1      22.767   1.012  53.097  1.00  0.00     0.042 A 
HETATM    7  C7  UNL     1      23.522  -0.049  53.539  1.00  0.00     0.141 A 
HETATM    8  N1  UNL     1      22.789  -1.126  53.861  1.00  0.00    -0.224 NA
HETATM    9  C8  UNL     1      21.430  -1.103  53.736  1.00  0.00     0.236 A 
HETATM   10  N2  UNL     1      20.703  -0.042  53.295  1.00  0.00    -0.241 NA
HETATM   11  C9  UNL     1      21.398   1.061  52.961  1.00  0.00     0.075 A 
HETATM   12  C10 UNL     1      20.771   2.214  52.481  1.00  0.00     0.072 A 
HETATM   13  C11 UNL     1      21.455   3.354  52.120  1.00  0.00     0.104 A 
HETATM   14  N3  UNL     1      24.948   0.109  53.567  1.00  0.00    -0.350 N 
HETATM   15  C13 UNL     1      25.826   0.249  52.451  1.00  0.00     0.086 C 
HETATM   16  C14 UNL     1      26.587   1.000  51.666  1.00  0.00    -0.003 C 
HETATM   17  C15 UNL     1      26.736   2.452  51.893  1.00  0.00     0.095 C 
HETATM   18  H11 UNL     1      25.138   0.090  54.585  1.00  0.00     0.166 HD
ENDROOT
BRANCH   1  19
HETATM   19  O1  UNL     1      26.520   3.131  49.522  1.00  0.00    -0.358 OA
HETATM   20  C1  UNL     1      27.134   4.267  48.935  1.00  0.00     0.209 C 
ENDBRANCH   1  19
BRANCH  13  21
HETATM   21  O3  UNL     1      20.961   4.534  51.640  1.00  0.00    -0.353 OA
HETATM   22  C12 UNL     1      20.650   4.775  50.282  1.00  0.00     0.210 C 
ENDBRANCH  13  21
TORSDOF 2
ENDMDL
MODEL 8
REMARK VINA RESULT:      -6.9      3.254      6.265
REMARK  2 active torsions:
REMARK  status: ('A' for Active; 'I' for Inactive)
REMARK    1  A    between atoms: O1_2  and  C2_3 
REMARK    2  A    between atoms: C11_15  and  O3_16 
ROOT
HETATM    1  C2  UNL     1      25.733  -0.450  53.893  1.00  0.00     0.071 C 
HETATM    2  C3  UNL     1      25.464   0.547  53.016  1.00  0.00     0.175 C 
HETATM    3  O2  UNL     1      24.911   1.719  52.411  1.00  0.00    -0.317 OA
HETATM    4  C4  UNL     1      23.623   1.484  51.915  1.00  0.00     0.109 A 
HETATM    5  C5  UNL     1      22.754   0.857  52.773  1.00  0.00     0.057 A 
HETATM    6  C6  UNL     1      21.454   0.429  52.741  1.00  0.00     0.042 A 
HETATM    7  C7  UNL     1      20.835  -0.207  53.791  1.00  0.00     0.141 A 
HETATM    8  N1  UNL     1      19.563  -0.546  53.533  1.00  0.00    -0.224 NA
HETATM    9  C8  UNL     1      19.001  -0.258  52.323  1.00  0.00     0.236 A 
HETATM   10  N2  UNL     1      19.633   0.372  51.296  1.00  0.00    -0.241 NA
HETATM   11  C9  UNL     1      20.912   0.730  51.512  1.00  0.00     0.075 A 
HETATM   12  C10 UNL     1      21.676   1.370  50.534  1.00  0.00     0.072 A 
HETATM   13  C11 UNL     1      22.991   1.739  50.720  1.00  0.00     0.104 A 
HETATM   14  N3  UNL     1      21.608  -0.451  54.976  1.00  0.00    -0.350 N 
HETATM   15  C13 UNL     1      22.721  -1.334  55.117  1.00  0.00     0.086 C 
HETATM   16  C14 UNL     1      24.027  -1.540  55.221  1.00  0.00    -0.003 C 
HETATM   17  C15 UNL     1      24.990  -0.420  55.202  1.00  0.00     0.095 C 
HETATM   18  H11 UNL     1      21.139   0.170  55.660  1.00  0.00     0.166 HD
ENDROOT
BRANCH   1  19
HETATM   19  O1  UNL     1      26.631  -1.485  53.686  1.00  0.00    -0.358 OA
HETATM   20  C1  UNL     1      26.806  -2.056  52.399  1.00  0.00     0.209 C 
ENDBRANCH   1  19
BRANCH  13  21
HETATM   21  O3  UNL     1      23.837   2.364  49.848  1.00  0.00    -0.353 OA
HETATM   22  C12 UNL     1      23.586   3.624  49.258  1.00  0.00     0.210 C 
ENDBRANCH  13  21
TORSDOF 2
ENDMDL
MODEL 9
REMARK VINA RESULT:      -6.3      4.180      7.192
REMARK  2 active torsions:
REMARK  status: ('A' for Active; 'I' for Inactive)
REMARK    1  A    between atoms: O1_2  and  C2_3 
REMARK    2  A    between atoms: C11_15  and  O3_16 
ROOT
HETATM    1  C2  UNL     1      23.617  -0.014  53.304  1.00  0.00     0.071 C 
HETATM    2  C3  UNL     1      23.284   1.033  52.511  1.00  0.00     0.175 C 
HETATM    3  O2  UNL     1      22.619   2.179  51.974  1.00  0.00    -0.317 OA
HETATM    4  C4  UNL     1      21.437   1.826  51.312  1.00  0.00     0.109 A 
HETATM    5  C5  UNL     1      20.596   0.981  51.994  1.00  0.00     0.057 A 
HETATM    6  C6  UNL     1      19.387   0.381  51.769  1.00  0.00     0.042 A 
HETATM    7  C7  UNL     1      18.775  -0.460  52.668  1.00  0.00     0.141 A 
HETATM    8  N1  UNL     1      17.601  -0.942  52.232  1.00  0.00    -0.224 NA
HETATM    9  C8  UNL     1      17.121  -0.593  51.003  1.00  0.00     0.236 A 
HETATM   10  N2  UNL     1      17.746   0.240  50.127  1.00  0.00    -0.241 NA
HETATM   11  C9  UNL     1      18.927   0.748  50.525  1.00  0.00     0.075 A 
HETATM   12  C10 UNL     1      19.675   1.604  49.713  1.00  0.00     0.072 A 
HETATM   13  C11 UNL     1      20.892   2.131  50.086  1.00  0.00     0.104 A 
HETATM   14  N3  UNL     1      19.457  -0.734  53.901  1.00  0.00    -0.350 N 
HETATM   15  C13 UNL     1      20.673  -1.459  54.075  1.00  0.00     0.086 C 
HETATM   16  C14 UNL     1      21.979  -1.488  54.305  1.00  0.00    -0.003 C 
HETATM   17  C15 UNL     1      22.755  -0.249  54.515  1.00  0.00     0.095 C 
HETATM   18  H11 UNL     1      18.833  -0.273  54.588  1.00  0.00     0.166 HD
ENDROOT
BRANCH   1  19
HETATM   19  O1  UNL     1      24.680  -0.878  53.093  1.00  0.00    -0.358 OA
HETATM   20  C1  UNL     1      25.913  -0.702  53.774  1.00  0.00     0.209 C 
ENDBRANCH   1  19
BRANCH  13  21
HETATM   21  O3  UNL     1      21.713   2.971  49.387  1.00  0.00    -0.353 OA
HETATM   22  C12 UNL     1      21.410   3.503  48.113  1.00  0.00     0.210 C 
ENDBRANCH  13  21
TORSDOF 2
ENDMDL
