MODEL 1
REMARK VINA RESULT:      -9.9      0.000      0.000
REMARK  5 active torsions:
REMARK  status: ('A' for Active; 'I' for Inactive)
REMARK    1  A    between atoms: C6_6  and  O1_7 
REMARK    2  A    between atoms: O1_7  and  C7_8 
REMARK    3  A    between atoms: C7_8  and  C8_9 
REMARK    4  A    between atoms: C8_9  and  C9_10 
REMARK    5  A    between atoms: C9_10  and  N1_11 
ROOT
HETATM    1  C1  UNL     1      27.244   2.510  51.868  1.00  0.00    -0.003 C 
HETATM    2  C2  UNL     1      26.604   2.337  50.736  1.00  0.00    -0.022 C 
HETATM    3  C3  UNL     1      26.182   2.884  49.436  1.00  0.00     0.068 C 
HETATM    4  C4  UNL     1      26.437   4.309  49.288  1.00  0.00    -0.025 A 
HETATM    5  C5  UNL     1      27.443   5.028  48.693  1.00  0.00     0.046 A 
HETATM    6  C6  UNL     1      27.471   6.405  48.694  1.00  0.00     0.069 A 
HETATM    7  C15 UNL     1      26.485   7.145  49.297  1.00  0.00     0.039 A 
HETATM    8  C16 UNL     1      25.455   6.413  49.906  1.00  0.00     0.033 A 
HETATM    9  C17 UNL     1      25.397   5.010  49.922  1.00  0.00     0.039 A 
HETATM   10  N2  UNL     1      24.247   4.511  50.594  1.00  0.00    -0.351 N 
HETATM   11  C18 UNL     1      24.129   3.775  51.807  1.00  0.00     0.203 C 
HETATM   12  N3  UNL     1      23.895   2.725  52.505  1.00  0.00    -0.265 NA
HETATM   13  C19 UNL     1      23.521   1.480  51.890  1.00  0.00     0.272 C 
HETATM   14  N4  UNL     1      23.973   0.386  52.762  1.00  0.00    -0.371 N 
HETATM   15  C20 UNL     1      25.247  -0.028  53.281  1.00  0.00     0.047 C 
HETATM   16  C21 UNL     1      26.455  -0.284  52.773  1.00  0.00     0.039 C 
HETATM   17  C22 UNL     1      27.256   0.705  53.473  1.00  0.00    -0.036 C 
HETATM   18  C23 UNL     1      27.618   1.912  53.126  1.00  0.00     0.009 C 
HETATM   19  C24 UNL     1      27.608   0.057  54.752  1.00  0.00     0.187 C 
HETATM   20  N5  UNL     1      26.372  -0.585  55.262  1.00  0.00    -0.295 NA
HETATM   21  C25 UNL     1      25.223  -0.212  54.751  1.00  0.00     0.139 C 
HETATM   22  H24 UNL     1      23.429   4.800  50.013  1.00  0.00     0.166 HD
HETATM   23  H28 UNL     1      23.197  -0.267  53.096  1.00  0.00     0.161 HD
ENDROOT
BRANCH   6  24
HETATM   24  O1  UNL     1      28.544   7.011  48.057  1.00  0.00    -0.351 OA
BRANCH  24  25
HETATM   25  C7  UNL     1      29.701   6.237  47.757  1.00  0.00     0.177 C 
BRANCH  25  26
HETATM   26  C8  UNL     1      30.919   6.695  48.513  1.00  0.00     0.057 C 
BRANCH  26  27
HETATM   27  C9  UNL     1      31.881   5.558  48.742  1.00  0.00     0.274 C 
BRANCH  27  28
HETATM   28  N1  UNL     1      32.492   5.080  47.552  1.00  0.00     0.088 N 
HETATM   29  C10 UNL     1      32.322   3.702  47.245  1.00  0.00     0.272 C 
HETATM   30  C11 UNL     1      33.420   2.795  47.751  1.00  0.00     0.030 C 
HETATM   31  C12 UNL     1      34.795   3.378  47.645  1.00  0.00     0.003 C 
HETATM   32  C13 UNL     1      34.803   4.760  48.256  1.00  0.00     0.030 C 
HETATM   33  C14 UNL     1      33.832   5.585  47.399  1.00  0.00     0.272 C 
ENDBRANCH  27  28
ENDBRANCH  26  27
ENDBRANCH  25  26
ENDBRANCH  24  25
ENDBRANCH   6  24
TORSDOF 5
ENDMDL
MODEL 2
REMARK VINA RESULT:      -9.4      1.494      2.031
REMARK  5 active torsions:
REMARK  status: ('A' for Active; 'I' for Inactive)
REMARK    1  A    between atoms: C6_6  and  O1_7 
REMARK    2  A    between atoms: O1_7  and  C7_8 
REMARK    3  A    between atoms: C7_8  and  C8_9 
REMARK    4  A    between atoms: C8_9  and  C9_10 
REMARK    5  A    between atoms: C9_10  and  N1_11 
ROOT
HETATM    1  C1  UNL     1      27.014   2.747  51.605  1.00  0.00    -0.003 C 
HETATM    2  C2  UNL     1      26.244   2.739  50.543  1.00  0.00    -0.022 C 
HETATM    3  C3  UNL     1      25.684   3.467  49.393  1.00  0.00     0.068 C 
HETATM    4  C4  UNL     1      25.945   4.899  49.421  1.00  0.00    -0.025 A 
HETATM    5  C5  UNL     1      26.888   5.696  48.821  1.00  0.00     0.046 A 
HETATM    6  C6  UNL     1      26.940   7.058  49.015  1.00  0.00     0.069 A 
HETATM    7  C15 UNL     1      26.043   7.704  49.829  1.00  0.00     0.039 A 
HETATM    8  C16 UNL     1      25.078   6.893  50.444  1.00  0.00     0.033 A 
HETATM    9  C17 UNL     1      24.998   5.502  50.265  1.00  0.00     0.039 A 
HETATM   10  N2  UNL     1      23.924   4.912  50.990  1.00  0.00    -0.351 N 
HETATM   11  C18 UNL     1      23.935   4.009  52.090  1.00  0.00     0.203 C 
HETATM   12  N3  UNL     1      23.765   2.870  52.654  1.00  0.00    -0.265 NA
HETATM   13  C19 UNL     1      23.300   1.726  51.915  1.00  0.00     0.272 C 
HETATM   14  N4  UNL     1      23.831   0.519  52.563  1.00  0.00    -0.371 N 
HETATM   15  C20 UNL     1      25.149   0.033  52.865  1.00  0.00     0.047 C 
HETATM   16  C21 UNL     1      26.286  -0.148  52.188  1.00  0.00     0.039 C 
HETATM   17  C22 UNL     1      27.179   0.730  52.923  1.00  0.00    -0.036 C 
HETATM   18  C23 UNL     1      27.519   1.974  52.713  1.00  0.00     0.009 C 
HETATM   19  C24 UNL     1      27.666  -0.096  54.047  1.00  0.00     0.187 C 
HETATM   20  N5  UNL     1      26.486  -0.804  54.601  1.00  0.00    -0.295 NA
HETATM   21  C25 UNL     1      25.293  -0.361  54.287  1.00  0.00     0.139 C 
HETATM   22  H24 UNL     1      23.050   5.283  50.556  1.00  0.00     0.166 HD
HETATM   23  H28 UNL     1      23.088  -0.175  52.889  1.00  0.00     0.161 HD
ENDROOT
BRANCH   6  24
HETATM   24  O1  UNL     1      27.942   7.749  48.351  1.00  0.00    -0.351 OA
BRANCH  24  25
HETATM   25  C7  UNL     1      28.219   9.096  48.720  1.00  0.00     0.177 C 
BRANCH  25  26
HETATM   26  C8  UNL     1      29.583   9.552  48.278  1.00  0.00     0.057 C 
BRANCH  26  27
HETATM   27  C9  UNL     1      30.665   8.969  49.150  1.00  0.00     0.274 C 
BRANCH  27  28
HETATM   28  N1  UNL     1      31.671   8.277  48.424  1.00  0.00     0.088 N 
HETATM   29  C10 UNL     1      31.292   7.701  47.180  1.00  0.00     0.272 C 
HETATM   30  C11 UNL     1      30.850   6.258  47.254  1.00  0.00     0.030 C 
HETATM   31  C12 UNL     1      31.645   5.420  48.206  1.00  0.00     0.003 C 
HETATM   32  C13 UNL     1      31.716   6.115  49.546  1.00  0.00     0.030 C 
HETATM   33  C14 UNL     1      32.461   7.430  49.280  1.00  0.00     0.272 C 
ENDBRANCH  27  28
ENDBRANCH  26  27
ENDBRANCH  25  26
ENDBRANCH  24  25
ENDBRANCH   6  24
TORSDOF 5
ENDMDL
MODEL 3
REMARK VINA RESULT:      -9.0      2.445      3.158
REMARK  5 active torsions:
REMARK  status: ('A' for Active; 'I' for Inactive)
REMARK    1  A    between atoms: C6_6  and  O1_7 
REMARK    2  A    between atoms: O1_7  and  C7_8 
REMARK    3  A    between atoms: C7_8  and  C8_9 
REMARK    4  A    between atoms: C8_9  and  C9_10 
REMARK    5  A    between atoms: C9_10  and  N1_11 
ROOT
HETATM    1  C1  UNL     1      27.030   2.740  51.672  1.00  0.00    -0.003 C 
HETATM    2  C2  UNL     1      26.291   2.699  50.590  1.00  0.00    -0.022 C 
HETATM    3  C3  UNL     1      25.758   3.393  49.406  1.00  0.00     0.068 C 
HETATM    4  C4  UNL     1      26.006   4.828  49.406  1.00  0.00    -0.025 A 
HETATM    5  C5  UNL     1      26.959   5.617  48.812  1.00  0.00     0.046 A 
HETATM    6  C6  UNL     1      26.994   6.984  48.974  1.00  0.00     0.069 A 
HETATM    7  C15 UNL     1      26.069   7.643  49.746  1.00  0.00     0.039 A 
HETATM    8  C16 UNL     1      25.094   6.839  50.353  1.00  0.00     0.033 A 
HETATM    9  C17 UNL     1      25.030   5.443  50.208  1.00  0.00     0.039 A 
HETATM   10  N2  UNL     1      23.942   4.862  50.916  1.00  0.00    -0.351 N 
HETATM   11  C18 UNL     1      23.929   3.987  52.039  1.00  0.00     0.203 C 
HETATM   12  N3  UNL     1      23.752   2.860  52.626  1.00  0.00    -0.265 NA
HETATM   13  C19 UNL     1      23.318   1.695  51.904  1.00  0.00     0.272 C 
HETATM   14  N4  UNL     1      23.840   0.508  52.596  1.00  0.00    -0.371 N 
HETATM   15  C20 UNL     1      25.153   0.043  52.948  1.00  0.00     0.047 C 
HETATM   16  C21 UNL     1      26.309  -0.145  52.307  1.00  0.00     0.039 C 
HETATM   17  C22 UNL     1      27.175   0.758  53.045  1.00  0.00    -0.036 C 
HETATM   18  C23 UNL     1      27.511   1.999  52.813  1.00  0.00     0.009 C 
HETATM   19  C24 UNL     1      27.636  -0.035  54.202  1.00  0.00     0.187 C 
HETATM   20  N5  UNL     1      26.447  -0.739  54.741  1.00  0.00    -0.295 NA
HETATM   21  C25 UNL     1      25.259  -0.315  54.382  1.00  0.00     0.139 C 
HETATM   22  H24 UNL     1      23.077   5.214  50.449  1.00  0.00     0.166 HD
HETATM   23  H28 UNL     1      23.093  -0.184  52.919  1.00  0.00     0.161 HD
ENDROOT
BRANCH   6  24
HETATM   24  O1  UNL     1      28.009   7.668  48.320  1.00  0.00    -0.351 OA
BRANCH  24  25
HETATM   25  C7  UNL     1      28.958   6.934  47.554  1.00  0.00     0.177 C 
BRANCH  25  26
HETATM   26  C8  UNL     1      29.515   7.727  46.403  1.00  0.00     0.057 C 
BRANCH  26  27
HETATM   27  C9  UNL     1      29.793   9.152  46.803  1.00  0.00     0.274 C 
BRANCH  27  28
HETATM   28  N1  UNL     1      30.951   9.300  47.614  1.00  0.00     0.088 N 
HETATM   29  C10 UNL     1      30.999  10.433  48.473  1.00  0.00     0.272 C 
HETATM   30  C11 UNL     1      31.685  11.647  47.890  1.00  0.00     0.030 C 
HETATM   31  C12 UNL     1      32.896  11.333  47.068  1.00  0.00     0.003 C 
HETATM   32  C13 UNL     1      32.549  10.270  46.051  1.00  0.00     0.030 C 
HETATM   33  C14 UNL     1      32.158   9.035  46.876  1.00  0.00     0.272 C 
ENDBRANCH  27  28
ENDBRANCH  26  27
ENDBRANCH  25  26
ENDBRANCH  24  25
ENDBRANCH   6  24
TORSDOF 5
ENDMDL
MODEL 4
REMARK VINA RESULT:      -8.9      2.299      3.034
REMARK  5 active torsions:
REMARK  status: ('A' for Active; 'I' for Inactive)
REMARK    1  A    between atoms: C6_6  and  O1_7 
REMARK    2  A    between atoms: O1_7  and  C7_8 
REMARK    3  A    between atoms: C7_8  and  C8_9 
REMARK    4  A    between atoms: C8_9  and  C9_10 
REMARK    5  A    between atoms: C9_10  and  N1_11 
ROOT
HETATM    1  C1  UNL     1      24.000   1.673  51.941  1.00  0.00    -0.003 C 
HETATM    2  C2  UNL     1      23.407   1.979  50.812  1.00  0.00    -0.022 C 
HETATM    3  C3  UNL     1      23.384   2.795  49.586  1.00  0.00     0.068 C 
HETATM    4  C4  UNL     1      24.357   3.878  49.584  1.00  0.00    -0.025 A 
HETATM    5  C5  UNL     1      25.612   4.014  49.045  1.00  0.00     0.046 A 
HETATM    6  C6  UNL     1      26.361   5.160  49.191  1.00  0.00     0.069 A 
HETATM    7  C15 UNL     1      25.891   6.244  49.890  1.00  0.00     0.039 A 
HETATM    8  C16 UNL     1      24.608   6.108  50.441  1.00  0.00     0.033 A 
HETATM    9  C17 UNL     1      23.820   4.953  50.310  1.00  0.00     0.039 A 
HETATM   10  N2  UNL     1      22.555   5.071  50.952  1.00  0.00    -0.351 N 
HETATM   11  C18 UNL     1      22.023   4.389  52.083  1.00  0.00     0.203 C 
HETATM   12  N3  UNL     1      21.245   3.556  52.671  1.00  0.00    -0.265 NA
HETATM   13  C19 UNL     1      20.294   2.766  51.937  1.00  0.00     0.272 C 
HETATM   14  N4  UNL     1      20.070   1.516  52.678  1.00  0.00    -0.371 N 
HETATM   15  C20 UNL     1      20.915   0.443  53.123  1.00  0.00     0.047 C 
HETATM   16  C21 UNL     1      21.825  -0.359  52.564  1.00  0.00     0.039 C 
HETATM   17  C22 UNL     1      23.000  -0.018  53.346  1.00  0.00    -0.036 C 
HETATM   18  C23 UNL     1      23.956   0.844  53.120  1.00  0.00     0.009 C 
HETATM   19  C24 UNL     1      22.911  -0.880  54.541  1.00  0.00     0.187 C 
HETATM   20  N5  UNL     1      21.505  -0.821  55.008  1.00  0.00    -0.295 NA
HETATM   21  C25 UNL     1      20.744   0.151  54.565  1.00  0.00     0.139 C 
HETATM   22  H24 UNL     1      22.034   5.805  50.423  1.00  0.00     0.166 HD
HETATM   23  H28 UNL     1      19.055   1.341  52.959  1.00  0.00     0.161 HD
ENDROOT
BRANCH   6  24
HETATM   24  O1  UNL     1      27.615   5.170  48.598  1.00  0.00    -0.351 OA
BRANCH  24  25
HETATM   25  C7  UNL     1      28.189   6.414  48.210  1.00  0.00     0.177 C 
BRANCH  25  26
HETATM   26  C8  UNL     1      29.681   6.451  48.405  1.00  0.00     0.057 C 
BRANCH  26  27
HETATM   27  C9  UNL     1      30.355   5.307  47.693  1.00  0.00     0.274 C 
BRANCH  27  28
HETATM   28  N1  UNL     1      31.771   5.422  47.644  1.00  0.00     0.088 N 
HETATM   29  C10 UNL     1      32.323   6.169  46.568  1.00  0.00     0.272 C 
HETATM   30  C11 UNL     1      32.701   5.354  45.353  1.00  0.00     0.030 C 
HETATM   31  C12 UNL     1      33.306   4.022  45.671  1.00  0.00     0.003 C 
HETATM   32  C13 UNL     1      32.422   3.292  46.655  1.00  0.00     0.030 C 
HETATM   33  C14 UNL     1      32.418   4.165  47.918  1.00  0.00     0.272 C 
ENDBRANCH  27  28
ENDBRANCH  26  27
ENDBRANCH  25  26
ENDBRANCH  24  25
ENDBRANCH   6  24
TORSDOF 5
ENDMDL
MODEL 5
REMARK VINA RESULT:      -8.8      2.842      3.780
REMARK  5 active torsions:
REMARK  status: ('A' for Active; 'I' for Inactive)
REMARK    1  A    between atoms: C6_6  and  O1_7 
REMARK    2  A    between atoms: O1_7  and  C7_8 
REMARK    3  A    between atoms: C7_8  and  C8_9 
REMARK    4  A    between atoms: C8_9  and  C9_10 
REMARK    5  A    between atoms: C9_10  and  N1_11 
ROOT
HETATM    1  C1  UNL     1      23.889   1.906  52.078  1.00  0.00    -0.003 C 
HETATM    2  C2  UNL     1      23.298   2.135  50.931  1.00  0.00    -0.022 C 
HETATM    3  C3  UNL     1      23.176   2.972  49.726  1.00  0.00     0.068 C 
HETATM    4  C4  UNL     1      23.931   4.215  49.795  1.00  0.00    -0.025 A 
HETATM    5  C5  UNL     1      25.160   4.596  49.319  1.00  0.00     0.046 A 
HETATM    6  C6  UNL     1      25.678   5.855  49.528  1.00  0.00     0.069 A 
HETATM    7  C15 UNL     1      24.988   6.811  50.231  1.00  0.00     0.039 A 
HETATM    8  C16 UNL     1      23.731   6.424  50.718  1.00  0.00     0.033 A 
HETATM    9  C17 UNL     1      23.175   5.150  50.522  1.00  0.00     0.039 A 
HETATM   10  N2  UNL     1      21.885   5.013  51.107  1.00  0.00    -0.351 N 
HETATM   11  C18 UNL     1      21.441   4.208  52.194  1.00  0.00     0.203 C 
HETATM   12  N3  UNL     1      20.806   3.228  52.725  1.00  0.00    -0.265 NA
HETATM   13  C19 UNL     1      20.049   2.301  51.928  1.00  0.00     0.272 C 
HETATM   14  N4  UNL     1      20.029   1.009  52.627  1.00  0.00    -0.371 N 
HETATM   15  C20 UNL     1      21.038   0.094  53.084  1.00  0.00     0.047 C 
HETATM   16  C21 UNL     1      22.102  -0.509  52.549  1.00  0.00     0.039 C 
HETATM   17  C22 UNL     1      23.161   0.016  53.393  1.00  0.00    -0.036 C 
HETATM   18  C23 UNL     1      23.950   1.045  53.234  1.00  0.00     0.009 C 
HETATM   19  C24 UNL     1      23.183  -0.886  54.562  1.00  0.00     0.187 C 
HETATM   20  N5  UNL     1      21.772  -1.102  54.964  1.00  0.00    -0.295 NA
HETATM   21  C25 UNL     1      20.864  -0.271  54.510  1.00  0.00     0.139 C 
HETATM   22  H24 UNL     1      21.259   5.656  50.572  1.00  0.00     0.166 HD
HETATM   23  H28 UNL     1      19.052   0.641  52.856  1.00  0.00     0.161 HD
ENDROOT
BRANCH   6  24
HETATM   24  O1  UNL     1      26.933   6.114  48.994  1.00  0.00    -0.351 OA
BRANCH  24  25
HETATM   25  C7  UNL     1      27.750   5.024  48.581  1.00  0.00     0.177 C 
BRANCH  25  26
HETATM   26  C8  UNL     1      29.135   5.453  48.182  1.00  0.00     0.057 C 
BRANCH  26  27
HETATM   27  C9  UNL     1      29.223   6.951  48.034  1.00  0.00     0.274 C 
BRANCH  27  28
HETATM   28  N1  UNL     1      30.247   7.542  48.821  1.00  0.00     0.088 N 
HETATM   29  C10 UNL     1      30.113   8.924  49.127  1.00  0.00     0.272 C 
HETATM   30  C11 UNL     1      30.803   9.861  48.162  1.00  0.00     0.030 C 
HETATM   31  C12 UNL     1      32.132   9.371  47.675  1.00  0.00     0.003 C 
HETATM   32  C13 UNL     1      31.989   7.955  47.168  1.00  0.00     0.030 C 
HETATM   33  C14 UNL     1      31.558   7.131  48.389  1.00  0.00     0.272 C 
ENDBRANCH  27  28
ENDBRANCH  26  27
ENDBRANCH  25  26
ENDBRANCH  24  25
ENDBRANCH   6  24
TORSDOF 5
ENDMDL
MODEL 6
REMARK VINA RESULT:      -8.6      4.933     10.233
REMARK  5 active torsions:
REMARK  status: ('A' for Active; 'I' for Inactive)
REMARK    1  A    between atoms: C6_6  and  O1_7 
REMARK    2  A    between atoms: O1_7  and  C7_8 
REMARK    3  A    between atoms: C7_8  and  C8_9 
REMARK    4  A    between atoms: C8_9  and  C9_10 
REMARK    5  A    between atoms: C9_10  and  N1_11 
ROOT
HETATM    1  C1  UNL     1      25.756  -0.447  52.554  1.00  0.00    -0.003 C 
HETATM    2  C2  UNL     1      25.229   0.557  53.212  1.00  0.00    -0.022 C 
HETATM    3  C3  UNL     1      24.140   1.538  53.344  1.00  0.00     0.068 C 
HETATM    4  C4  UNL     1      23.244   1.578  52.198  1.00  0.00    -0.025 A 
HETATM    5  C5  UNL     1      22.021   1.012  51.939  1.00  0.00     0.046 A 
HETATM    6  C6  UNL     1      21.358   1.191  50.745  1.00  0.00     0.069 A 
HETATM    7  C15 UNL     1      21.889   1.953  49.734  1.00  0.00     0.039 A 
HETATM    8  C16 UNL     1      23.138   2.534  49.996  1.00  0.00     0.033 A 
HETATM    9  C17 UNL     1      23.839   2.372  51.202  1.00  0.00     0.039 A 
HETATM   10  N2  UNL     1      25.078   3.070  51.221  1.00  0.00    -0.351 N 
HETATM   11  C18 UNL     1      26.415   2.584  51.258  1.00  0.00     0.203 C 
HETATM   12  N3  UNL     1      27.552   2.362  51.809  1.00  0.00    -0.265 NA
HETATM   13  C19 UNL     1      27.821   2.761  53.165  1.00  0.00     0.272 C 
HETATM   14  N4  UNL     1      28.824   1.841  53.720  1.00  0.00    -0.371 N 
HETATM   15  C20 UNL     1      28.889   0.420  53.918  1.00  0.00     0.047 C 
HETATM   16  C21 UNL     1      28.110  -0.509  54.479  1.00  0.00     0.039 C 
HETATM   17  C22 UNL     1      27.849  -1.365  53.335  1.00  0.00    -0.036 C 
HETATM   18  C23 UNL     1      26.858  -1.375  52.484  1.00  0.00     0.009 C 
HETATM   19  C24 UNL     1      29.000  -2.290  53.297  1.00  0.00     0.187 C 
HETATM   20  N5  UNL     1      30.216  -1.471  53.513  1.00  0.00    -0.295 NA
HETATM   21  C25 UNL     1      30.126  -0.172  53.356  1.00  0.00     0.139 C 
HETATM   22  H24 UNL     1      24.834   4.085  51.195  1.00  0.00     0.166 HD
HETATM   23  H28 UNL     1      29.717   2.314  54.066  1.00  0.00     0.161 HD
ENDROOT
BRANCH   6  24
HETATM   24  O1  UNL     1      20.129   0.564  50.610  1.00  0.00    -0.351 OA
BRANCH  24  25
HETATM   25  C7  UNL     1      19.061   1.259  49.974  1.00  0.00     0.177 C 
BRANCH  25  26
HETATM   26  C8  UNL     1      17.720   0.945  50.580  1.00  0.00     0.057 C 
BRANCH  26  27
HETATM   27  C9  UNL     1      17.652  -0.485  51.050  1.00  0.00     0.274 C 
BRANCH  27  28
HETATM   28  N1  UNL     1      17.190  -0.624  52.386  1.00  0.00     0.088 N 
HETATM   29  C10 UNL     1      18.087  -1.203  53.325  1.00  0.00     0.272 C 
HETATM   30  C11 UNL     1      17.952  -2.698  53.498  1.00  0.00     0.030 C 
HETATM   31  C12 UNL     1      16.540  -3.195  53.473  1.00  0.00     0.003 C 
HETATM   32  C13 UNL     1      15.838  -2.647  52.252  1.00  0.00     0.030 C 
HETATM   33  C14 UNL     1      15.840  -1.123  52.436  1.00  0.00     0.272 C 
ENDBRANCH  27  28
ENDBRANCH  26  27
ENDBRANCH  25  26
ENDBRANCH  24  25
ENDBRANCH   6  24
TORSDOF 5
ENDMDL
MODEL 7
REMARK VINA RESULT:      -8.5      3.678      8.680
REMARK  5 active torsions:
REMARK  status: ('A' for Active; 'I' for Inactive)
REMARK    1  A    between atoms: C6_6  and  O1_7 
REMARK    2  A    between atoms: O1_7  and  C7_8 
REMARK    3  A    between atoms: C7_8  and  C8_9 
REMARK    4  A    between atoms: C8_9  and  C9_10 
REMARK    5  A    between atoms: C9_10  and  N1_11 
ROOT
HETATM    1  C1  UNL     1      31.092   6.224  48.268  1.00  0.00    -0.003 C 
HETATM    2  C2  UNL     1      31.558   7.352  48.749  1.00  0.00    -0.022 C 
HETATM    3  C3  UNL     1      31.294   8.726  49.206  1.00  0.00     0.068 C 
HETATM    4  C4  UNL     1      29.943   9.189  48.922  1.00  0.00    -0.025 A 
HETATM    5  C5  UNL     1      28.796   9.259  49.673  1.00  0.00     0.046 A 
HETATM    6  C6  UNL     1      27.608   9.737  49.167  1.00  0.00     0.069 A 
HETATM    7  C15 UNL     1      27.500  10.175  47.870  1.00  0.00     0.039 A 
HETATM    8  C16 UNL     1      28.671  10.105  47.101  1.00  0.00     0.033 A 
HETATM    9  C17 UNL     1      29.898   9.624  47.587  1.00  0.00     0.039 A 
HETATM   10  N2  UNL     1      30.934   9.666  46.613  1.00  0.00    -0.351 N 
HETATM   11  C18 UNL     1      31.641   8.613  45.966  1.00  0.00     0.203 C 
HETATM   12  N3  UNL     1      32.668   7.882  45.731  1.00  0.00    -0.265 NA
HETATM   13  C19 UNL     1      33.917   8.097  46.413  1.00  0.00     0.272 C 
HETATM   14  N4  UNL     1      34.625   6.811  46.483  1.00  0.00    -0.371 N 
HETATM   15  C20 UNL     1      34.320   5.521  47.036  1.00  0.00     0.047 C 
HETATM   16  C21 UNL     1      33.900   5.056  48.215  1.00  0.00     0.039 C 
HETATM   17  C22 UNL     1      32.648   4.430  47.827  1.00  0.00    -0.036 C 
HETATM   18  C23 UNL     1      31.425   4.890  47.830  1.00  0.00     0.009 C 
HETATM   19  C24 UNL     1      33.035   3.077  47.381  1.00  0.00     0.187 C 
HETATM   20  N5  UNL     1      34.235   3.234  46.524  1.00  0.00    -0.295 NA
HETATM   21  C25 UNL     1      34.511   4.427  46.055  1.00  0.00     0.139 C 
HETATM   22  H24 UNL     1      31.107  10.678  46.423  1.00  0.00     0.166 HD
HETATM   23  H28 UNL     1      35.592   6.810  46.030  1.00  0.00     0.161 HD
ENDROOT
BRANCH   6  24
HETATM   24  O1  UNL     1      26.521   9.755  50.029  1.00  0.00    -0.351 OA
BRANCH  24  25
HETATM   25  C7  UNL     1      25.217   9.519  49.508  1.00  0.00     0.177 C 
BRANCH  25  26
HETATM   26  C8  UNL     1      24.510   8.387  50.200  1.00  0.00     0.057 C 
BRANCH  26  27
HETATM   27  C9  UNL     1      25.429   7.211  50.406  1.00  0.00     0.274 C 
BRANCH  27  28
HETATM   28  N1  UNL     1      25.282   6.194  49.424  1.00  0.00     0.088 N 
HETATM   29  C10 UNL     1      25.287   4.847  49.881  1.00  0.00     0.272 C 
HETATM   30  C11 UNL     1      26.639   4.173  49.866  1.00  0.00     0.030 C 
HETATM   31  C12 UNL     1      27.485   4.519  48.681  1.00  0.00     0.003 C 
HETATM   32  C13 UNL     1      27.540   6.021  48.525  1.00  0.00     0.030 C 
HETATM   33  C14 UNL     1      26.091   6.453  48.262  1.00  0.00     0.272 C 
ENDBRANCH  27  28
ENDBRANCH  26  27
ENDBRANCH  25  26
ENDBRANCH  24  25
ENDBRANCH   6  24
TORSDOF 5
ENDMDL
MODEL 8
REMARK VINA RESULT:      -8.4      3.477      8.117
REMARK  5 active torsions:
REMARK  status: ('A' for Active; 'I' for Inactive)
REMARK    1  A    between atoms: C6_6  and  O1_7 
REMARK    2  A    between atoms: O1_7  and  C7_8 
REMARK    3  A    between atoms: C7_8  and  C8_9 
REMARK    4  A    between atoms: C8_9  and  C9_10 
REMARK    5  A    between atoms: C9_10  and  N1_11 
ROOT
HETATM    1  C1  UNL     1      26.203   5.662  49.411  1.00  0.00    -0.003 C 
HETATM    2  C2  UNL     1      25.313   6.291  50.140  1.00  0.00    -0.022 C 
HETATM    3  C3  UNL     1      24.175   6.219  51.071  1.00  0.00     0.068 C 
HETATM    4  C4  UNL     1      23.629   4.879  51.228  1.00  0.00    -0.025 A 
HETATM    5  C5  UNL     1      23.807   3.895  52.168  1.00  0.00     0.046 A 
HETATM    6  C6  UNL     1      23.174   2.675  52.093  1.00  0.00     0.069 A 
HETATM    7  C15 UNL     1      22.318   2.369  51.064  1.00  0.00     0.039 A 
HETATM    8  C16 UNL     1      22.133   3.373  50.102  1.00  0.00     0.033 A 
HETATM    9  C17 UNL     1      22.764   4.627  50.150  1.00  0.00     0.039 A 
HETATM   10  N2  UNL     1      22.402   5.470  49.063  1.00  0.00    -0.351 N 
HETATM   11  C18 UNL     1      23.178   5.967  47.977  1.00  0.00     0.203 C 
HETATM   12  N3  UNL     1      23.794   6.876  47.316  1.00  0.00    -0.265 NA
HETATM   13  C19 UNL     1      23.838   8.240  47.772  1.00  0.00     0.272 C 
HETATM   14  N4  UNL     1      25.078   8.849  47.270  1.00  0.00    -0.371 N 
HETATM   15  C20 UNL     1      26.476   8.551  47.410  1.00  0.00     0.047 C 
HETATM   16  C21 UNL     1      27.312   8.317  48.425  1.00  0.00     0.039 C 
HETATM   17  C22 UNL     1      27.755   6.972  48.102  1.00  0.00    -0.036 C 
HETATM   18  C23 UNL     1      27.311   5.808  48.498  1.00  0.00     0.009 C 
HETATM   19  C24 UNL     1      28.878   7.167  47.164  1.00  0.00     0.187 C 
HETATM   20  N5  UNL     1      28.450   8.202  46.192  1.00  0.00    -0.295 NA
HETATM   21  C25 UNL     1      27.171   8.478  46.103  1.00  0.00     0.139 C 
HETATM   22  H24 UNL     1      21.387   5.683  49.191  1.00  0.00     0.166 HD
HETATM   23  H28 UNL     1      24.934   9.715  46.662  1.00  0.00     0.161 HD
ENDROOT
BRANCH   6  24
HETATM   24  O1  UNL     1      23.440   1.766  53.107  1.00  0.00    -0.351 OA
BRANCH  24  25
HETATM   25  C7  UNL     1      23.220   0.379  52.871  1.00  0.00     0.177 C 
BRANCH  25  26
HETATM   26  C8  UNL     1      24.327  -0.485  53.410  1.00  0.00     0.057 C 
BRANCH  26  27
HETATM   27  C9  UNL     1      25.527   0.340  53.798  1.00  0.00     0.274 C 
BRANCH  27  28
HETATM   28  N1  UNL     1      26.591   0.273  52.858  1.00  0.00     0.088 N 
HETATM   29  C10 UNL     1      27.585  -0.720  53.076  1.00  0.00     0.272 C 
HETATM   30  C11 UNL     1      28.786  -0.259  53.870  1.00  0.00     0.030 C 
HETATM   31  C12 UNL     1      29.237   1.131  53.549  1.00  0.00     0.003 C 
HETATM   32  C13 UNL     1      28.054   2.069  53.614  1.00  0.00     0.030 C 
HETATM   33  C14 UNL     1      27.091   1.581  52.523  1.00  0.00     0.272 C 
ENDBRANCH  27  28
ENDBRANCH  26  27
ENDBRANCH  25  26
ENDBRANCH  24  25
ENDBRANCH   6  24
TORSDOF 5
ENDMDL
MODEL 9
REMARK VINA RESULT:      -8.4      2.184      3.490
REMARK  5 active torsions:
REMARK  status: ('A' for Active; 'I' for Inactive)
REMARK    1  A    between atoms: C6_6  and  O1_7 
REMARK    2  A    between atoms: O1_7  and  C7_8 
REMARK    3  A    between atoms: C7_8  and  C8_9 
REMARK    4  A    between atoms: C8_9  and  C9_10 
REMARK    5  A    between atoms: C9_10  and  N1_11 
ROOT
HETATM    1  C1  UNL     1      25.940   4.415  50.059  1.00  0.00    -0.003 C 
HETATM    2  C2  UNL     1      25.404   5.171  49.131  1.00  0.00    -0.022 C 
HETATM    3  C3  UNL     1      25.515   6.342  48.247  1.00  0.00     0.068 C 
HETATM    4  C4  UNL     1      26.655   7.197  48.544  1.00  0.00    -0.025 A 
HETATM    5  C5  UNL     1      27.914   7.307  48.008  1.00  0.00     0.046 A 
HETATM    6  C6  UNL     1      28.844   8.206  48.479  1.00  0.00     0.069 A 
HETATM    7  C15 UNL     1      28.564   9.052  49.523  1.00  0.00     0.039 A 
HETATM    8  C16 UNL     1      27.278   8.943  50.073  1.00  0.00     0.033 A 
HETATM    9  C17 UNL     1      26.307   8.037  49.615  1.00  0.00     0.039 A 
HETATM   10  N2  UNL     1      25.082   8.130  50.333  1.00  0.00    -0.351 N 
HETATM   11  C18 UNL     1      24.446   7.201  51.204  1.00  0.00     0.203 C 
HETATM   12  N3  UNL     1      23.541   6.352  51.530  1.00  0.00    -0.265 NA
HETATM   13  C19 UNL     1      22.470   6.013  50.633  1.00  0.00     0.272 C 
HETATM   14  N4  UNL     1      22.042   4.639  50.932  1.00  0.00    -0.371 N 
HETATM   15  C20 UNL     1      22.696   3.360  50.948  1.00  0.00     0.047 C 
HETATM   16  C21 UNL     1      23.457   2.660  50.103  1.00  0.00     0.039 C 
HETATM   17  C22 UNL     1      24.675   2.530  50.884  1.00  0.00    -0.036 C 
HETATM   18  C23 UNL     1      25.761   3.257  50.900  1.00  0.00     0.009 C 
HETATM   19  C24 UNL     1      24.446   1.343  51.731  1.00  0.00     0.187 C 
HETATM   20  N5  UNL     1      23.071   1.462  52.273  1.00  0.00    -0.295 NA
HETATM   21  C25 UNL     1      22.482   2.632  52.221  1.00  0.00     0.139 C 
HETATM   22  H24 UNL     1      24.689   9.071  50.107  1.00  0.00     0.166 HD
HETATM   23  H28 UNL     1      21.012   4.541  51.199  1.00  0.00     0.161 HD
ENDROOT
BRANCH   6  24
HETATM   24  O1  UNL     1      30.081   8.217  47.851  1.00  0.00    -0.351 OA
BRANCH  24  25
HETATM   25  C7  UNL     1      31.119   9.036  48.377  1.00  0.00     0.177 C 
BRANCH  25  26
HETATM   26  C8  UNL     1      32.369   8.260  48.693  1.00  0.00     0.057 C 
BRANCH  26  27
HETATM   27  C9  UNL     1      32.800   7.415  47.522  1.00  0.00     0.274 C 
BRANCH  27  28
HETATM   28  N1  UNL     1      33.202   6.101  47.885  1.00  0.00     0.088 N 
HETATM   29  C10 UNL     1      33.867   5.330  46.893  1.00  0.00     0.272 C 
HETATM   30  C11 UNL     1      32.966   4.444  46.063  1.00  0.00     0.030 C 
HETATM   31  C12 UNL     1      31.861   3.796  46.837  1.00  0.00     0.003 C 
HETATM   32  C13 UNL     1      31.128   4.846  47.639  1.00  0.00     0.030 C 
HETATM   33  C14 UNL     1      32.171   5.409  48.615  1.00  0.00     0.272 C 
ENDBRANCH  27  28
ENDBRANCH  26  27
ENDBRANCH  25  26
ENDBRANCH  24  25
ENDBRANCH   6  24
TORSDOF 5
ENDMDL
