MODEL 1
REMARK VINA RESULT:      -9.3      0.000      0.000
REMARK  6 active torsions:
REMARK  status: ('A' for Active; 'I' for Inactive)
REMARK    1  A    between atoms: N1_1  and  N2_2 
REMARK    2  A    between atoms: C1_3  and  C2_4 
REMARK    3  A    between atoms: C6_8  and  O1_9 
REMARK    4  A    between atoms: O1_9  and  C7_10 
REMARK    5  A    between atoms: C7_10  and  C8_11 
REMARK    6  A    between atoms: C16_19  and  C17_20 
ROOT
HETATM    1  N2  UNL     1      23.573   4.340  50.607  1.00  0.00    -0.236 NA
HETATM    2  C1  UNL     1      23.113   3.017  50.401  1.00  0.00     0.110 C 
HETATM    3  C15 UNL     1      24.313   2.827  49.463  1.00  0.00     0.052 C 
HETATM    4  C16 UNL     1      24.049   4.310  49.213  1.00  0.00     0.110 C 
ENDROOT
BRANCH   2   5
HETATM    5  C2  UNL     1      23.038   2.068  51.496  1.00  0.00    -0.036 A 
HETATM    6  C3  UNL     1      21.899   1.706  52.173  1.00  0.00     0.009 A 
HETATM    7  C4  UNL     1      21.809   0.806  53.214  1.00  0.00     0.003 A 
HETATM    8  C5  UNL     1      22.980   0.199  53.631  1.00  0.00     0.037 A 
HETATM    9  C6  UNL     1      24.171   0.501  53.013  1.00  0.00     0.069 A 
HETATM   10  C14 UNL     1      24.179   1.412  51.977  1.00  0.00     0.045 A 
BRANCH   9  11
HETATM   11  O1  UNL     1      25.297  -0.129  53.469  1.00  0.00    -0.347 OA
BRANCH  11  12
HETATM   12  C7  UNL     1      26.028  -1.101  52.748  1.00  0.00     0.214 C 
BRANCH  12  13
HETATM   13  C8  UNL     1      27.458  -0.890  53.045  1.00  0.00    -0.034 A 
HETATM   14  C9  UNL     1      28.422  -1.877  53.085  1.00  0.00     0.009 A 
HETATM   15  C10 UNL     1      29.721  -1.487  53.382  1.00  0.00     0.001 A 
HETATM   16  C11 UNL     1      30.090  -0.184  53.636  1.00  0.00     0.000 A 
HETATM   17  C12 UNL     1      29.115   0.808  53.596  1.00  0.00     0.001 A 
HETATM   18  C13 UNL     1      27.822   0.409  53.298  1.00  0.00     0.009 A 
ENDBRANCH  12  13
ENDBRANCH  11  12
ENDBRANCH   9  11
ENDBRANCH   2   5
BRANCH   1  19
HETATM   19  N1  UNL     1      24.665   4.572  51.410  1.00  0.00    -0.267 NA
HETATM   20  H1  UNL     1      24.457   4.778  52.391  1.00  0.00     0.137 HD
HETATM   21  H2  UNL     1      25.366   3.817  51.243  1.00  0.00     0.137 HD
ENDBRANCH   1  19
BRANCH   4  22
HETATM   22  C17 UNL     1      25.241   5.131  48.963  1.00  0.00    -0.036 A 
HETATM   23  C18 UNL     1      25.057   6.455  48.664  1.00  0.00     0.012 A 
HETATM   24  C19 UNL     1      26.097   7.333  48.408  1.00  0.00     0.040 A 
HETATM   25  C20 UNL     1      27.401   6.851  48.455  1.00  0.00     0.102 A 
HETATM   26  C21 UNL     1      27.601   5.514  48.756  1.00  0.00     0.102 A 
HETATM   27  O3  UNL     1      28.549   7.566  48.231  1.00  0.00    -0.346 OA
HETATM   28  C22 UNL     1      26.544   4.680  49.003  1.00  0.00     0.048 A 
HETATM   29  O2  UNL     1      28.924   5.094  48.788  1.00  0.00    -0.346 OA
HETATM   30  C23 UNL     1      29.871   5.568  47.838  1.00  0.00     0.202 C 
HETATM   31  C24 UNL     1      29.787   7.067  47.821  1.00  0.00     0.202 C 
ENDBRANCH   4  22
TORSDOF 6
ENDMDL
MODEL 2
REMARK VINA RESULT:      -9.3      1.255      1.656
REMARK  6 active torsions:
REMARK  status: ('A' for Active; 'I' for Inactive)
REMARK    1  A    between atoms: N1_1  and  N2_2 
REMARK    2  A    between atoms: C1_3  and  C2_4 
REMARK    3  A    between atoms: C6_8  and  O1_9 
REMARK    4  A    between atoms: O1_9  and  C7_10 
REMARK    5  A    between atoms: C7_10  and  C8_11 
REMARK    6  A    between atoms: C16_19  and  C17_20 
ROOT
HETATM    1  N2  UNL     1      22.858   3.454  51.820  1.00  0.00    -0.236 NA
HETATM    2  C1  UNL     1      22.411   2.130  51.595  1.00  0.00     0.110 C 
HETATM    3  C15 UNL     1      23.422   2.065  50.442  1.00  0.00     0.052 C 
HETATM    4  C16 UNL     1      23.069   3.549  50.365  1.00  0.00     0.110 C 
ENDROOT
BRANCH   2   5
HETATM    5  C2  UNL     1      22.570   1.102  52.606  1.00  0.00    -0.036 A 
HETATM    6  C3  UNL     1      21.579   0.609  53.419  1.00  0.00     0.009 A 
HETATM    7  C4  UNL     1      21.713  -0.368  54.384  1.00  0.00     0.003 A 
HETATM    8  C5  UNL     1      22.970  -0.917  54.561  1.00  0.00     0.037 A 
HETATM    9  C6  UNL     1      24.025  -0.485  53.792  1.00  0.00     0.069 A 
HETATM   10  C14 UNL     1      23.811   0.497  52.846  1.00  0.00     0.045 A 
BRANCH   9  11
HETATM   11  O1  UNL     1      25.246  -1.062  54.012  1.00  0.00    -0.347 OA
BRANCH  11  12
HETATM   12  C7  UNL     1      26.299  -1.115  53.070  1.00  0.00     0.214 C 
BRANCH  12  13
HETATM   13  C8  UNL     1      27.227  -0.010  53.380  1.00  0.00    -0.034 A 
HETATM   14  C9  UNL     1      28.209  -0.036  54.348  1.00  0.00     0.009 A 
HETATM   15  C10 UNL     1      28.988   1.104  54.496  1.00  0.00     0.001 A 
HETATM   16  C11 UNL     1      28.832   2.242  53.735  1.00  0.00     0.000 A 
HETATM   17  C12 UNL     1      27.839   2.265  52.760  1.00  0.00     0.001 A 
HETATM   18  C13 UNL     1      27.067   1.123  52.620  1.00  0.00     0.009 A 
ENDBRANCH  12  13
ENDBRANCH  11  12
ENDBRANCH   9  11
ENDBRANCH   2   5
BRANCH   1  19
HETATM   19  N1  UNL     1      24.072   3.678  52.427  1.00  0.00    -0.267 NA
HETATM   20  H1  UNL     1      24.402   2.931  53.044  1.00  0.00     0.137 HD
HETATM   21  H2  UNL     1      24.750   4.002  51.701  1.00  0.00     0.137 HD
ENDBRANCH   1  19
BRANCH   4  22
HETATM   22  C17 UNL     1      24.167   4.440  49.969  1.00  0.00    -0.036 A 
HETATM   23  C18 UNL     1      23.875   5.761  49.756  1.00  0.00     0.012 A 
HETATM   24  C19 UNL     1      24.819   6.703  49.380  1.00  0.00     0.040 A 
HETATM   25  C20 UNL     1      26.136   6.290  49.206  1.00  0.00     0.102 A 
HETATM   26  C21 UNL     1      26.444   4.956  49.418  1.00  0.00     0.102 A 
HETATM   27  O3  UNL     1      27.200   7.072  48.839  1.00  0.00    -0.346 OA
HETATM   28  C22 UNL     1      25.480   4.059  49.789  1.00  0.00     0.048 A 
HETATM   29  O2  UNL     1      27.775   4.607  49.229  1.00  0.00    -0.346 OA
HETATM   30  C23 UNL     1      28.538   5.163  48.164  1.00  0.00     0.202 C 
HETATM   31  C24 UNL     1      28.381   6.655  48.222  1.00  0.00     0.202 C 
ENDBRANCH   4  22
TORSDOF 6
ENDMDL
MODEL 3
REMARK VINA RESULT:      -9.3      1.196      1.851
REMARK  6 active torsions:
REMARK  status: ('A' for Active; 'I' for Inactive)
REMARK    1  A    between atoms: N1_1  and  N2_2 
REMARK    2  A    between atoms: C1_3  and  C2_4 
REMARK    3  A    between atoms: C6_8  and  O1_9 
REMARK    4  A    between atoms: O1_9  and  C7_10 
REMARK    5  A    between atoms: C7_10  and  C8_11 
REMARK    6  A    between atoms: C16_19  and  C17_20 
ROOT
HETATM    1  N2  UNL     1      23.099   3.838  51.525  1.00  0.00    -0.236 NA
HETATM    2  C1  UNL     1      22.660   2.519  51.258  1.00  0.00     0.110 C 
HETATM    3  C15 UNL     1      23.721   2.471  50.150  1.00  0.00     0.052 C 
HETATM    4  C16 UNL     1      23.374   3.957  50.083  1.00  0.00     0.110 C 
ENDROOT
BRANCH   2   5
HETATM    5  C2  UNL     1      22.772   1.473  52.257  1.00  0.00    -0.036 A 
HETATM    6  C3  UNL     1      21.752   0.992  53.040  1.00  0.00     0.009 A 
HETATM    7  C4  UNL     1      21.840  -0.001  53.993  1.00  0.00     0.003 A 
HETATM    8  C5  UNL     1      23.080  -0.581  54.191  1.00  0.00     0.037 A 
HETATM    9  C6  UNL     1      24.163  -0.163  53.453  1.00  0.00     0.069 A 
HETATM   10  C14 UNL     1      23.993   0.837  52.517  1.00  0.00     0.045 A 
BRANCH   9  11
HETATM   11  O1  UNL     1      25.365  -0.771  53.693  1.00  0.00    -0.347 OA
BRANCH  11  12
HETATM   12  C7  UNL     1      26.210  -1.314  52.698  1.00  0.00     0.214 C 
BRANCH  12  13
HETATM   13  C8  UNL     1      27.595  -0.930  53.034  1.00  0.00    -0.034 A 
HETATM   14  C9  UNL     1      28.658  -1.799  53.166  1.00  0.00     0.009 A 
HETATM   15  C10 UNL     1      29.892  -1.252  53.488  1.00  0.00     0.001 A 
HETATM   16  C11 UNL     1      30.105   0.097  53.680  1.00  0.00     0.000 A 
HETATM   17  C12 UNL     1      29.030   0.970  53.548  1.00  0.00     0.001 A 
HETATM   18  C13 UNL     1      27.803   0.414  53.226  1.00  0.00     0.009 A 
ENDBRANCH  12  13
ENDBRANCH  11  12
ENDBRANCH   9  11
ENDBRANCH   2   5
BRANCH   1  19
HETATM   19  N1  UNL     1      24.285   4.049  52.189  1.00  0.00    -0.267 NA
HETATM   20  H1  UNL     1      24.833   3.209  52.391  1.00  0.00     0.137 HD
HETATM   21  H2  UNL     1      24.798   4.823  51.713  1.00  0.00     0.137 HD
ENDBRANCH   1  19
BRANCH   4  22
HETATM   22  C17 UNL     1      24.490   4.852  49.751  1.00  0.00    -0.036 A 
HETATM   23  C18 UNL     1      25.646   4.288  49.279  1.00  0.00     0.012 A 
HETATM   24  C19 UNL     1      26.768   5.021  48.931  1.00  0.00     0.040 A 
HETATM   25  C20 UNL     1      26.726   6.406  49.067  1.00  0.00     0.102 A 
HETATM   26  C21 UNL     1      25.564   6.988  49.544  1.00  0.00     0.102 A 
HETATM   27  O3  UNL     1      27.733   7.290  48.775  1.00  0.00    -0.346 OA
HETATM   28  C22 UNL     1      24.477   6.226  49.876  1.00  0.00     0.048 A 
HETATM   29  O2  UNL     1      25.585   8.373  49.656  1.00  0.00    -0.346 OA
HETATM   30  C23 UNL     1      26.744   9.057  50.115  1.00  0.00     0.202 C 
HETATM   31  C24 UNL     1      27.911   8.570  49.305  1.00  0.00     0.202 C 
ENDBRANCH   4  22
TORSDOF 6
ENDMDL
MODEL 4
REMARK VINA RESULT:      -8.9      2.030      7.128
REMARK  6 active torsions:
REMARK  status: ('A' for Active; 'I' for Inactive)
REMARK    1  A    between atoms: N1_1  and  N2_2 
REMARK    2  A    between atoms: C1_3  and  C2_4 
REMARK    3  A    between atoms: C6_8  and  O1_9 
REMARK    4  A    between atoms: O1_9  and  C7_10 
REMARK    5  A    between atoms: C7_10  and  C8_11 
REMARK    6  A    between atoms: C16_19  and  C17_20 
ROOT
HETATM    1  N2  UNL     1      23.272   2.614  51.762  1.00  0.00    -0.236 NA
HETATM    2  C1  UNL     1      22.867   3.845  52.333  1.00  0.00     0.110 C 
HETATM    3  C15 UNL     1      24.071   3.717  53.276  1.00  0.00     0.052 C 
HETATM    4  C16 UNL     1      23.745   2.234  53.105  1.00  0.00     0.110 C 
ENDROOT
BRANCH   2   5
HETATM    5  C2  UNL     1      22.834   5.063  51.546  1.00  0.00    -0.036 A 
HETATM    6  C3  UNL     1      21.724   5.610  50.951  1.00  0.00     0.009 A 
HETATM    7  C4  UNL     1      21.674   6.767  50.201  1.00  0.00     0.003 A 
HETATM    8  C5  UNL     1      22.859   7.457  50.022  1.00  0.00     0.037 A 
HETATM    9  C6  UNL     1      24.024   6.985  50.580  1.00  0.00     0.069 A 
HETATM   10  C14 UNL     1      23.992   5.819  51.318  1.00  0.00     0.045 A 
BRANCH   9  11
HETATM   11  O1  UNL     1      25.166   7.709  50.368  1.00  0.00    -0.347 OA
BRANCH  11  12
HETATM   12  C7  UNL     1      25.710   8.008  49.098  1.00  0.00     0.214 C 
BRANCH  12  13
HETATM   13  C8  UNL     1      26.760   7.010  48.819  1.00  0.00    -0.034 A 
HETATM   14  C9  UNL     1      26.605   5.641  48.899  1.00  0.00     0.009 A 
HETATM   15  C10 UNL     1      27.711   4.857  48.599  1.00  0.00     0.001 A 
HETATM   16  C11 UNL     1      28.936   5.369  48.229  1.00  0.00     0.000 A 
HETATM   17  C12 UNL     1      29.088   6.750  48.150  1.00  0.00     0.001 A 
HETATM   18  C13 UNL     1      27.979   7.524  48.452  1.00  0.00     0.009 A 
ENDBRANCH  12  13
ENDBRANCH  11  12
ENDBRANCH   9  11
ENDBRANCH   2   5
BRANCH   1  19
HETATM   19  N1  UNL     1      24.356   2.571  50.917  1.00  0.00    -0.267 NA
HETATM   20  H1  UNL     1      25.272   2.603  51.371  1.00  0.00     0.137 HD
HETATM   21  H2  UNL     1      24.213   1.793  50.235  1.00  0.00     0.137 HD
ENDBRANCH   1  19
BRANCH   4  22
HETATM   22  C17 UNL     1      24.901   1.329  53.106  1.00  0.00    -0.036 A 
HETATM   23  C18 UNL     1      24.659  -0.019  53.088  1.00  0.00     0.012 A 
HETATM   24  C19 UNL     1      25.661  -0.976  53.087  1.00  0.00     0.040 A 
HETATM   25  C20 UNL     1      26.986  -0.552  53.105  1.00  0.00     0.102 A 
HETATM   26  C21 UNL     1      27.243   0.809  53.124  1.00  0.00     0.102 A 
HETATM   27  O3  UNL     1      28.103  -1.347  53.107  1.00  0.00    -0.346 OA
HETATM   28  C22 UNL     1      26.224   1.721  53.124  1.00  0.00     0.048 A 
HETATM   29  O2  UNL     1      28.585   1.169  53.141  1.00  0.00    -0.346 OA
HETATM   30  C23 UNL     1      29.532   0.441  53.914  1.00  0.00     0.202 C 
HETATM   31  C24 UNL     1      29.375  -1.013  53.577  1.00  0.00     0.202 C 
ENDBRANCH   4  22
TORSDOF 6
ENDMDL
MODEL 5
REMARK VINA RESULT:      -8.7      2.135      2.972
REMARK  6 active torsions:
REMARK  status: ('A' for Active; 'I' for Inactive)
REMARK    1  A    between atoms: N1_1  and  N2_2 
REMARK    2  A    between atoms: C1_3  and  C2_4 
REMARK    3  A    between atoms: C6_8  and  O1_9 
REMARK    4  A    between atoms: O1_9  and  C7_10 
REMARK    5  A    between atoms: C7_10  and  C8_11 
REMARK    6  A    between atoms: C16_19  and  C17_20 
ROOT
HETATM    1  N2  UNL     1      24.882   6.885  49.903  1.00  0.00    -0.236 NA
HETATM    2  C1  UNL     1      24.801   5.510  49.575  1.00  0.00     0.110 C 
HETATM    3  C15 UNL     1      26.207   5.649  48.975  1.00  0.00     0.052 C 
HETATM    4  C16 UNL     1      25.683   7.052  48.678  1.00  0.00     0.110 C 
ENDROOT
BRANCH   2   5
HETATM    5  C2  UNL     1      24.673   4.498  50.606  1.00  0.00    -0.036 A 
HETATM    6  C3  UNL     1      23.771   4.509  51.641  1.00  0.00     0.009 A 
HETATM    7  C4  UNL     1      23.635   3.555  52.628  1.00  0.00     0.003 A 
HETATM    8  C5  UNL     1      24.491   2.470  52.584  1.00  0.00     0.037 A 
HETATM    9  C6  UNL     1      25.430   2.373  51.583  1.00  0.00     0.069 A 
HETATM   10  C14 UNL     1      25.503   3.369  50.631  1.00  0.00     0.045 A 
BRANCH   9  11
HETATM   11  O1  UNL     1      26.251   1.278  51.590  1.00  0.00    -0.347 OA
BRANCH  11  12
HETATM   12  C7  UNL     1      26.063   0.131  52.394  1.00  0.00     0.214 C 
BRANCH  12  13
HETATM   13  C8  UNL     1      27.395  -0.331  52.828  1.00  0.00    -0.034 A 
HETATM   14  C9  UNL     1      27.824  -1.642  52.840  1.00  0.00     0.009 A 
HETATM   15  C10 UNL     1      29.117  -1.886  53.284  1.00  0.00     0.001 A 
HETATM   16  C11 UNL     1      29.980  -0.898  53.707  1.00  0.00     0.000 A 
HETATM   17  C12 UNL     1      29.543   0.423  53.695  1.00  0.00     0.001 A 
HETATM   18  C13 UNL     1      28.252   0.656  53.250  1.00  0.00     0.009 A 
ENDBRANCH  12  13
ENDBRANCH  11  12
ENDBRANCH   9  11
ENDBRANCH   2   5
BRANCH   1  19
HETATM   19  N1  UNL     1      25.658   7.296  50.962  1.00  0.00    -0.267 NA
HETATM   20  H1  UNL     1      26.184   8.161  50.813  1.00  0.00     0.137 HD
HETATM   21  H2  UNL     1      25.079   7.259  51.830  1.00  0.00     0.137 HD
ENDBRANCH   1  19
BRANCH   4  22
HETATM   22  C17 UNL     1      26.680   8.127  48.750  1.00  0.00    -0.036 A 
HETATM   23  C18 UNL     1      26.243   9.418  48.610  1.00  0.00     0.012 A 
HETATM   24  C19 UNL     1      27.082  10.519  48.657  1.00  0.00     0.040 A 
HETATM   25  C20 UNL     1      28.443  10.311  48.858  1.00  0.00     0.102 A 
HETATM   26  C21 UNL     1      28.897   9.010  49.000  1.00  0.00     0.102 A 
HETATM   27  O3  UNL     1      29.418  11.270  48.933  1.00  0.00    -0.346 OA
HETATM   28  C22 UNL     1      28.034   7.950  48.947  1.00  0.00     0.048 A 
HETATM   29  O2  UNL     1      30.265   8.867  49.198  1.00  0.00    -0.346 OA
HETATM   30  C23 UNL     1      31.199   9.679  48.496  1.00  0.00     0.202 C 
HETATM   31  C24 UNL     1      30.781  11.111  48.672  1.00  0.00     0.202 C 
ENDBRANCH   4  22
TORSDOF 6
ENDMDL
MODEL 6
REMARK VINA RESULT:      -8.6      2.743      4.953
REMARK  6 active torsions:
REMARK  status: ('A' for Active; 'I' for Inactive)
REMARK    1  A    between atoms: N1_1  and  N2_2 
REMARK    2  A    between atoms: C1_3  and  C2_4 
REMARK    3  A    between atoms: C6_8  and  O1_9 
REMARK    4  A    between atoms: O1_9  and  C7_10 
REMARK    5  A    between atoms: C7_10  and  C8_11 
REMARK    6  A    between atoms: C16_19  and  C17_20 
ROOT
HETATM    1  N2  UNL     1      25.272   6.605  49.609  1.00  0.00    -0.236 NA
HETATM    2  C1  UNL     1      25.489   5.273  49.180  1.00  0.00     0.110 C 
HETATM    3  C15 UNL     1      26.845   5.749  48.640  1.00  0.00     0.052 C 
HETATM    4  C16 UNL     1      26.043   7.031  48.428  1.00  0.00     0.110 C 
ENDROOT
BRANCH   2   5
HETATM    5  C2  UNL     1      25.559   4.180  50.130  1.00  0.00    -0.036 A 
HETATM    6  C3  UNL     1      26.622   3.328  50.304  1.00  0.00     0.009 A 
HETATM    7  C4  UNL     1      26.705   2.285  51.203  1.00  0.00     0.003 A 
HETATM    8  C5  UNL     1      25.612   2.063  52.020  1.00  0.00     0.037 A 
HETATM    9  C6  UNL     1      24.500   2.866  51.917  1.00  0.00     0.069 A 
HETATM   10  C14 UNL     1      24.493   3.891  50.993  1.00  0.00     0.045 A 
BRANCH   9  11
HETATM   11  O1  UNL     1      23.448   2.599  52.751  1.00  0.00    -0.347 OA
BRANCH  11  12
HETATM   12  C7  UNL     1      22.189   2.109  52.333  1.00  0.00     0.214 C 
BRANCH  12  13
HETATM   13  C8  UNL     1      21.940   0.849  53.060  1.00  0.00    -0.034 A 
HETATM   14  C9  UNL     1      22.899   0.088  53.696  1.00  0.00     0.009 A 
HETATM   15  C10 UNL     1      22.475  -1.072  54.329  1.00  0.00     0.001 A 
HETATM   16  C11 UNL     1      21.164  -1.496  54.354  1.00  0.00     0.000 A 
HETATM   17  C12 UNL     1      20.199  -0.726  53.710  1.00  0.00     0.001 A 
HETATM   18  C13 UNL     1      20.632   0.430  53.081  1.00  0.00     0.009 A 
ENDBRANCH  12  13
ENDBRANCH  11  12
ENDBRANCH   9  11
ENDBRANCH   2   5
BRANCH   1  19
HETATM   19  N1  UNL     1      25.924   7.086  50.721  1.00  0.00    -0.267 NA
HETATM   20  H1  UNL     1      26.724   6.531  51.038  1.00  0.00     0.137 HD
HETATM   21  H2  UNL     1      26.103   8.105  50.584  1.00  0.00     0.137 HD
ENDBRANCH   1  19
BRANCH   4  22
HETATM   22  C17 UNL     1      26.790   8.282  48.611  1.00  0.00    -0.036 A 
HETATM   23  C18 UNL     1      26.114   9.462  48.446  1.00  0.00     0.012 A 
HETATM   24  C19 UNL     1      26.703  10.707  48.590  1.00  0.00     0.040 A 
HETATM   25  C20 UNL     1      28.053  10.770  48.920  1.00  0.00     0.102 A 
HETATM   26  C21 UNL     1      28.748   9.584  49.089  1.00  0.00     0.102 A 
HETATM   27  O3  UNL     1      28.802  11.903  49.103  1.00  0.00    -0.346 OA
HETATM   28  C22 UNL     1      28.127   8.374  48.937  1.00  0.00     0.048 A 
HETATM   29  O2  UNL     1      30.092   9.712  49.417  1.00  0.00    -0.346 OA
HETATM   30  C23 UNL     1      30.902  10.718  48.821  1.00  0.00     0.202 C 
HETATM   31  C24 UNL     1      30.187  12.030  48.975  1.00  0.00     0.202 C 
ENDBRANCH   4  22
TORSDOF 6
ENDMDL
MODEL 7
REMARK VINA RESULT:      -8.5      2.994      4.488
REMARK  6 active torsions:
REMARK  status: ('A' for Active; 'I' for Inactive)
REMARK    1  A    between atoms: N1_1  and  N2_2 
REMARK    2  A    between atoms: C1_3  and  C2_4 
REMARK    3  A    between atoms: C6_8  and  O1_9 
REMARK    4  A    between atoms: O1_9  and  C7_10 
REMARK    5  A    between atoms: C7_10  and  C8_11 
REMARK    6  A    between atoms: C16_19  and  C17_20 
ROOT
HETATM    1  N2  UNL     1      25.799   7.091  49.202  1.00  0.00    -0.236 NA
HETATM    2  C1  UNL     1      24.911   6.005  49.011  1.00  0.00     0.110 C 
HETATM    3  C15 UNL     1      26.149   5.142  48.731  1.00  0.00     0.052 C 
HETATM    4  C16 UNL     1      26.658   6.472  48.178  1.00  0.00     0.110 C 
ENDROOT
BRANCH   2   5
HETATM    5  C2  UNL     1      24.064   5.529  50.088  1.00  0.00    -0.036 A 
HETATM    6  C3  UNL     1      22.933   6.147  50.559  1.00  0.00     0.009 A 
HETATM    7  C4  UNL     1      22.116   5.708  51.580  1.00  0.00     0.003 A 
HETATM    8  C5  UNL     1      22.461   4.523  52.203  1.00  0.00     0.037 A 
HETATM    9  C6  UNL     1      23.580   3.832  51.799  1.00  0.00     0.069 A 
HETATM   10  C14 UNL     1      24.347   4.337  50.768  1.00  0.00     0.045 A 
BRANCH   9  11
HETATM   11  O1  UNL     1      23.874   2.666  52.452  1.00  0.00    -0.347 OA
BRANCH  11  12
HETATM   12  C7  UNL     1      23.678   1.370  51.922  1.00  0.00     0.214 C 
BRANCH  12  13
HETATM   13  C8  UNL     1      22.993   0.567  52.953  1.00  0.00    -0.034 A 
HETATM   14  C9  UNL     1      23.581  -0.410  53.730  1.00  0.00     0.009 A 
HETATM   15  C10 UNL     1      22.774  -1.062  54.652  1.00  0.00     0.001 A 
HETATM   16  C11 UNL     1      21.434  -0.787  54.827  1.00  0.00     0.000 A 
HETATM   17  C12 UNL     1      20.845   0.198  54.041  1.00  0.00     0.001 A 
HETATM   18  C13 UNL     1      21.659   0.843  53.124  1.00  0.00     0.009 A 
ENDBRANCH  12  13
ENDBRANCH  11  12
ENDBRANCH   9  11
ENDBRANCH   2   5
BRANCH   1  19
HETATM   19  N1  UNL     1      26.538   7.182  50.359  1.00  0.00    -0.267 NA
HETATM   20  H1  UNL     1      26.170   7.820  51.069  1.00  0.00     0.137 HD
HETATM   21  H2  UNL     1      26.760   6.216  50.686  1.00  0.00     0.137 HD
ENDBRANCH   1  19
BRANCH   4  22
HETATM   22  C17 UNL     1      28.093   6.724  48.358  1.00  0.00    -0.036 A 
HETATM   23  C18 UNL     1      28.513   8.026  48.414  1.00  0.00     0.012 A 
HETATM   24  C19 UNL     1      29.838   8.397  48.580  1.00  0.00     0.040 A 
HETATM   25  C20 UNL     1      30.798   7.396  48.698  1.00  0.00     0.102 A 
HETATM   26  C21 UNL     1      30.386   6.075  48.642  1.00  0.00     0.102 A 
HETATM   27  O3  UNL     1      32.147   7.569  48.866  1.00  0.00    -0.346 OA
HETATM   28  C22 UNL     1      29.066   5.753  48.477  1.00  0.00     0.048 A 
HETATM   29  O2  UNL     1      31.391   5.124  48.766  1.00  0.00    -0.346 OA
HETATM   30  C23 UNL     1      32.658   5.308  48.147  1.00  0.00     0.202 C 
HETATM   31  C24 UNL     1      33.161   6.668  48.534  1.00  0.00     0.202 C 
ENDBRANCH   4  22
TORSDOF 6
ENDMDL
MODEL 8
REMARK VINA RESULT:      -8.4      3.577      4.424
REMARK  6 active torsions:
REMARK  status: ('A' for Active; 'I' for Inactive)
REMARK    1  A    between atoms: N1_1  and  N2_2 
REMARK    2  A    between atoms: C1_3  and  C2_4 
REMARK    3  A    between atoms: C6_8  and  O1_9 
REMARK    4  A    between atoms: O1_9  and  C7_10 
REMARK    5  A    between atoms: C7_10  and  C8_11 
REMARK    6  A    between atoms: C16_19  and  C17_20 
ROOT
HETATM    1  N2  UNL     1      20.085   2.142  51.541  1.00  0.00    -0.236 NA
HETATM    2  C1  UNL     1      20.917   1.016  51.332  1.00  0.00     0.110 C 
HETATM    3  C15 UNL     1      21.854   1.949  50.553  1.00  0.00     0.052 C 
HETATM    4  C16 UNL     1      20.522   2.617  50.217  1.00  0.00     0.110 C 
ENDROOT
BRANCH   2   5
HETATM    5  C2  UNL     1      21.533   0.320  52.445  1.00  0.00    -0.036 A 
HETATM    6  C3  UNL     1      20.873  -0.386  53.421  1.00  0.00     0.009 A 
HETATM    7  C4  UNL     1      21.443  -1.053  54.485  1.00  0.00     0.003 A 
HETATM    8  C5  UNL     1      22.821  -1.016  54.593  1.00  0.00     0.037 A 
HETATM    9  C6  UNL     1      23.567  -0.332  53.661  1.00  0.00     0.069 A 
HETATM   10  C14 UNL     1      22.923   0.311  52.624  1.00  0.00     0.045 A 
BRANCH   9  11
HETATM   11  O1  UNL     1      24.927  -0.328  53.819  1.00  0.00    -0.347 OA
BRANCH  11  12
HETATM   12  C7  UNL     1      25.822   0.503  53.107  1.00  0.00     0.214 C 
BRANCH  12  13
HETATM   13  C8  UNL     1      27.165  -0.098  53.214  1.00  0.00    -0.034 A 
HETATM   14  C9  UNL     1      27.463  -1.432  53.027  1.00  0.00     0.009 A 
HETATM   15  C10 UNL     1      28.790  -1.815  53.169  1.00  0.00     0.001 A 
HETATM   16  C11 UNL     1      29.809  -0.942  53.483  1.00  0.00     0.000 A 
HETATM   17  C12 UNL     1      29.505   0.403  53.672  1.00  0.00     0.001 A 
HETATM   18  C13 UNL     1      28.178   0.775  53.528  1.00  0.00     0.009 A 
ENDBRANCH  12  13
ENDBRANCH  11  12
ENDBRANCH   9  11
ENDBRANCH   2   5
BRANCH   1  19
HETATM   19  N1  UNL     1      20.441   3.101  52.460  1.00  0.00    -0.267 NA
HETATM   20  H1  UNL     1      21.297   2.910  52.988  1.00  0.00     0.137 HD
HETATM   21  H2  UNL     1      20.390   4.036  52.000  1.00  0.00     0.137 HD
ENDBRANCH   1  19
BRANCH   4  22
HETATM   22  C17 UNL     1      20.565   4.078  50.081  1.00  0.00    -0.036 A 
HETATM   23  C18 UNL     1      19.416   4.720  49.702  1.00  0.00     0.012 A 
HETATM   24  C19 UNL     1      19.325   6.093  49.538  1.00  0.00     0.040 A 
HETATM   25  C20 UNL     1      20.458   6.867  49.770  1.00  0.00     0.102 A 
HETATM   26  C21 UNL     1      21.626   6.229  50.154  1.00  0.00     0.102 A 
HETATM   27  O3  UNL     1      20.559   8.229  49.660  1.00  0.00    -0.346 OA
HETATM   28  C22 UNL     1      21.673   4.870  50.304  1.00  0.00     0.048 A 
HETATM   29  O2  UNL     1      22.722   7.055  50.370  1.00  0.00    -0.346 OA
HETATM   30  C23 UNL     1      22.982   8.170  49.525  1.00  0.00     0.202 C 
HETATM   31  C24 UNL     1      21.717   8.974  49.430  1.00  0.00     0.202 C 
ENDBRANCH   4  22
TORSDOF 6
ENDMDL
MODEL 9
REMARK VINA RESULT:      -8.3      2.103      3.361
REMARK  6 active torsions:
REMARK  status: ('A' for Active; 'I' for Inactive)
REMARK    1  A    between atoms: N1_1  and  N2_2 
REMARK    2  A    between atoms: C1_3  and  C2_4 
REMARK    3  A    between atoms: C6_8  and  O1_9 
REMARK    4  A    between atoms: O1_9  and  C7_10 
REMARK    5  A    between atoms: C7_10  and  C8_11 
REMARK    6  A    between atoms: C16_19  and  C17_20 
ROOT
HETATM    1  N2  UNL     1      25.871   6.685  49.066  1.00  0.00    -0.236 NA
HETATM    2  C1  UNL     1      25.093   5.502  49.051  1.00  0.00     0.110 C 
HETATM    3  C15 UNL     1      26.414   4.728  48.932  1.00  0.00     0.052 C 
HETATM    4  C16 UNL     1      26.810   5.990  48.169  1.00  0.00     0.110 C 
ENDROOT
BRANCH   2   5
HETATM    5  C2  UNL     1      24.267   5.131  50.183  1.00  0.00    -0.036 A 
HETATM    6  C3  UNL     1      23.121   5.770  50.590  1.00  0.00     0.009 A 
HETATM    7  C4  UNL     1      22.323   5.430  51.663  1.00  0.00     0.003 A 
HETATM    8  C5  UNL     1      22.706   4.335  52.416  1.00  0.00     0.037 A 
HETATM    9  C6  UNL     1      23.841   3.632  52.084  1.00  0.00     0.069 A 
HETATM   10  C14 UNL     1      24.587   4.034  50.995  1.00  0.00     0.045 A 
BRANCH   9  11
HETATM   11  O1  UNL     1      24.170   2.558  52.866  1.00  0.00    -0.347 OA
BRANCH  11  12
HETATM   12  C7  UNL     1      25.290   2.497  53.727  1.00  0.00     0.214 C 
BRANCH  12  13
HETATM   13  C8  UNL     1      26.060   1.290  53.369  1.00  0.00    -0.034 A 
HETATM   14  C9  UNL     1      25.835   0.496  52.263  1.00  0.00     0.009 A 
HETATM   15  C10 UNL     1      26.665  -0.604  52.090  1.00  0.00     0.001 A 
HETATM   16  C11 UNL     1      27.686  -0.937  52.954  1.00  0.00     0.000 A 
HETATM   17  C12 UNL     1      27.909  -0.133  54.068  1.00  0.00     0.001 A 
HETATM   18  C13 UNL     1      27.076   0.962  54.232  1.00  0.00     0.009 A 
ENDBRANCH  12  13
ENDBRANCH  11  12
ENDBRANCH   9  11
ENDBRANCH   2   5
BRANCH   1  19
HETATM   19  N1  UNL     1      26.567   7.037  50.199  1.00  0.00    -0.267 NA
HETATM   20  H1  UNL     1      27.581   7.119  50.086  1.00  0.00     0.137 HD
HETATM   21  H2  UNL     1      26.091   7.856  50.639  1.00  0.00     0.137 HD
ENDBRANCH   1  19
BRANCH   4  22
HETATM   22  C17 UNL     1      28.210   6.406  48.319  1.00  0.00    -0.036 A 
HETATM   23  C18 UNL     1      28.492   7.745  48.251  1.00  0.00     0.012 A 
HETATM   24  C19 UNL     1      29.770   8.265  48.377  1.00  0.00     0.040 A 
HETATM   25  C20 UNL     1      30.828   7.385  48.584  1.00  0.00     0.102 A 
HETATM   26  C21 UNL     1      30.556   6.029  48.654  1.00  0.00     0.102 A 
HETATM   27  O3  UNL     1      32.151   7.713  48.730  1.00  0.00    -0.346 OA
HETATM   28  C22 UNL     1      29.278   5.557  48.525  1.00  0.00     0.048 A 
HETATM   29  O2  UNL     1      31.654   5.203  48.862  1.00  0.00    -0.346 OA
HETATM   30  C23 UNL     1      32.899   5.459  48.224  1.00  0.00     0.202 C 
HETATM   31  C24 UNL     1      33.255   6.895  48.480  1.00  0.00     0.202 C 
ENDBRANCH   4  22
TORSDOF 6
ENDMDL
