MODEL 1
REMARK VINA RESULT:      -7.8      0.000      0.000
REMARK  3 active torsions:
REMARK  status: ('A' for Active; 'I' for Inactive)
REMARK    1  A    between atoms: C14_18  and  C15_19 
REMARK    2  A    between atoms: C15_19  and  O1_20 
REMARK    3  A    between atoms: O1_20  and  C16_21 
ROOT
HETATM    1  C1  UNL     1      23.944  -0.595  53.743  1.00  0.00     0.024 A 
HETATM    2  C2  UNL     1      23.761   0.521  53.021  1.00  0.00    -0.020 A 
HETATM    3  C3  UNL     1      22.718   1.506  52.758  1.00  0.00     0.017 C 
HETATM    4  C4  UNL     1      22.188   1.424  51.404  1.00  0.00     0.001 C 
HETATM    5  C5  UNL     1      22.278   2.497  50.574  1.00  0.00     0.044 C 
HETATM    6  C6  UNL     1      21.917   2.922  49.180  1.00  0.00     0.015 C 
HETATM    7 CL1  UNL     1      21.143   2.422  47.637  1.00  0.00    -0.089 Cl
HETATM    8  C7  UNL     1      22.344   4.194  49.031  1.00  0.00     0.012 C 
HETATM    9  C8  UNL     1      23.051   5.035  50.058  1.00  0.00     0.144 C 
HETATM   10  N1  UNL     1      24.314   5.439  49.574  1.00  0.00    -0.397 N 
HETATM   11  C9  UNL     1      25.299   4.458  49.367  1.00  0.00     0.205 C 
HETATM   12  C10 UNL     1      26.639   5.028  48.956  1.00  0.00     0.057 C 
HETATM   13  N2  UNL     1      25.537   3.500  50.381  1.00  0.00    -0.182 N 
HETATM   14  C11 UNL     1      26.688   3.022  50.707  1.00  0.00     0.327 A 
HETATM   15  N3  UNL     1      25.466   2.636  51.339  1.00  0.00    -0.004 NA
HETATM   16  C12 UNL     1      25.408   1.500  51.951  1.00  0.00     0.644 A 
HETATM   17  C13 UNL     1      25.100   0.247  52.711  1.00  0.00     0.010 A 
HETATM   18  C14 UNL     1      26.351   0.058  52.376  1.00  0.00     0.057 A 
HETATM   19  H10 UNL     1      24.616   6.406  49.726  1.00  0.00     0.155 HD
ENDROOT
BRANCH  18  20
HETATM   20  C15 UNL     1      26.904  -1.171  53.013  1.00  0.00     0.175 C 
BRANCH  20  21
HETATM   21  O1  UNL     1      27.536  -0.859  54.218  1.00  0.00    -0.391 OA
BRANCH  21  22
HETATM   22  C16 UNL     1      28.641  -0.040  54.025  1.00  0.00     0.163 C 
HETATM   23  C17 UNL     1      29.809  -0.939  53.621  1.00  0.00     0.033 C 
ENDBRANCH  21  22
ENDBRANCH  20  21
ENDBRANCH  18  20
TORSDOF 3
ENDMDL
MODEL 2
REMARK VINA RESULT:      -7.4      2.551      3.285
REMARK  3 active torsions:
REMARK  status: ('A' for Active; 'I' for Inactive)
REMARK    1  A    between atoms: C14_18  and  C15_19 
REMARK    2  A    between atoms: C15_19  and  O1_20 
REMARK    3  A    between atoms: O1_20  and  C16_21 
ROOT
HETATM    1  C1  UNL     1      23.002  -1.406  55.139  1.00  0.00     0.024 A 
HETATM    2  C2  UNL     1      22.286  -0.466  54.504  1.00  0.00    -0.020 A 
HETATM    3  C3  UNL     1      20.949   0.118  54.543  1.00  0.00     0.017 C 
HETATM    4  C4  UNL     1      20.141  -0.236  53.385  1.00  0.00     0.001 C 
HETATM    5  C5  UNL     1      19.659   0.741  52.571  1.00  0.00     0.044 C 
HETATM    6  C6  UNL     1      18.830   0.917  51.332  1.00  0.00     0.015 C 
HETATM    7 CL1  UNL     1      17.885   0.077  50.054  1.00  0.00    -0.089 Cl
HETATM    8  C7  UNL     1      18.767   2.243  51.082  1.00  0.00     0.012 C 
HETATM    9  C8  UNL     1      19.406   3.343  51.885  1.00  0.00     0.144 C 
HETATM   10  N1  UNL     1      20.298   4.083  51.077  1.00  0.00    -0.397 N 
HETATM   11  C9  UNL     1      21.457   3.446  50.601  1.00  0.00     0.205 C 
HETATM   12  C10 UNL     1      22.384   4.372  49.845  1.00  0.00     0.057 C 
HETATM   13  N2  UNL     1      22.248   2.697  51.504  1.00  0.00    -0.182 N 
HETATM   14  C11 UNL     1      23.535   2.631  51.499  1.00  0.00     0.327 A 
HETATM   15  N3  UNL     1      22.713   1.934  52.438  1.00  0.00    -0.004 NA
HETATM   16  C12 UNL     1      23.188   0.890  53.033  1.00  0.00     0.644 A 
HETATM   17  C13 UNL     1      23.511  -0.330  53.837  1.00  0.00     0.010 A 
HETATM   18  C14 UNL     1      24.623  -0.143  53.173  1.00  0.00     0.057 A 
HETATM   19  H10 UNL     1      20.298   5.104  51.150  1.00  0.00     0.155 HD
ENDROOT
BRANCH  18  20
HETATM   20  C15 UNL     1      25.690  -1.081  53.624  1.00  0.00     0.175 C 
BRANCH  20  21
HETATM   21  O1  UNL     1      26.405  -0.537  54.692  1.00  0.00    -0.391 OA
BRANCH  21  22
HETATM   22  C16 UNL     1      27.092   0.612  54.322  1.00  0.00     0.163 C 
HETATM   23  C17 UNL     1      28.541   0.442  54.774  1.00  0.00     0.033 C 
ENDBRANCH  21  22
ENDBRANCH  20  21
ENDBRANCH  18  20
TORSDOF 3
ENDMDL
MODEL 3
REMARK VINA RESULT:      -7.2      2.223      3.772
REMARK  3 active torsions:
REMARK  status: ('A' for Active; 'I' for Inactive)
REMARK    1  A    between atoms: C14_18  and  C15_19 
REMARK    2  A    between atoms: C15_19  and  O1_20 
REMARK    3  A    between atoms: O1_20  and  C16_21 
ROOT
HETATM    1  C1  UNL     1      27.511   2.237  52.400  1.00  0.00     0.024 A 
HETATM    2  C2  UNL     1      26.333   2.305  51.762  1.00  0.00    -0.020 A 
HETATM    3  C3  UNL     1      25.767   2.884  50.549  1.00  0.00     0.017 C 
HETATM    4  C4  UNL     1      24.850   3.982  50.818  1.00  0.00     0.001 C 
HETATM    5  C5  UNL     1      23.555   3.900  50.408  1.00  0.00     0.044 C 
HETATM    6  C6  UNL     1      22.280   4.691  50.424  1.00  0.00     0.015 C 
HETATM    7 CL1  UNL     1      21.502   6.232  50.927  1.00  0.00    -0.089 Cl
HETATM    8  C7  UNL     1      21.341   3.942  49.805  1.00  0.00     0.012 C 
HETATM    9  C8  UNL     1      21.527   2.572  49.213  1.00  0.00     0.144 C 
HETATM   10  N1  UNL     1      20.656   1.649  49.832  1.00  0.00    -0.397 N 
HETATM   11  C9  UNL     1      20.859   1.340  51.188  1.00  0.00     0.205 C 
HETATM   12  C10 UNL     1      19.935   0.259  51.703  1.00  0.00     0.057 C 
HETATM   13  N2  UNL     1      22.166   1.030  51.633  1.00  0.00    -0.182 N 
HETATM   14  C11 UNL     1      22.468   0.143  52.518  1.00  0.00     0.327 A 
HETATM   15  N3  UNL     1      23.438   0.955  51.853  1.00  0.00    -0.004 NA
HETATM   16  C12 UNL     1      24.589   1.140  52.409  1.00  0.00     0.644 A 
HETATM   17  C13 UNL     1      25.975   1.496  52.849  1.00  0.00     0.010 A 
HETATM   18  C14 UNL     1      25.567   0.736  53.833  1.00  0.00     0.057 A 
HETATM   19  H10 UNL     1      20.159   0.971  49.248  1.00  0.00     0.155 HD
ENDROOT
BRANCH  18  20
HETATM   20  C15 UNL     1      26.668   0.459  54.799  1.00  0.00     0.175 C 
BRANCH  20  21
HETATM   21  O1  UNL     1      27.491  -0.564  54.328  1.00  0.00    -0.391 OA
BRANCH  21  22
HETATM   22  C16 UNL     1      28.835  -0.285  54.541  1.00  0.00     0.163 C 
HETATM   23  C17 UNL     1      29.626  -0.981  53.434  1.00  0.00     0.033 C 
ENDBRANCH  21  22
ENDBRANCH  20  21
ENDBRANCH  18  20
TORSDOF 3
ENDMDL
MODEL 4
REMARK VINA RESULT:      -6.8      3.497      7.029
REMARK  3 active torsions:
REMARK  status: ('A' for Active; 'I' for Inactive)
REMARK    1  A    between atoms: C14_18  and  C15_19 
REMARK    2  A    between atoms: C15_19  and  O1_20 
REMARK    3  A    between atoms: O1_20  and  C16_21 
ROOT
HETATM    1  C1  UNL     1      25.363   4.025  49.373  1.00  0.00     0.024 A 
HETATM    2  C2  UNL     1      25.271   3.179  50.411  1.00  0.00    -0.020 A 
HETATM    3  C3  UNL     1      26.055   2.763  51.568  1.00  0.00     0.017 C 
HETATM    4  C4  UNL     1      26.562   1.403  51.451  1.00  0.00     0.001 C 
HETATM    5  C5  UNL     1      26.211   0.467  52.374  1.00  0.00     0.044 C 
HETATM    6  C6  UNL     1      26.437  -0.980  52.705  1.00  0.00     0.015 C 
HETATM    7 CL1  UNL     1      27.273  -2.494  52.217  1.00  0.00    -0.089 Cl
HETATM    8  C7  UNL     1      25.727  -1.246  53.823  1.00  0.00     0.012 C 
HETATM    9  C8  UNL     1      24.868  -0.283  54.596  1.00  0.00     0.144 C 
HETATM   10  N1  UNL     1      23.536  -0.749  54.647  1.00  0.00    -0.397 N 
HETATM   11  C9  UNL     1      22.798  -0.803  53.451  1.00  0.00     0.205 C 
HETATM   12  C10 UNL     1      21.355  -1.210  53.654  1.00  0.00     0.057 C 
HETATM   13  N2  UNL     1      22.806   0.318  52.588  1.00  0.00    -0.182 N 
HETATM   14  C11 UNL     1      21.802   0.746  51.904  1.00  0.00     0.327 A 
HETATM   15  N3  UNL     1      23.092   1.359  51.879  1.00  0.00    -0.004 NA
HETATM   16  C12 UNL     1      23.422   2.087  50.863  1.00  0.00     0.644 A 
HETATM   17  C13 UNL     1      24.023   2.962  49.809  1.00  0.00     0.010 A 
HETATM   18  C14 UNL     1      22.843   2.708  49.306  1.00  0.00     0.057 A 
HETATM   19  H10 UNL     1      23.025  -0.688  55.531  1.00  0.00     0.155 HD
ENDROOT
BRANCH  18  20
HETATM   20  C15 UNL     1      22.598   3.499  48.066  1.00  0.00     0.175 C 
BRANCH  20  21
HETATM   21  O1  UNL     1      21.487   4.329  48.222  1.00  0.00    -0.391 OA
BRANCH  21  22
HETATM   22  C16 UNL     1      21.857   5.645  48.471  1.00  0.00     0.163 C 
HETATM   23  C17 UNL     1      22.861   6.047  47.392  1.00  0.00     0.033 C 
ENDBRANCH  21  22
ENDBRANCH  20  21
ENDBRANCH  18  20
TORSDOF 3
ENDMDL
MODEL 5
REMARK VINA RESULT:      -6.6      2.473      4.319
REMARK  3 active torsions:
REMARK  status: ('A' for Active; 'I' for Inactive)
REMARK    1  A    between atoms: C14_18  and  C15_19 
REMARK    2  A    between atoms: C15_19  and  O1_20 
REMARK    3  A    between atoms: O1_20  and  C16_21 
ROOT
HETATM    1  C1  UNL     1      26.989   1.902  51.927  1.00  0.00     0.024 A 
HETATM    2  C2  UNL     1      26.100   2.416  51.063  1.00  0.00    -0.020 A 
HETATM    3  C3  UNL     1      26.076   3.282  49.890  1.00  0.00     0.017 C 
HETATM    4  C4  UNL     1      25.465   4.578  50.153  1.00  0.00     0.001 C 
HETATM    5  C5  UNL     1      24.365   4.963  49.452  1.00  0.00     0.044 C 
HETATM    6  C6  UNL     1      23.409   6.114  49.331  1.00  0.00     0.015 C 
HETATM    7 CL1  UNL     1      22.986   7.753  49.935  1.00  0.00    -0.089 Cl
HETATM    8  C7  UNL     1      22.507   5.782  48.382  1.00  0.00     0.012 C 
HETATM    9  C8  UNL     1      22.459   4.503  47.592  1.00  0.00     0.144 C 
HETATM   10  N1  UNL     1      21.229   3.842  47.805  1.00  0.00    -0.397 N 
HETATM   11  C9  UNL     1      20.955   3.330  49.085  1.00  0.00     0.205 C 
HETATM   12  C10 UNL     1      19.661   2.550  49.155  1.00  0.00     0.057 C 
HETATM   13  N2  UNL     1      21.948   2.568  49.746  1.00  0.00    -0.182 N 
HETATM   14  C11 UNL     1      21.733   1.535  50.486  1.00  0.00     0.327 A 
HETATM   15  N3  UNL     1      23.036   2.065  50.230  1.00  0.00    -0.004 NA
HETATM   16  C12 UNL     1      23.992   1.805  51.058  1.00  0.00     0.644 A 
HETATM   17  C13 UNL     1      25.245   1.645  51.862  1.00  0.00     0.010 A 
HETATM   18  C14 UNL     1      24.386   0.947  52.560  1.00  0.00     0.057 A 
HETATM   19  H10 UNL     1      20.743   3.432  47.003  1.00  0.00     0.155 HD
ENDROOT
BRANCH  18  20
HETATM   20  C15 UNL     1      25.054   0.222  53.678  1.00  0.00     0.175 C 
BRANCH  20  21
HETATM   21  O1  UNL     1      24.176  -0.687  54.270  1.00  0.00    -0.391 OA
BRANCH  21  22
HETATM   22  C16 UNL     1      22.932  -0.680  53.653  1.00  0.00     0.163 C 
HETATM   23  C17 UNL     1      21.907  -1.137  54.690  1.00  0.00     0.033 C 
ENDBRANCH  21  22
ENDBRANCH  20  21
ENDBRANCH  18  20
TORSDOF 3
ENDMDL
MODEL 6
REMARK VINA RESULT:      -6.6      4.262      6.642
REMARK  3 active torsions:
REMARK  status: ('A' for Active; 'I' for Inactive)
REMARK    1  A    between atoms: C14_18  and  C15_19 
REMARK    2  A    between atoms: C15_19  and  O1_20 
REMARK    3  A    between atoms: O1_20  and  C16_21 
ROOT
HETATM    1  C1  UNL     1      28.441   5.131  48.329  1.00  0.00     0.024 A 
HETATM    2  C2  UNL     1      27.313   4.955  49.032  1.00  0.00    -0.020 A 
HETATM    3  C3  UNL     1      26.730   3.994  49.962  1.00  0.00     0.017 C 
HETATM    4  C4  UNL     1      25.617   3.251  49.388  1.00  0.00     0.001 C 
HETATM    5  C5  UNL     1      24.387   3.322  49.962  1.00  0.00     0.044 C 
HETATM    6  C6  UNL     1      22.992   2.793  49.791  1.00  0.00     0.015 C 
HETATM    7 CL1  UNL     1      21.923   1.737  48.805  1.00  0.00    -0.089 Cl
HETATM    8  C7  UNL     1      22.243   3.322  50.782  1.00  0.00     0.012 C 
HETATM    9  C8  UNL     1      22.707   4.267  51.857  1.00  0.00     0.144 C 
HETATM   10  N1  UNL     1      21.976   5.474  51.796  1.00  0.00    -0.397 N 
HETATM   11  C9  UNL     1      22.145   6.305  50.674  1.00  0.00     0.205 C 
HETATM   12  C10 UNL     1      21.397   7.615  50.779  1.00  0.00     0.057 C 
HETATM   13  N2  UNL     1      23.455   6.597  50.228  1.00  0.00    -0.182 N 
HETATM   14  C11 UNL     1      23.853   7.729  49.756  1.00  0.00     0.327 A 
HETATM   15  N3  UNL     1      24.703   6.588  49.892  1.00  0.00    -0.004 NA
HETATM   16  C12 UNL     1      25.766   6.507  49.162  1.00  0.00     0.644 A 
HETATM   17  C13 UNL     1      27.036   6.193  48.434  1.00  0.00     0.010 A 
HETATM   18  C14 UNL     1      26.708   7.348  47.915  1.00  0.00     0.057 A 
HETATM   19  H10 UNL     1      21.645   5.896  52.668  1.00  0.00     0.155 HD
ENDROOT
BRANCH  18  20
HETATM   20  C15 UNL     1      27.777   7.863  47.013  1.00  0.00     0.175 C 
BRANCH  20  21
HETATM   21  O1  UNL     1      28.537   8.839  47.657  1.00  0.00    -0.391 OA
BRANCH  21  22
HETATM   22  C16 UNL     1      29.887   8.513  47.677  1.00  0.00     0.163 C 
HETATM   23  C17 UNL     1      30.363   8.632  49.125  1.00  0.00     0.033 C 
ENDBRANCH  21  22
ENDBRANCH  20  21
ENDBRANCH  18  20
TORSDOF 3
ENDMDL
MODEL 7
REMARK VINA RESULT:      -6.3      3.059      4.801
REMARK  3 active torsions:
REMARK  status: ('A' for Active; 'I' for Inactive)
REMARK    1  A    between atoms: C14_18  and  C15_19 
REMARK    2  A    between atoms: C15_19  and  O1_20 
REMARK    3  A    between atoms: O1_20  and  C16_21 
ROOT
HETATM    1  C1  UNL     1      25.468   3.189  50.706  1.00  0.00     0.024 A 
HETATM    2  C2  UNL     1      24.221   2.719  50.553  1.00  0.00    -0.020 A 
HETATM    3  C3  UNL     1      23.188   2.644  49.526  1.00  0.00     0.017 C 
HETATM    4  C4  UNL     1      22.043   3.498  49.810  1.00  0.00     0.001 C 
HETATM    5  C5  UNL     1      20.805   2.950  49.943  1.00  0.00     0.044 C 
HETATM    6  C6  UNL     1      19.383   3.345  50.214  1.00  0.00     0.015 C 
HETATM    7 CL1  UNL     1      18.266   4.716  50.535  1.00  0.00    -0.089 Cl
HETATM    8  C7  UNL     1      18.649   2.212  50.209  1.00  0.00     0.012 C 
HETATM    9  C8  UNL     1      19.151   0.813  49.980  1.00  0.00     0.144 C 
HETATM   10  N1  UNL     1      18.864   0.001  51.099  1.00  0.00    -0.397 N 
HETATM   11  C9  UNL     1      19.513   0.279  52.314  1.00  0.00     0.205 C 
HETATM   12  C10 UNL     1      19.208  -0.727  53.402  1.00  0.00     0.057 C 
HETATM   13  N2  UNL     1      20.911   0.492  52.313  1.00  0.00    -0.182 N 
HETATM   14  C11 UNL     1      21.732   0.104  53.227  1.00  0.00     0.327 A 
HETATM   15  N3  UNL     1      22.135   0.825  52.061  1.00  0.00    -0.004 NA
HETATM   16  C12 UNL     1      23.246   1.483  52.083  1.00  0.00     0.644 A 
HETATM   17  C13 UNL     1      24.475   2.310  51.870  1.00  0.00     0.010 A 
HETATM   18  C14 UNL     1      24.640   1.895  53.100  1.00  0.00     0.057 A 
HETATM   19  H10 UNL     1      18.508  -0.947  50.943  1.00  0.00     0.155 HD
ENDROOT
BRANCH  18  20
HETATM   20  C15 UNL     1      25.979   2.281  53.629  1.00  0.00     0.175 C 
BRANCH  20  21
HETATM   21  O1  UNL     1      26.451   1.318  54.523  1.00  0.00    -0.391 OA
BRANCH  21  22
HETATM   22  C16 UNL     1      27.779   0.991  54.276  1.00  0.00     0.163 C 
HETATM   23  C17 UNL     1      28.339   2.049  53.327  1.00  0.00     0.033 C 
ENDBRANCH  21  22
ENDBRANCH  20  21
ENDBRANCH  18  20
TORSDOF 3
ENDMDL
MODEL 8
REMARK VINA RESULT:      -6.2      3.738      4.839
REMARK  3 active torsions:
REMARK  status: ('A' for Active; 'I' for Inactive)
REMARK    1  A    between atoms: C14_18  and  C15_19 
REMARK    2  A    between atoms: C15_19  and  O1_20 
REMARK    3  A    between atoms: O1_20  and  C16_21 
ROOT
HETATM    1  C1  UNL     1      21.751  -1.648  54.444  1.00  0.00     0.024 A 
HETATM    2  C2  UNL     1      20.860  -0.800  53.908  1.00  0.00    -0.020 A 
HETATM    3  C3  UNL     1      19.420  -0.568  53.905  1.00  0.00     0.017 C 
HETATM    4  C4  UNL     1      18.798  -0.872  52.624  1.00  0.00     0.001 C 
HETATM    5  C5  UNL     1      18.135   0.101  51.944  1.00  0.00     0.044 C 
HETATM    6  C6  UNL     1      17.365   0.311  50.673  1.00  0.00     0.015 C 
HETATM    7 CL1  UNL     1      16.741  -0.466  49.177  1.00  0.00    -0.089 Cl
HETATM    8  C7  UNL     1      16.985   1.607  50.650  1.00  0.00     0.012 C 
HETATM    9  C8  UNL     1      17.275   2.651  51.693  1.00  0.00     0.144 C 
HETATM   10  N1  UNL     1      17.999   3.722  51.125  1.00  0.00    -0.397 N 
HETATM   11  C9  UNL     1      19.308   3.482  50.672  1.00  0.00     0.205 C 
HETATM   12  C10 UNL     1      20.014   4.730  50.189  1.00  0.00     0.057 C 
HETATM   13  N2  UNL     1      20.207   2.782  51.510  1.00  0.00    -0.182 N 
HETATM   14  C11 UNL     1      21.466   3.025  51.631  1.00  0.00     0.327 A 
HETATM   15  N3  UNL     1      20.792   1.986  52.343  1.00  0.00    -0.004 NA
HETATM   16  C12 UNL     1      21.478   0.989  52.796  1.00  0.00     0.644 A 
HETATM   17  C13 UNL     1      22.050  -0.251  53.408  1.00  0.00     0.010 A 
HETATM   18  C14 UNL     1      23.116   0.318  52.908  1.00  0.00     0.057 A 
HETATM   19  H10 UNL     1      17.738   4.681  51.371  1.00  0.00     0.155 HD
ENDROOT
BRANCH  18  20
HETATM   20  C15 UNL     1      24.357  -0.409  53.301  1.00  0.00     0.175 C 
BRANCH  20  21
HETATM   21  O1  UNL     1      25.444   0.464  53.355  1.00  0.00    -0.391 OA
BRANCH  21  22
HETATM   22  C16 UNL     1      25.315   1.504  52.443  1.00  0.00     0.163 C 
HETATM   23  C17 UNL     1      26.587   1.527  51.597  1.00  0.00     0.033 C 
ENDBRANCH  21  22
ENDBRANCH  20  21
ENDBRANCH  18  20
TORSDOF 3
ENDMDL
MODEL 9
REMARK VINA RESULT:      -6.2      3.296      5.198
REMARK  3 active torsions:
REMARK  status: ('A' for Active; 'I' for Inactive)
REMARK    1  A    between atoms: C14_18  and  C15_19 
REMARK    2  A    between atoms: C15_19  and  O1_20 
REMARK    3  A    between atoms: O1_20  and  C16_21 
ROOT
HETATM    1  C1  UNL     1      26.492   1.862  51.021  1.00  0.00     0.024 A 
HETATM    2  C2  UNL     1      26.196   2.945  50.288  1.00  0.00    -0.020 A 
HETATM    3  C3  UNL     1      26.600   3.574  49.035  1.00  0.00     0.017 C 
HETATM    4  C4  UNL     1      27.333   4.816  49.233  1.00  0.00     0.001 C 
HETATM    5  C5  UNL     1      26.851   5.978  48.717  1.00  0.00     0.044 C 
HETATM    6  C6  UNL     1      27.187   7.438  48.631  1.00  0.00     0.015 C 
HETATM    7 CL1  UNL     1      28.376   8.710  49.076  1.00  0.00    -0.089 Cl
HETATM    8  C7  UNL     1      26.195   8.032  47.933  1.00  0.00     0.012 C 
HETATM    9  C8  UNL     1      24.978   7.367  47.350  1.00  0.00     0.144 C 
HETATM   10  N1  UNL     1      23.804   7.936  47.890  1.00  0.00    -0.397 N 
HETATM   11  C9  UNL     1      23.534   7.748  49.256  1.00  0.00     0.205 C 
HETATM   12  C10 UNL     1      22.196   8.308  49.687  1.00  0.00     0.057 C 
HETATM   13  N2  UNL     1      23.648   6.450  49.806  1.00  0.00    -0.182 N 
HETATM   14  C11 UNL     1      22.879   5.945  50.708  1.00  0.00     0.327 A 
HETATM   15  N3  UNL     1      23.982   5.244  50.130  1.00  0.00    -0.004 NA
HETATM   16  C12 UNL     1      24.510   4.261  50.781  1.00  0.00     0.644 A 
HETATM   17  C13 UNL     1      25.280   3.104  51.337  1.00  0.00     0.010 A 
HETATM   18  C14 UNL     1      24.398   3.317  52.280  1.00  0.00     0.057 A 
HETATM   19  H10 UNL     1      23.021   8.140  47.263  1.00  0.00     0.155 HD
ENDROOT
BRANCH  18  20
HETATM   20  C15 UNL     1      24.460   2.263  53.332  1.00  0.00     0.175 C 
BRANCH  20  21
HETATM   21  O1  UNL     1      23.383   1.385  53.214  1.00  0.00    -0.391 OA
BRANCH  21  22
HETATM   22  C16 UNL     1      23.801   0.064  53.125  1.00  0.00     0.163 C 
HETATM   23  C17 UNL     1      22.547  -0.810  53.106  1.00  0.00     0.033 C 
ENDBRANCH  21  22
ENDBRANCH  20  21
ENDBRANCH  18  20
TORSDOF 3
ENDMDL
