MODEL 1
REMARK VINA RESULT:      -8.7      0.000      0.000
REMARK  1 active torsions:
REMARK  status: ('A' for Active; 'I' for Inactive)
REMARK    1  A    between atoms: C9_12  and  C10_13 
ROOT
HETATM    1  C1  UNL     1      24.149   3.759  53.086  1.00  0.00     0.037 C 
HETATM    2  C2  UNL     1      24.337   2.856  51.864  1.00  0.00     0.113 C 
HETATM    3  N1  UNL     1      25.672   2.356  51.762  1.00  0.00    -0.366 N 
HETATM    4  C3  UNL     1      26.795   1.729  52.377  1.00  0.00     0.134 A 
HETATM    5  N2  UNL     1      27.595   2.658  52.922  1.00  0.00    -0.224 NA
HETATM    6  C4  UNL     1      28.734   2.372  53.573  1.00  0.00     0.236 A 
HETATM    7  N3  UNL     1      29.120   1.082  53.701  1.00  0.00    -0.240 NA
HETATM    8  C5  UNL     1      28.341   0.138  53.169  1.00  0.00     0.082 A 
HETATM    9  C6  UNL     1      27.189   0.427  52.510  1.00  0.00     0.027 A 
HETATM   10  C7  UNL     1      26.555  -0.841  52.049  1.00  0.00     0.076 A 
HETATM   11  C8  UNL     1      27.456  -1.887  52.507  1.00  0.00     0.001 A 
HETATM   12  C9  UNL     1      28.473  -1.312  53.145  1.00  0.00     0.028 A 
HETATM   13  C11 UNL     1      25.153  -0.887  52.582  1.00  0.00     0.285 C 
HETATM   14  N4  UNL     1      24.909   0.150  53.554  1.00  0.00     0.089 N 
HETATM   15  C12 UNL     1      25.615  -0.111  54.765  1.00  0.00     0.310 C 
HETATM   16  C13 UNL     1      23.522   0.410  53.766  1.00  0.00     0.311 C 
HETATM   17  C14 UNL     1      22.857   0.798  52.465  1.00  0.00    -0.022 A 
HETATM   18  C15 UNL     1      21.796   0.014  52.064  1.00  0.00     0.009 A 
HETATM   19  C16 UNL     1      21.068   0.184  50.908  1.00  0.00     0.001 A 
HETATM   20  C17 UNL     1      21.446   1.233  50.096  1.00  0.00     0.001 A 
HETATM   21  C18 UNL     1      22.512   2.005  50.520  1.00  0.00     0.010 A 
HETATM   22  C19 UNL     1      23.276   1.858  51.695  1.00  0.00    -0.028 A 
HETATM   23  H5  UNL     1      26.152   2.422  50.806  1.00  0.00     0.161 HD
ENDROOT
BRANCH  12  24
HETATM   24  C10 UNL     1      29.578  -2.077  53.740  1.00  0.00     0.272 C 
HETATM   25  O1  UNL     1      29.513  -3.308  53.895  1.00  0.00    -0.301 OA
ENDBRANCH  12  24
TORSDOF 1
ENDMDL
MODEL 2
REMARK VINA RESULT:      -8.3      3.921      6.645
REMARK  1 active torsions:
REMARK  status: ('A' for Active; 'I' for Inactive)
REMARK    1  A    between atoms: C9_12  and  C10_13 
ROOT
HETATM    1  C1  UNL     1      25.303   2.498  53.703  1.00  0.00     0.037 C 
HETATM    2  C2  UNL     1      25.260   1.961  52.270  1.00  0.00     0.113 C 
HETATM    3  N1  UNL     1      24.229   0.987  52.088  1.00  0.00    -0.366 N 
HETATM    4  C3  UNL     1      22.867   0.601  52.257  1.00  0.00     0.134 A 
HETATM    5  N2  UNL     1      22.710  -0.015  53.438  1.00  0.00    -0.224 NA
HETATM    6  C4  UNL     1      21.536  -0.494  53.879  1.00  0.00     0.236 A 
HETATM    7  N3  UNL     1      20.432  -0.361  53.108  1.00  0.00    -0.240 NA
HETATM    8  C5  UNL     1      20.561   0.250  51.928  1.00  0.00     0.082 A 
HETATM    9  C6  UNL     1      21.749   0.734  51.482  1.00  0.00     0.027 A 
HETATM   10  C7  UNL     1      21.553   1.360  50.143  1.00  0.00     0.076 A 
HETATM   11  C8  UNL     1      20.136   1.188  49.863  1.00  0.00     0.001 A 
HETATM   12  C9  UNL     1      19.582   0.551  50.893  1.00  0.00     0.028 A 
HETATM   13  C11 UNL     1      22.054   2.774  50.208  1.00  0.00     0.285 C 
HETATM   14  N4  UNL     1      22.344   3.185  51.559  1.00  0.00     0.089 N 
HETATM   15  C12 UNL     1      21.143   3.341  52.312  1.00  0.00     0.310 C 
HETATM   16  C13 UNL     1      23.196   4.327  51.630  1.00  0.00     0.311 C 
HETATM   17  C14 UNL     1      24.500   4.054  50.916  1.00  0.00    -0.022 A 
HETATM   18  C15 UNL     1      24.824   4.912  49.887  1.00  0.00     0.009 A 
HETATM   19  C16 UNL     1      25.951   4.829  49.102  1.00  0.00     0.001 A 
HETATM   20  C17 UNL     1      26.818   3.793  49.382  1.00  0.00     0.001 A 
HETATM   21  C18 UNL     1      26.471   2.947  50.420  1.00  0.00     0.010 A 
HETATM   22  C19 UNL     1      25.328   3.004  51.241  1.00  0.00    -0.028 A 
HETATM   23  H5  UNL     1      24.491   0.078  51.585  1.00  0.00     0.161 HD
ENDROOT
BRANCH  12  24
HETATM   24  C10 UNL     1      18.154   0.208  50.945  1.00  0.00     0.272 C 
HETATM   25  O1  UNL     1      17.515  -0.095  49.923  1.00  0.00    -0.301 OA
ENDBRANCH  12  24
TORSDOF 1
ENDMDL
MODEL 3
REMARK VINA RESULT:      -8.0      3.841      7.370
REMARK  1 active torsions:
REMARK  status: ('A' for Active; 'I' for Inactive)
REMARK    1  A    between atoms: C9_12  and  C10_13 
ROOT
HETATM    1  C1  UNL     1      22.000  -0.001  54.554  1.00  0.00     0.037 C 
HETATM    2  C2  UNL     1      22.705  -0.459  53.274  1.00  0.00     0.113 C 
HETATM    3  N1  UNL     1      21.829  -0.452  52.143  1.00  0.00    -0.366 N 
HETATM    4  C3  UNL     1      20.862   0.230  51.349  1.00  0.00     0.134 A 
HETATM    5  N2  UNL     1      19.629  -0.017  51.817  1.00  0.00    -0.224 NA
HETATM    6  C4  UNL     1      18.510   0.487  51.274  1.00  0.00     0.236 A 
HETATM    7  N3  UNL     1      18.602   1.294  50.192  1.00  0.00    -0.240 NA
HETATM    8  C5  UNL     1      19.817   1.557  49.706  1.00  0.00     0.082 A 
HETATM    9  C6  UNL     1      20.949   1.046  50.256  1.00  0.00     0.027 A 
HETATM   10  C7  UNL     1      22.131   1.535  49.489  1.00  0.00     0.076 A 
HETATM   11  C8  UNL     1      21.567   2.375  48.445  1.00  0.00     0.001 A 
HETATM   12  C9  UNL     1      20.242   2.378  48.582  1.00  0.00     0.028 A 
HETATM   13  C11 UNL     1      23.071   2.203  50.449  1.00  0.00     0.285 C 
HETATM   14  N4  UNL     1      22.475   2.392  51.748  1.00  0.00     0.089 N 
HETATM   15  C12 UNL     1      21.459   3.392  51.701  1.00  0.00     0.310 C 
HETATM   16  C13 UNL     1      23.432   2.622  52.781  1.00  0.00     0.311 C 
HETATM   17  C14 UNL     1      24.407   1.470  52.859  1.00  0.00    -0.022 A 
HETATM   18  C15 UNL     1      25.739   1.785  52.698  1.00  0.00     0.009 A 
HETATM   19  C16 UNL     1      26.781   0.886  52.716  1.00  0.00     0.001 A 
HETATM   20  C17 UNL     1      26.445  -0.437  52.913  1.00  0.00     0.001 A 
HETATM   21  C18 UNL     1      25.102  -0.727  53.072  1.00  0.00     0.010 A 
HETATM   22  C19 UNL     1      24.014   0.167  53.059  1.00  0.00    -0.028 A 
HETATM   23  H5  UNL     1      21.826  -1.321  51.516  1.00  0.00     0.161 HD
ENDROOT
BRANCH  12  24
HETATM   24  C10 UNL     1      19.349   3.129  47.688  1.00  0.00     0.272 C 
HETATM   25  O1  UNL     1      19.480   3.098  46.453  1.00  0.00    -0.301 OA
ENDBRANCH  12  24
TORSDOF 1
ENDMDL
MODEL 4
REMARK VINA RESULT:      -7.9      3.254      5.821
REMARK  1 active torsions:
REMARK  status: ('A' for Active; 'I' for Inactive)
REMARK    1  A    between atoms: C9_12  and  C10_13 
ROOT
HETATM    1  C1  UNL     1      26.516  -0.678  51.710  1.00  0.00     0.037 C 
HETATM    2  C2  UNL     1      26.171   0.178  52.932  1.00  0.00     0.113 C 
HETATM    3  N1  UNL     1      26.200   1.577  52.637  1.00  0.00    -0.366 N 
HETATM    4  C3  UNL     1      25.816   2.658  51.791  1.00  0.00     0.134 A 
HETATM    5  N2  UNL     1      26.728   2.826  50.822  1.00  0.00    -0.224 NA
HETATM    6  C4  UNL     1      26.639   3.770  49.871  1.00  0.00     0.236 A 
HETATM    7  N3  UNL     1      25.581   4.612  49.867  1.00  0.00    -0.240 NA
HETATM    8  C5  UNL     1      24.658   4.466  50.820  1.00  0.00     0.082 A 
HETATM    9  C6  UNL     1      24.748   3.511  51.782  1.00  0.00     0.027 A 
HETATM   10  C7  UNL     1      23.563   3.608  52.682  1.00  0.00     0.076 A 
HETATM   11  C8  UNL     1      22.784   4.711  52.143  1.00  0.00     0.001 A 
HETATM   12  C9  UNL     1      23.423   5.192  51.079  1.00  0.00     0.028 A 
HETATM   13  C11 UNL     1      22.888   2.268  52.716  1.00  0.00     0.285 C 
HETATM   14  N4  UNL     1      23.413   1.371  51.717  1.00  0.00     0.089 N 
HETATM   15  C12 UNL     1      23.023   1.782  50.408  1.00  0.00     0.310 C 
HETATM   16  C13 UNL     1      23.118  -0.000  51.978  1.00  0.00     0.311 C 
HETATM   17  C14 UNL     1      23.663  -0.406  53.328  1.00  0.00    -0.022 A 
HETATM   18  C15 UNL     1      22.747  -0.899  54.233  1.00  0.00     0.009 A 
HETATM   19  C16 UNL     1      23.032  -1.306  55.517  1.00  0.00     0.001 A 
HETATM   20  C17 UNL     1      24.349  -1.205  55.914  1.00  0.00     0.001 A 
HETATM   21  C18 UNL     1      25.248  -0.709  54.987  1.00  0.00     0.010 A 
HETATM   22  C19 UNL     1      24.990  -0.285  53.668  1.00  0.00    -0.028 A 
HETATM   23  H5  UNL     1      26.726   2.215  53.320  1.00  0.00     0.161 HD
ENDROOT
BRANCH  12  24
HETATM   24  C10 UNL     1      22.916   6.321  50.285  1.00  0.00     0.272 C 
HETATM   25  O1  UNL     1      22.581   7.394  50.812  1.00  0.00    -0.301 OA
ENDBRANCH  12  24
TORSDOF 1
ENDMDL
MODEL 5
REMARK VINA RESULT:      -7.8      3.727      6.809
REMARK  1 active torsions:
REMARK  status: ('A' for Active; 'I' for Inactive)
REMARK    1  A    between atoms: C9_12  and  C10_13 
ROOT
HETATM    1  C1  UNL     1      22.056   0.686  53.553  1.00  0.00     0.037 C 
HETATM    2  C2  UNL     1      23.128   0.391  52.500  1.00  0.00     0.113 C 
HETATM    3  N1  UNL     1      22.807   0.960  51.228  1.00  0.00    -0.366 N 
HETATM    4  C3  UNL     1      22.387   2.086  50.462  1.00  0.00     0.134 A 
HETATM    5  N2  UNL     1      21.049   2.110  50.380  1.00  0.00    -0.224 NA
HETATM    6  C4  UNL     1      20.359   3.054  49.720  1.00  0.00     0.236 A 
HETATM    7  N3  UNL     1      21.027   4.050  49.094  1.00  0.00    -0.240 NA
HETATM    8  C5  UNL     1      22.360   4.051  49.162  1.00  0.00     0.082 A 
HETATM    9  C6  UNL     1      23.058   3.095  49.829  1.00  0.00     0.027 A 
HETATM   10  C7  UNL     1      24.516   3.387  49.721  1.00  0.00     0.076 A 
HETATM   11  C8  UNL     1      24.588   4.602  48.926  1.00  0.00     0.001 A 
HETATM   12  C9  UNL     1      23.347   4.970  48.613  1.00  0.00     0.028 A 
HETATM   13  C11 UNL     1      25.085   3.461  51.108  1.00  0.00     0.285 C 
HETATM   14  N4  UNL     1      24.054   3.473  52.116  1.00  0.00     0.089 N 
HETATM   15  C12 UNL     1      23.343   4.709  52.102  1.00  0.00     0.310 C 
HETATM   16  C13 UNL     1      24.531   3.122  53.415  1.00  0.00     0.311 C 
HETATM   17  C14 UNL     1      25.165   1.751  53.387  1.00  0.00    -0.022 A 
HETATM   18  C15 UNL     1      26.480   1.679  53.796  1.00  0.00     0.009 A 
HETATM   19  C16 UNL     1      27.244   0.534  53.830  1.00  0.00     0.001 A 
HETATM   20  C17 UNL     1      26.627  -0.628  53.417  1.00  0.00     0.001 A 
HETATM   21  C18 UNL     1      25.308  -0.529  53.012  1.00  0.00     0.010 A 
HETATM   22  C19 UNL     1      24.498   0.624  52.966  1.00  0.00    -0.028 A 
HETATM   23  H5  UNL     1      22.905   0.330  50.367  1.00  0.00     0.161 HD
ENDROOT
BRANCH  12  24
HETATM   24  C10 UNL     1      23.047   6.163  47.810  1.00  0.00     0.272 C 
HETATM   25  O1  UNL     1      23.879   7.071  47.649  1.00  0.00    -0.301 OA
ENDBRANCH  12  24
TORSDOF 1
ENDMDL
MODEL 6
REMARK VINA RESULT:      -7.6      3.852      6.335
REMARK  1 active torsions:
REMARK  status: ('A' for Active; 'I' for Inactive)
REMARK    1  A    between atoms: C9_12  and  C10_13 
ROOT
HETATM    1  C1  UNL     1      20.998   6.199  49.670  1.00  0.00     0.037 C 
HETATM    2  C2  UNL     1      22.069   6.220  50.764  1.00  0.00     0.113 C 
HETATM    3  N1  UNL     1      21.843   5.220  51.761  1.00  0.00    -0.366 N 
HETATM    4  C3  UNL     1      21.556   3.864  52.090  1.00  0.00     0.134 A 
HETATM    5  N2  UNL     1      20.229   3.680  52.154  1.00  0.00    -0.224 NA
HETATM    6  C4  UNL     1      19.652   2.503  52.446  1.00  0.00     0.236 A 
HETATM    7  N3  UNL     1      20.431   1.424  52.693  1.00  0.00    -0.240 NA
HETATM    8  C5  UNL     1      21.755   1.580  52.634  1.00  0.00     0.082 A 
HETATM    9  C6  UNL     1      22.338   2.771  52.340  1.00  0.00     0.027 A 
HETATM   10  C7  UNL     1      23.820   2.607  52.346  1.00  0.00     0.076 A 
HETATM   11  C8  UNL     1      24.031   1.206  52.674  1.00  0.00     0.001 A 
HETATM   12  C9  UNL     1      22.841   0.631  52.836  1.00  0.00     0.028 A 
HETATM   13  C11 UNL     1      24.350   3.070  51.021  1.00  0.00     0.285 C 
HETATM   14  N4  UNL     1      23.295   3.302  50.066  1.00  0.00     0.089 N 
HETATM   15  C12 UNL     1      22.705   2.072  49.651  1.00  0.00     0.310 C 
HETATM   16  C13 UNL     1      23.696   4.123  48.970  1.00  0.00     0.311 C 
HETATM   17  C14 UNL     1      24.198   5.457  49.470  1.00  0.00    -0.022 A 
HETATM   18  C15 UNL     1      25.487   5.796  49.116  1.00  0.00     0.009 A 
HETATM   19  C16 UNL     1      26.138   6.953  49.482  1.00  0.00     0.001 A 
HETATM   20  C17 UNL     1      25.426   7.834  50.268  1.00  0.00     0.001 A 
HETATM   21  C18 UNL     1      24.136   7.472  50.608  1.00  0.00     0.010 A 
HETATM   22  C19 UNL     1      23.441   6.299  50.252  1.00  0.00    -0.028 A 
HETATM   23  H5  UNL     1      21.907   5.523  52.787  1.00  0.00     0.161 HD
ENDROOT
BRANCH  12  24
HETATM   24  C10 UNL     1      22.680  -0.789  53.178  1.00  0.00     0.272 C 
HETATM   25  O1  UNL     1      22.729  -1.190  54.353  1.00  0.00    -0.301 OA
ENDBRANCH  12  24
TORSDOF 1
ENDMDL
MODEL 7
REMARK VINA RESULT:      -7.5      5.241      7.898
REMARK  1 active torsions:
REMARK  status: ('A' for Active; 'I' for Inactive)
REMARK    1  A    between atoms: C9_12  and  C10_13 
ROOT
HETATM    1  C1  UNL     1      26.190   3.223  49.826  1.00  0.00     0.037 C 
HETATM    2  C2  UNL     1      25.205   3.475  50.971  1.00  0.00     0.113 C 
HETATM    3  N1  UNL     1      24.922   4.866  51.144  1.00  0.00    -0.366 N 
HETATM    4  C3  UNL     1      24.558   6.121  50.574  1.00  0.00     0.134 A 
HETATM    5  N2  UNL     1      25.658   6.786  50.192  1.00  0.00    -0.224 NA
HETATM    6  C4  UNL     1      25.634   8.001  49.620  1.00  0.00     0.236 A 
HETATM    7  N3  UNL     1      24.446   8.611  49.407  1.00  0.00    -0.240 NA
HETATM    8  C5  UNL     1      23.335   7.971  49.777  1.00  0.00     0.082 A 
HETATM    9  C6  UNL     1      23.360   6.741  50.355  1.00  0.00     0.027 A 
HETATM   10  C7  UNL     1      21.962   6.304  50.638  1.00  0.00     0.076 A 
HETATM   11  C8  UNL     1      21.133   7.402  50.167  1.00  0.00     0.001 A 
HETATM   12  C9  UNL     1      21.933   8.348  49.677  1.00  0.00     0.028 A 
HETATM   13  C11 UNL     1      21.745   4.972  49.981  1.00  0.00     0.285 C 
HETATM   14  N4  UNL     1      22.825   4.624  49.092  1.00  0.00     0.089 N 
HETATM   15  C12 UNL     1      22.815   5.449  47.930  1.00  0.00     0.310 C 
HETATM   16  C13 UNL     1      22.875   3.231  48.784  1.00  0.00     0.311 C 
HETATM   17  C14 UNL     1      23.008   2.418  50.051  1.00  0.00    -0.022 A 
HETATM   18  C15 UNL     1      22.022   1.483  50.282  1.00  0.00     0.009 A 
HETATM   19  C16 UNL     1      21.946   0.655  51.380  1.00  0.00     0.001 A 
HETATM   20  C17 UNL     1      22.949   0.787  52.317  1.00  0.00     0.001 A 
HETATM   21  C18 UNL     1      23.926   1.732  52.062  1.00  0.00     0.010 A 
HETATM   22  C19 UNL     1      24.033   2.593  50.951  1.00  0.00    -0.028 A 
HETATM   23  H5  UNL     1      24.963   5.258  52.141  1.00  0.00     0.161 HD
ENDROOT
BRANCH  12  24
HETATM   24  C10 UNL     1      21.427   9.607  49.113  1.00  0.00     0.272 C 
HETATM   25  O1  UNL     1      20.275  10.013  49.343  1.00  0.00    -0.301 OA
ENDBRANCH  12  24
TORSDOF 1
ENDMDL
MODEL 8
REMARK VINA RESULT:      -7.4      8.718     11.258
REMARK  1 active torsions:
REMARK  status: ('A' for Active; 'I' for Inactive)
REMARK    1  A    between atoms: C9_12  and  C10_13 
ROOT
HETATM    1  C1  UNL     1      34.421   8.410  47.786  1.00  0.00     0.037 C 
HETATM    2  C2  UNL     1      33.863   7.205  48.548  1.00  0.00     0.113 C 
HETATM    3  N1  UNL     1      32.609   7.493  49.172  1.00  0.00    -0.366 N 
HETATM    4  C3  UNL     1      31.290   8.025  49.079  1.00  0.00     0.134 A 
HETATM    5  N2  UNL     1      31.303   9.333  49.379  1.00  0.00    -0.224 NA
HETATM    6  C4  UNL     1      30.206  10.108  49.378  1.00  0.00     0.236 A 
HETATM    7  N3  UNL     1      29.008   9.566  49.061  1.00  0.00    -0.240 NA
HETATM    8  C5  UNL     1      28.968   8.267  48.758  1.00  0.00     0.082 A 
HETATM    9  C6  UNL     1      30.077   7.482  48.759  1.00  0.00     0.027 A 
HETATM   10  C7  UNL     1      29.696   6.093  48.371  1.00  0.00     0.076 A 
HETATM   11  C8  UNL     1      28.261   6.157  48.148  1.00  0.00     0.001 A 
HETATM   12  C9  UNL     1      27.858   7.406  48.374  1.00  0.00     0.028 A 
HETATM   13  C11 UNL     1      30.538   5.686  47.197  1.00  0.00     0.285 C 
HETATM   14  N4  UNL     1      31.271   6.797  46.644  1.00  0.00     0.089 N 
HETATM   15  C12 UNL     1      30.395   7.708  45.984  1.00  0.00     0.310 C 
HETATM   16  C13 UNL     1      32.372   6.397  45.830  1.00  0.00     0.311 C 
HETATM   17  C14 UNL     1      33.326   5.534  46.623  1.00  0.00    -0.022 A 
HETATM   18  C15 UNL     1      33.569   4.273  46.121  1.00  0.00     0.009 A 
HETATM   19  C16 UNL     1      34.388   3.328  46.697  1.00  0.00     0.001 A 
HETATM   20  C17 UNL     1      35.007   3.689  47.875  1.00  0.00     0.001 A 
HETATM   21  C18 UNL     1      34.746   4.959  48.358  1.00  0.00     0.010 A 
HETATM   22  C19 UNL     1      33.916   5.949  47.794  1.00  0.00    -0.028 A 
HETATM   23  H5  UNL     1      32.488   7.202  50.197  1.00  0.00     0.161 HD
ENDROOT
BRANCH  12  24
HETATM   24  C10 UNL     1      26.457   7.830  48.242  1.00  0.00     0.272 C 
HETATM   25  O1  UNL     1      25.841   7.731  47.168  1.00  0.00    -0.301 OA
ENDBRANCH  12  24
TORSDOF 1
ENDMDL
MODEL 9
REMARK VINA RESULT:      -7.3      4.534      6.453
REMARK  1 active torsions:
REMARK  status: ('A' for Active; 'I' for Inactive)
REMARK    1  A    between atoms: C9_12  and  C10_13 
ROOT
HETATM    1  C1  UNL     1      20.090   4.154  50.788  1.00  0.00     0.037 C 
HETATM    2  C2  UNL     1      21.034   3.108  50.188  1.00  0.00     0.113 C 
HETATM    3  N1  UNL     1      21.914   3.672  49.211  1.00  0.00    -0.366 N 
HETATM    4  C3  UNL     1      22.834   4.694  48.839  1.00  0.00     0.134 A 
HETATM    5  N2  UNL     1      22.176   5.719  48.276  1.00  0.00    -0.224 NA
HETATM    6  C4  UNL     1      22.777   6.831  47.822  1.00  0.00     0.236 A 
HETATM    7  N3  UNL     1      24.120   6.951  47.926  1.00  0.00    -0.240 NA
HETATM    8  C5  UNL     1      24.799   5.946  48.483  1.00  0.00     0.082 A 
HETATM    9  C6  UNL     1      24.192   4.820  48.942  1.00  0.00     0.027 A 
HETATM   10  C7  UNL     1      25.222   3.904  49.509  1.00  0.00     0.076 A 
HETATM   11  C8  UNL     1      26.479   4.611  49.331  1.00  0.00     0.001 A 
HETATM   12  C9  UNL     1      26.222   5.778  48.742  1.00  0.00     0.028 A 
HETATM   13  C11 UNL     1      24.833   3.577  50.922  1.00  0.00     0.285 C 
HETATM   14  N4  UNL     1      23.751   4.405  51.391  1.00  0.00     0.089 N 
HETATM   15  C12 UNL     1      24.185   5.749  51.586  1.00  0.00     0.310 C 
HETATM   16  C13 UNL     1      23.083   3.867  52.532  1.00  0.00     0.311 C 
HETATM   17  C14 UNL     1      22.541   2.491  52.221  1.00  0.00    -0.022 A 
HETATM   18  C15 UNL     1      22.980   1.466  53.032  1.00  0.00     0.009 A 
HETATM   19  C16 UNL     1      22.624   0.141  52.909  1.00  0.00     0.001 A 
HETATM   20  C17 UNL     1      21.755  -0.167  51.884  1.00  0.00     0.001 A 
HETATM   21  C18 UNL     1      21.329   0.879  51.085  1.00  0.00     0.010 A 
HETATM   22  C19 UNL     1      21.672   2.242  51.184  1.00  0.00    -0.028 A 
HETATM   23  H5  UNL     1      22.015   3.152  48.280  1.00  0.00     0.161 HD
ENDROOT
BRANCH  12  24
HETATM   24  C10 UNL     1      27.270   6.752  48.408  1.00  0.00     0.272 C 
HETATM   25  O1  UNL     1      27.435   7.790  49.071  1.00  0.00    -0.301 OA
ENDBRANCH  12  24
TORSDOF 1
ENDMDL
