MODEL 1
REMARK VINA RESULT:     -10.3      0.000      0.000
REMARK  3 active torsions:
REMARK  status: ('A' for Active; 'I' for Inactive)
REMARK    1  A    between atoms: N1_2  and  C3_4 
REMARK    2  A    between atoms: C6_7  and  C7_8 
REMARK    3  A    between atoms: C9_10  and  C10_11 
ROOT
HETATM    1  C7  UNL     1      25.662   3.909  49.213  1.00  0.00     0.055 C 
HETATM    2  C8  UNL     1      26.480   3.076  50.145  1.00  0.00     0.075 C 
HETATM    3  C9  UNL     1      25.792   2.259  51.134  1.00  0.00     0.065 C 
HETATM    4  N2  UNL     1      24.572   1.948  51.565  1.00  0.00    -0.180 NA
HETATM    5  N3  UNL     1      23.459   2.748  51.228  1.00  0.00    -0.298 N 
HETATM    6  C18 UNL     1      22.554   3.341  52.189  1.00  0.00     0.172 C 
HETATM    7  C19 UNL     1      22.508   4.843  52.053  1.00  0.00    -0.006 C 
HETATM    8  C20 UNL     1      23.154   5.716  51.257  1.00  0.00    -0.002 C 
HETATM    9  C21 UNL     1      24.042   5.383  50.118  1.00  0.00     0.005 C 
HETATM   10  C22 UNL     1      24.295   4.154  49.697  1.00  0.00    -0.052 C 
HETATM   11  C23 UNL     1      23.243   3.039  49.778  1.00  0.00     0.179 C 
ENDROOT
BRANCH   3  12
HETATM   12  C10 UNL     1      26.767   1.508  51.958  1.00  0.00    -0.007 A 
HETATM   13  C11 UNL     1      27.765   2.146  52.665  1.00  0.00     0.016 A 
HETATM   14  C12 UNL     1      28.700   1.509  53.451  1.00  0.00     0.040 A 
HETATM   15  C13 UNL     1      28.641   0.122  53.543  1.00  0.00     0.102 A 
HETATM   16  C14 UNL     1      27.660  -0.542  52.853  1.00  0.00     0.103 A 
HETATM   17  O2  UNL     1      29.540  -0.584  54.307  1.00  0.00    -0.346 OA
HETATM   18  C15 UNL     1      26.765   0.145  52.092  1.00  0.00     0.053 A 
HETATM   19  O1  UNL     1      27.723  -1.904  53.035  1.00  0.00    -0.346 OA
HETATM   20  C16 UNL     1      28.947  -2.599  53.198  1.00  0.00     0.202 C 
HETATM   21  C17 UNL     1      29.935  -1.896  54.072  1.00  0.00     0.202 C 
ENDBRANCH   3  12
BRANCH   1  22
HETATM   22  C6  UNL     1      26.402   5.124  48.879  1.00  0.00    -0.049 A 
HETATM   23  C5  UNL     1      27.770   5.024  48.600  1.00  0.00     0.010 A 
HETATM   24  C4  UNL     1      28.598   6.095  48.281  1.00  0.00     0.030 A 
HETATM   25  C3  UNL     1      28.054   7.359  48.231  1.00  0.00     0.029 A 
HETATM   26  C25 UNL     1      26.715   7.504  48.497  1.00  0.00     0.030 A 
HETATM   27  C24 UNL     1      25.917   6.427  48.810  1.00  0.00     0.010 A 
BRANCH  25  28
HETATM   28  N1  UNL     1      28.882   8.443  47.911  1.00  0.00    -0.390 N 
HETATM   29  C1  UNL     1      29.952   8.791  48.856  1.00  0.00     0.149 C 
HETATM   30  C2  UNL     1      28.743   9.237  46.706  1.00  0.00     0.149 C 
ENDBRANCH  25  28
ENDBRANCH   1  22
TORSDOF 3
ENDMDL
MODEL 2
REMARK VINA RESULT:     -10.3      1.806      2.066
REMARK  3 active torsions:
REMARK  status: ('A' for Active; 'I' for Inactive)
REMARK    1  A    between atoms: N1_2  and  C3_4 
REMARK    2  A    between atoms: C6_7  and  C7_8 
REMARK    3  A    between atoms: C9_10  and  C10_11 
ROOT
HETATM    1  C7  UNL     1      24.099   3.542  49.461  1.00  0.00     0.055 C 
HETATM    2  C8  UNL     1      25.185   2.948  50.297  1.00  0.00     0.075 C 
HETATM    3  C9  UNL     1      24.844   1.877  51.222  1.00  0.00     0.065 C 
HETATM    4  N2  UNL     1      23.811   1.156  51.648  1.00  0.00    -0.180 NA
HETATM    5  N3  UNL     1      22.485   1.575  51.408  1.00  0.00    -0.298 N 
HETATM    6  C18 UNL     1      21.486   1.766  52.437  1.00  0.00     0.172 C 
HETATM    7  C19 UNL     1      20.954   3.179  52.438  1.00  0.00    -0.006 C 
HETATM    8  C20 UNL     1      21.247   4.273  51.712  1.00  0.00    -0.002 C 
HETATM    9  C21 UNL     1      22.138   4.337  50.529  1.00  0.00     0.005 C 
HETATM   10  C22 UNL     1      22.751   3.293  49.993  1.00  0.00    -0.052 C 
HETATM   11  C23 UNL     1      22.117   1.895  49.995  1.00  0.00     0.179 C 
ENDROOT
BRANCH   3  12
HETATM   12  C10 UNL     1      26.048   1.420  51.954  1.00  0.00    -0.007 A 
HETATM   13  C11 UNL     1      26.991   2.308  52.427  1.00  0.00     0.016 A 
HETATM   14  C12 UNL     1      28.129   1.949  53.117  1.00  0.00     0.040 A 
HETATM   15  C13 UNL     1      28.350   0.597  53.358  1.00  0.00     0.102 A 
HETATM   16  C14 UNL     1      27.430  -0.311  52.900  1.00  0.00     0.103 A 
HETATM   17  O2  UNL     1      29.462   0.163  54.038  1.00  0.00    -0.346 OA
HETATM   18  C15 UNL     1      26.325   0.105  52.223  1.00  0.00     0.053 A 
HETATM   19  O1  UNL     1      27.777  -1.607  53.207  1.00  0.00    -0.346 OA
HETATM   20  C16 UNL     1      29.121  -2.051  53.245  1.00  0.00     0.202 C 
HETATM   21  C17 UNL     1      30.066  -1.080  53.878  1.00  0.00     0.202 C 
ENDBRANCH   3  12
BRANCH   1  22
HETATM   22  C6  UNL     1      24.393   4.954  49.222  1.00  0.00    -0.049 A 
HETATM   23  C5  UNL     1      25.315   5.599  50.054  1.00  0.00     0.010 A 
HETATM   24  C4  UNL     1      25.679   6.938  49.951  1.00  0.00     0.030 A 
HETATM   25  C3  UNL     1      25.101   7.706  48.965  1.00  0.00     0.029 A 
HETATM   26  C25 UNL     1      24.191   7.114  48.126  1.00  0.00     0.030 A 
HETATM   27  C24 UNL     1      23.848   5.787  48.249  1.00  0.00     0.010 A 
BRANCH  25  28
HETATM   28  N1  UNL     1      25.463   9.055  48.856  1.00  0.00    -0.390 N 
HETATM   29  C1  UNL     1      26.609   9.524  49.648  1.00  0.00     0.149 C 
HETATM   30  C2  UNL     1      24.774  10.010  48.011  1.00  0.00     0.149 C 
ENDBRANCH  25  28
ENDBRANCH   1  22
TORSDOF 3
ENDMDL
MODEL 3
REMARK VINA RESULT:     -10.1      3.243      7.343
REMARK  3 active torsions:
REMARK  status: ('A' for Active; 'I' for Inactive)
REMARK    1  A    between atoms: N1_2  and  C3_4 
REMARK    2  A    between atoms: C6_7  and  C7_8 
REMARK    3  A    between atoms: C9_10  and  C10_11 
ROOT
HETATM    1  C7  UNL     1      23.992   4.204  50.841  1.00  0.00     0.055 C 
HETATM    2  C8  UNL     1      25.218   4.788  50.219  1.00  0.00     0.075 C 
HETATM    3  C9  UNL     1      25.082   5.523  48.970  1.00  0.00     0.065 C 
HETATM    4  N2  UNL     1      24.172   5.905  48.078  1.00  0.00    -0.180 NA
HETATM    5  N3  UNL     1      22.899   5.298  48.036  1.00  0.00    -0.298 N 
HETATM    6  C18 UNL     1      22.324   4.677  46.862  1.00  0.00     0.172 C 
HETATM    7  C19 UNL     1      21.987   3.227  47.112  1.00  0.00    -0.006 C 
HETATM    8  C20 UNL     1      22.146   2.414  48.172  1.00  0.00    -0.002 C 
HETATM    9  C21 UNL     1      22.598   2.808  49.528  1.00  0.00     0.005 C 
HETATM   10  C22 UNL     1      22.876   4.049  49.896  1.00  0.00    -0.052 C 
HETATM   11  C23 UNL     1      22.124   5.253  49.313  1.00  0.00     0.179 C 
ENDROOT
BRANCH   3  12
HETATM   12  C10 UNL     1      26.400   6.025  48.516  1.00  0.00    -0.007 A 
HETATM   13  C11 UNL     1      26.527   7.219  47.838  1.00  0.00     0.016 A 
HETATM   14  C12 UNL     1      27.721   7.744  47.391  1.00  0.00     0.040 A 
HETATM   15  C13 UNL     1      28.885   7.023  47.638  1.00  0.00     0.102 A 
HETATM   16  C14 UNL     1      28.791   5.832  48.310  1.00  0.00     0.103 A 
HETATM   17  O2  UNL     1      30.113   7.482  47.223  1.00  0.00    -0.346 OA
HETATM   18  C15 UNL     1      27.582   5.366  48.725  1.00  0.00     0.053 A 
HETATM   19  O1  UNL     1      30.017   5.231  48.482  1.00  0.00    -0.346 OA
HETATM   20  C16 UNL     1      31.056   5.322  47.523  1.00  0.00     0.202 C 
HETATM   21  C17 UNL     1      31.206   6.680  46.915  1.00  0.00     0.202 C 
ENDBRANCH   3  12
BRANCH   1  22
HETATM   22  C6  UNL     1      24.350   2.975  51.546  1.00  0.00    -0.049 A 
HETATM   23  C5  UNL     1      25.594   2.387  51.288  1.00  0.00     0.010 A 
HETATM   24  C4  UNL     1      26.058   1.215  51.873  1.00  0.00     0.030 A 
HETATM   25  C3  UNL     1      25.251   0.564  52.780  1.00  0.00     0.029 A 
HETATM   26  C25 UNL     1      24.022   1.105  53.065  1.00  0.00     0.030 A 
HETATM   27  C24 UNL     1      23.586   2.267  52.470  1.00  0.00     0.010 A 
BRANCH  25  28
HETATM   28  N1  UNL     1      25.712  -0.618  53.374  1.00  0.00    -0.390 N 
HETATM   29  C1  UNL     1      25.246  -0.929  54.733  1.00  0.00     0.149 C 
HETATM   30  C2  UNL     1      26.619  -1.546  52.728  1.00  0.00     0.149 C 
ENDBRANCH  25  28
ENDBRANCH   1  22
TORSDOF 3
ENDMDL
MODEL 4
REMARK VINA RESULT:     -10.1      4.023      8.232
REMARK  3 active torsions:
REMARK  status: ('A' for Active; 'I' for Inactive)
REMARK    1  A    between atoms: N1_2  and  C3_4 
REMARK    2  A    between atoms: C6_7  and  C7_8 
REMARK    3  A    between atoms: C9_10  and  C10_11 
ROOT
HETATM    1  C7  UNL     1      20.766   1.910  52.164  1.00  0.00     0.055 C 
HETATM    2  C8  UNL     1      22.062   1.360  52.663  1.00  0.00     0.075 C 
HETATM    3  C9  UNL     1      23.297   1.809  52.036  1.00  0.00     0.065 C 
HETATM    4  N2  UNL     1      23.747   2.612  51.075  1.00  0.00    -0.180 NA
HETATM    5  N3  UNL     1      22.882   3.099  50.073  1.00  0.00    -0.298 N 
HETATM    6  C18 UNL     1      23.099   2.937  48.651  1.00  0.00     0.172 C 
HETATM    7  C19 UNL     1      21.952   2.210  47.994  1.00  0.00    -0.006 C 
HETATM    8  C20 UNL     1      20.815   1.667  48.466  1.00  0.00    -0.002 C 
HETATM    9  C21 UNL     1      20.286   1.782  49.847  1.00  0.00     0.005 C 
HETATM   10  C22 UNL     1      20.858   2.484  50.813  1.00  0.00    -0.052 C 
HETATM   11  C23 UNL     1      21.630   3.779  50.525  1.00  0.00     0.179 C 
ENDROOT
BRANCH   3  12
HETATM   12  C10 UNL     1      24.468   1.158  52.667  1.00  0.00    -0.007 A 
HETATM   13  C11 UNL     1      24.333   0.057  53.485  1.00  0.00     0.016 A 
HETATM   14  C12 UNL     1      25.380  -0.597  54.100  1.00  0.00     0.040 A 
HETATM   15  C13 UNL     1      26.668  -0.117  53.884  1.00  0.00     0.102 A 
HETATM   16  C14 UNL     1      26.835   0.977  53.075  1.00  0.00     0.103 A 
HETATM   17  O2  UNL     1      27.761  -0.716  54.463  1.00  0.00    -0.346 OA
HETATM   18  C15 UNL     1      25.760   1.580  52.496  1.00  0.00     0.053 A 
HETATM   19  O1  UNL     1      28.156   1.340  52.953  1.00  0.00    -0.346 OA
HETATM   20  C16 UNL     1      29.089   1.201  54.010  1.00  0.00     0.202 C 
HETATM   21  C17 UNL     1      28.953  -0.073  54.780  1.00  0.00     0.202 C 
ENDBRANCH   3  12
BRANCH   1  22
HETATM   22  C6  UNL     1      19.725   0.895  52.310  1.00  0.00    -0.049 A 
HETATM   23  C5  UNL     1      19.980  -0.220  53.116  1.00  0.00     0.010 A 
HETATM   24  C4  UNL     1      19.090  -1.267  53.333  1.00  0.00     0.030 A 
HETATM   25  C3  UNL     1      17.858  -1.224  52.720  1.00  0.00     0.029 A 
HETATM   26  C25 UNL     1      17.564  -0.148  51.920  1.00  0.00     0.030 A 
HETATM   27  C24 UNL     1      18.464   0.874  51.721  1.00  0.00     0.010 A 
BRANCH  25  28
HETATM   28  N1  UNL     1      16.955  -2.274  52.934  1.00  0.00    -0.390 N 
HETATM   29  C1  UNL     1      15.590  -2.122  52.413  1.00  0.00     0.149 C 
HETATM   30  C2  UNL     1      17.291  -3.496  53.638  1.00  0.00     0.149 C 
ENDBRANCH  25  28
ENDBRANCH   1  22
TORSDOF 3
ENDMDL
MODEL 5
REMARK VINA RESULT:     -10.1      1.530      2.199
REMARK  3 active torsions:
REMARK  status: ('A' for Active; 'I' for Inactive)
REMARK    1  A    between atoms: N1_2  and  C3_4 
REMARK    2  A    between atoms: C6_7  and  C7_8 
REMARK    3  A    between atoms: C9_10  and  C10_11 
ROOT
HETATM    1  C7  UNL     1      25.348   5.229  48.979  1.00  0.00     0.055 C 
HETATM    2  C8  UNL     1      25.840   4.198  49.942  1.00  0.00     0.075 C 
HETATM    3  C9  UNL     1      24.877   3.275  50.525  1.00  0.00     0.065 C 
HETATM    4  N2  UNL     1      23.580   2.979  50.520  1.00  0.00    -0.180 NA
HETATM    5  N3  UNL     1      22.629   3.897  50.026  1.00  0.00    -0.298 N 
HETATM    6  C18 UNL     1      21.488   4.381  50.774  1.00  0.00     0.172 C 
HETATM    7  C19 UNL     1      21.508   5.884  50.904  1.00  0.00    -0.006 C 
HETATM    8  C20 UNL     1      22.374   6.832  50.501  1.00  0.00    -0.002 C 
HETATM    9  C21 UNL     1      23.555   6.637  49.627  1.00  0.00     0.005 C 
HETATM   10  C22 UNL     1      23.904   5.481  49.082  1.00  0.00    -0.052 C 
HETATM   11  C23 UNL     1      22.858   4.442  48.653  1.00  0.00     0.179 C 
ENDROOT
BRANCH   3  12
HETATM   12  C10 UNL     1      25.553   2.332  51.446  1.00  0.00    -0.007 A 
HETATM   13  C11 UNL     1      24.883   1.272  52.020  1.00  0.00     0.016 A 
HETATM   14  C12 UNL     1      25.452   0.359  52.881  1.00  0.00     0.040 A 
HETATM   15  C13 UNL     1      26.798   0.509  53.200  1.00  0.00     0.102 A 
HETATM   16  C14 UNL     1      27.491   1.554  52.644  1.00  0.00     0.103 A 
HETATM   17  O2  UNL     1      27.434  -0.362  54.051  1.00  0.00    -0.346 OA
HETATM   18  C15 UNL     1      26.873   2.424  51.800  1.00  0.00     0.053 A 
HETATM   19  O1  UNL     1      28.807   1.580  53.047  1.00  0.00    -0.346 OA
HETATM   20  C16 UNL     1      29.220   1.178  54.341  1.00  0.00     0.202 C 
HETATM   21  C17 UNL     1      28.529  -0.047  54.848  1.00  0.00     0.202 C 
ENDBRANCH   3  12
BRANCH   1  22
HETATM   22  C6  UNL     1      26.172   6.430  49.098  1.00  0.00    -0.049 A 
HETATM   23  C5  UNL     1      27.223   6.619  48.193  1.00  0.00     0.010 A 
HETATM   24  C4  UNL     1      28.093   7.704  48.197  1.00  0.00     0.030 A 
HETATM   25  C3  UNL     1      27.927   8.680  49.155  1.00  0.00     0.029 A 
HETATM   26  C25 UNL     1      26.909   8.536  50.064  1.00  0.00     0.030 A 
HETATM   27  C24 UNL     1      26.062   7.451  50.038  1.00  0.00     0.010 A 
BRANCH  25  28
HETATM   28  N1  UNL     1      28.800   9.776  49.166  1.00  0.00    -0.390 N 
HETATM   29  C1  UNL     1      28.233  11.105  48.900  1.00  0.00     0.149 C 
HETATM   30  C2  UNL     1      30.223   9.673  49.423  1.00  0.00     0.149 C 
ENDBRANCH  25  28
ENDBRANCH   1  22
TORSDOF 3
ENDMDL
MODEL 6
REMARK VINA RESULT:      -9.9      3.393      7.750
REMARK  3 active torsions:
REMARK  status: ('A' for Active; 'I' for Inactive)
REMARK    1  A    between atoms: N1_2  and  C3_4 
REMARK    2  A    between atoms: C6_7  and  C7_8 
REMARK    3  A    between atoms: C9_10  and  C10_11 
ROOT
HETATM    1  C7  UNL     1      23.389   2.548  52.766  1.00  0.00     0.055 C 
HETATM    2  C8  UNL     1      23.968   3.771  52.132  1.00  0.00     0.075 C 
HETATM    3  C9  UNL     1      23.108   4.593  51.292  1.00  0.00     0.065 C 
HETATM    4  N2  UNL     1      21.864   4.665  50.827  1.00  0.00    -0.180 NA
HETATM    5  N3  UNL     1      21.010   3.542  50.864  1.00  0.00    -0.298 N 
HETATM    6  C18 UNL     1      20.338   2.984  49.709  1.00  0.00     0.172 C 
HETATM    7  C19 UNL     1      20.712   1.538  49.495  1.00  0.00    -0.006 C 
HETATM    8  C20 UNL     1      21.553   0.701  50.130  1.00  0.00    -0.002 C 
HETATM    9  C21 UNL     1      22.277   0.966  51.396  1.00  0.00     0.005 C 
HETATM   10  C22 UNL     1      22.161   2.076  52.109  1.00  0.00    -0.052 C 
HETATM   11  C23 UNL     1      20.842   2.857  52.181  1.00  0.00     0.179 C 
ENDROOT
BRANCH   3  12
HETATM   12  C10 UNL     1      23.858   5.754  50.760  1.00  0.00    -0.007 A 
HETATM   13  C11 UNL     1      23.364   7.039  50.846  1.00  0.00     0.016 A 
HETATM   14  C12 UNL     1      24.011   8.161  50.374  1.00  0.00     0.040 A 
HETATM   15  C13 UNL     1      25.251   7.995  49.766  1.00  0.00     0.102 A 
HETATM   16  C14 UNL     1      25.769   6.729  49.666  1.00  0.00     0.103 A 
HETATM   17  O2  UNL     1      25.955   9.066  49.272  1.00  0.00    -0.346 OA
HETATM   18  C15 UNL     1      25.081   5.660  50.151  1.00  0.00     0.053 A 
HETATM   19  O1  UNL     1      26.996   6.715  49.043  1.00  0.00    -0.346 OA
HETATM   20  C16 UNL     1      27.336   7.610  47.999  1.00  0.00     0.202 C 
HETATM   21  C17 UNL     1      26.864   9.011  48.220  1.00  0.00     0.202 C 
ENDBRANCH   3  12
BRANCH   1  22
HETATM   22  C6  UNL     1      24.430   1.530  52.885  1.00  0.00    -0.049 A 
HETATM   23  C5  UNL     1      25.635   1.714  52.197  1.00  0.00     0.010 A 
HETATM   24  C4  UNL     1      26.703   0.823  52.209  1.00  0.00     0.030 A 
HETATM   25  C3  UNL     1      26.590  -0.335  52.945  1.00  0.00     0.029 A 
HETATM   26  C25 UNL     1      25.425  -0.557  53.637  1.00  0.00     0.030 A 
HETATM   27  C24 UNL     1      24.383   0.341  53.608  1.00  0.00     0.010 A 
BRANCH  25  28
HETATM   28  N1  UNL     1      27.662  -1.237  52.961  1.00  0.00    -0.390 N 
HETATM   29  C1  UNL     1      27.409  -2.610  52.503  1.00  0.00     0.149 C 
HETATM   30  C2  UNL     1      28.999  -0.893  53.402  1.00  0.00     0.149 C 
ENDBRANCH  25  28
ENDBRANCH   1  22
TORSDOF 3
ENDMDL
MODEL 7
REMARK VINA RESULT:      -9.8      3.568      7.656
REMARK  3 active torsions:
REMARK  status: ('A' for Active; 'I' for Inactive)
REMARK    1  A    between atoms: N1_2  and  C3_4 
REMARK    2  A    between atoms: C6_7  and  C7_8 
REMARK    3  A    between atoms: C9_10  and  C10_11 
ROOT
HETATM    1  C7  UNL     1      21.846   2.002  52.328  1.00  0.00     0.055 C 
HETATM    2  C8  UNL     1      23.193   1.488  52.716  1.00  0.00     0.075 C 
HETATM    3  C9  UNL     1      24.357   1.959  51.980  1.00  0.00     0.065 C 
HETATM    4  N2  UNL     1      24.703   2.763  50.977  1.00  0.00    -0.180 NA
HETATM    5  N3  UNL     1      23.742   3.219  50.050  1.00  0.00    -0.298 N 
HETATM    6  C18 UNL     1      23.839   3.047  48.616  1.00  0.00     0.172 C 
HETATM    7  C19 UNL     1      22.657   2.287  48.068  1.00  0.00    -0.006 C 
HETATM    8  C20 UNL     1      21.578   1.723  48.642  1.00  0.00    -0.002 C 
HETATM    9  C21 UNL     1      21.169   1.840  50.062  1.00  0.00     0.005 C 
HETATM   10  C22 UNL     1      21.806   2.564  50.969  1.00  0.00    -0.052 C 
HETATM   11  C23 UNL     1      22.518   3.874  50.604  1.00  0.00     0.179 C 
ENDROOT
BRANCH   3  12
HETATM   12  C10 UNL     1      25.595   1.342  52.511  1.00  0.00    -0.007 A 
HETATM   13  C11 UNL     1      26.623   2.103  53.026  1.00  0.00     0.016 A 
HETATM   14  C12 UNL     1      27.796   1.593  53.538  1.00  0.00     0.040 A 
HETATM   15  C13 UNL     1      27.963   0.211  53.539  1.00  0.00     0.102 A 
HETATM   16  C14 UNL     1      26.958  -0.573  53.035  1.00  0.00     0.103 A 
HETATM   17  O2  UNL     1      29.106  -0.371  54.033  1.00  0.00    -0.346 OA
HETATM   18  C15 UNL     1      25.822  -0.009  52.542  1.00  0.00     0.053 A 
HETATM   19  O1  UNL     1      27.260  -1.914  53.098  1.00  0.00    -0.346 OA
HETATM   20  C16 UNL     1      28.576  -2.411  52.937  1.00  0.00     0.202 C 
HETATM   21  C17 UNL     1      29.625  -1.594  53.621  1.00  0.00     0.202 C 
ENDBRANCH   3  12
BRANCH   1  22
HETATM   22  C6  UNL     1      20.846   0.965  52.572  1.00  0.00    -0.049 A 
HETATM   23  C5  UNL     1      19.546   1.156  52.092  1.00  0.00     0.010 A 
HETATM   24  C4  UNL     1      18.494   0.262  52.263  1.00  0.00     0.030 A 
HETATM   25  C3  UNL     1      18.726  -0.907  52.953  1.00  0.00     0.029 A 
HETATM   26  C25 UNL     1      19.988  -1.137  53.442  1.00  0.00     0.030 A 
HETATM   27  C24 UNL     1      21.011  -0.235  53.259  1.00  0.00     0.010 A 
BRANCH  25  28
HETATM   28  N1  UNL     1      17.671  -1.812  53.129  1.00  0.00    -0.390 N 
HETATM   29  C1  UNL     1      16.371  -1.473  52.534  1.00  0.00     0.149 C 
HETATM   30  C2  UNL     1      17.789  -3.057  53.862  1.00  0.00     0.149 C 
ENDBRANCH  25  28
ENDBRANCH   1  22
TORSDOF 3
ENDMDL
MODEL 8
REMARK VINA RESULT:      -9.6      4.891      7.751
REMARK  3 active torsions:
REMARK  status: ('A' for Active; 'I' for Inactive)
REMARK    1  A    between atoms: N1_2  and  C3_4 
REMARK    2  A    between atoms: C6_7  and  C7_8 
REMARK    3  A    between atoms: C9_10  and  C10_11 
ROOT
HETATM    1  C7  UNL     1      23.561   1.856  50.841  1.00  0.00     0.055 C 
HETATM    2  C8  UNL     1      22.387   1.096  51.367  1.00  0.00     0.075 C 
HETATM    3  C9  UNL     1      21.051   1.616  51.111  1.00  0.00     0.065 C 
HETATM    4  N2  UNL     1      20.420   2.628  50.522  1.00  0.00    -0.180 NA
HETATM    5  N3  UNL     1      21.110   3.808  50.174  1.00  0.00    -0.298 N 
HETATM    6  C18 UNL     1      20.730   5.138  50.602  1.00  0.00     0.172 C 
HETATM    7  C19 UNL     1      21.842   5.812  51.367  1.00  0.00    -0.006 C 
HETATM    8  C20 UNL     1      23.070   5.415  51.749  1.00  0.00    -0.002 C 
HETATM    9  C21 UNL     1      23.756   4.161  51.356  1.00  0.00     0.005 C 
HETATM   10  C22 UNL     1      23.254   3.259  50.527  1.00  0.00    -0.052 C 
HETATM   11  C23 UNL     1      22.349   3.656  49.352  1.00  0.00     0.179 C 
ENDROOT
BRANCH   3  12
HETATM   12  C10 UNL     1      20.025   0.727  51.705  1.00  0.00    -0.007 A 
HETATM   13  C11 UNL     1      20.298  -0.068  52.798  1.00  0.00     0.016 A 
HETATM   14  C12 UNL     1      19.390  -0.913  53.399  1.00  0.00     0.040 A 
HETATM   15  C13 UNL     1      18.104  -0.973  52.873  1.00  0.00     0.102 A 
HETATM   16  C14 UNL     1      17.801  -0.194  51.786  1.00  0.00     0.103 A 
HETATM   17  O2  UNL     1      17.144  -1.792  53.418  1.00  0.00    -0.346 OA
HETATM   18  C15 UNL     1      18.742   0.621  51.235  1.00  0.00     0.053 A 
HETATM   19  O1  UNL     1      16.499  -0.356  51.373  1.00  0.00    -0.346 OA
HETATM   20  C16 UNL     1      15.817  -1.595  51.457  1.00  0.00     0.202 C 
HETATM   21  C17 UNL     1      16.075  -2.347  52.724  1.00  0.00     0.202 C 
ENDBRANCH   3  12
BRANCH   1  22
HETATM   22  C6  UNL     1      24.692   1.683  51.751  1.00  0.00    -0.049 A 
HETATM   23  C5  UNL     1      25.986   1.896  51.264  1.00  0.00     0.010 A 
HETATM   24  C4  UNL     1      27.151   1.755  52.011  1.00  0.00     0.030 A 
HETATM   25  C3  UNL     1      27.048   1.379  53.332  1.00  0.00     0.029 A 
HETATM   26  C25 UNL     1      25.797   1.160  53.852  1.00  0.00     0.030 A 
HETATM   27  C24 UNL     1      24.660   1.306  53.091  1.00  0.00     0.010 A 
BRANCH  25  28
HETATM   28  N1  UNL     1      28.217   1.235  54.090  1.00  0.00    -0.390 N 
HETATM   29  C1  UNL     1      28.391  -0.008  54.854  1.00  0.00     0.149 C 
HETATM   30  C2  UNL     1      29.260   2.239  54.164  1.00  0.00     0.149 C 
ENDBRANCH  25  28
ENDBRANCH   1  22
TORSDOF 3
ENDMDL
MODEL 9
REMARK VINA RESULT:      -9.5      4.183      6.841
REMARK  3 active torsions:
REMARK  status: ('A' for Active; 'I' for Inactive)
REMARK    1  A    between atoms: N1_2  and  C3_4 
REMARK    2  A    between atoms: C6_7  and  C7_8 
REMARK    3  A    between atoms: C9_10  and  C10_11 
ROOT
HETATM    1  C7  UNL     1      24.075   2.931  52.605  1.00  0.00     0.055 C 
HETATM    2  C8  UNL     1      22.833   2.109  52.719  1.00  0.00     0.075 C 
HETATM    3  C9  UNL     1      22.919   0.805  53.362  1.00  0.00     0.065 C 
HETATM    4  N2  UNL     1      23.788  -0.016  53.946  1.00  0.00    -0.180 NA
HETATM    5  N3  UNL     1      25.178   0.161  53.776  1.00  0.00    -0.298 N 
HETATM    6  C18 UNL     1      26.080  -0.858  53.283  1.00  0.00     0.172 C 
HETATM    7  C19 UNL     1      26.803  -0.403  52.039  1.00  0.00    -0.006 C 
HETATM    8  C20 UNL     1      26.748   0.720  51.301  1.00  0.00    -0.002 C 
HETATM    9  C21 UNL     1      26.005   1.960  51.631  1.00  0.00     0.005 C 
HETATM   10  C22 UNL     1      25.310   2.145  52.743  1.00  0.00    -0.052 C 
HETATM   11  C23 UNL     1      25.734   1.514  54.076  1.00  0.00     0.179 C 
ENDROOT
BRANCH   3  12
HETATM   12  C10 UNL     1      21.592   0.147  53.382  1.00  0.00    -0.007 A 
HETATM   13  C11 UNL     1      21.360  -0.998  54.114  1.00  0.00     0.016 A 
HETATM   14  C12 UNL     1      20.151  -1.657  54.178  1.00  0.00     0.040 A 
HETATM   15  C13 UNL     1      19.082  -1.135  53.455  1.00  0.00     0.102 A 
HETATM   16  C14 UNL     1      19.281   0.003  52.717  1.00  0.00     0.103 A 
HETATM   17  O2  UNL     1      17.847  -1.737  53.469  1.00  0.00    -0.346 OA
HETATM   18  C15 UNL     1      20.500   0.608  52.694  1.00  0.00     0.053 A 
HETATM   19  O1  UNL     1      18.143   0.402  52.055  1.00  0.00    -0.346 OA
HETATM   20  C16 UNL     1      17.196  -0.516  51.538  1.00  0.00     0.202 C 
HETATM   21  C17 UNL     1      16.912  -1.672  52.442  1.00  0.00     0.202 C 
ENDBRANCH   3  12
BRANCH   1  22
HETATM   22  C6  UNL     1      24.011   3.731  51.383  1.00  0.00    -0.049 A 
HETATM   23  C5  UNL     1      24.243   5.108  51.467  1.00  0.00     0.010 A 
HETATM   24  C4  UNL     1      24.201   5.990  50.392  1.00  0.00     0.030 A 
HETATM   25  C3  UNL     1      23.913   5.493  49.141  1.00  0.00     0.029 A 
HETATM   26  C25 UNL     1      23.679   4.146  49.011  1.00  0.00     0.030 A 
HETATM   27  C24 UNL     1      23.726   3.295  50.092  1.00  0.00     0.010 A 
BRANCH  25  28
HETATM   28  N1  UNL     1      23.869   6.375  48.053  1.00  0.00    -0.390 N 
HETATM   29  C1  UNL     1      22.779   6.211  47.081  1.00  0.00     0.149 C 
HETATM   30  C2  UNL     1      24.834   7.434  47.833  1.00  0.00     0.149 C 
ENDBRANCH  25  28
ENDBRANCH   1  22
TORSDOF 3
ENDMDL
