MODEL 1
REMARK VINA RESULT:      -8.6      0.000      0.000
REMARK  5 active torsions:
REMARK  status: ('A' for Active; 'I' for Inactive)
REMARK    1  A    between atoms: C2_2  and  C3_3 
REMARK    2  A    between atoms: C3_3  and  C4_4 
REMARK    3  A    between atoms: C4_4  and  C5_5 
REMARK    4  A    between atoms: C5_5  and  C6_6 
REMARK       I    between atoms: C6_6  and  N1_8 
REMARK    5  A    between atoms: N1_8  and  C7_9 
ROOT
HETATM    1  C7  UNL     1      24.762   2.559  52.386  1.00  0.00     0.027 C 
HETATM    2  C8  UNL     1      23.971   3.581  52.781  1.00  0.00     0.009 C 
HETATM    3  C9  UNL     1      22.634   3.138  52.410  1.00  0.00     0.046 C 
HETATM    4  C10 UNL     1      21.355   3.474  52.421  1.00  0.00     0.015 C 
HETATM    5  C11 UNL     1      20.437   2.493  51.847  1.00  0.00     0.066 A 
HETATM    6  N2  UNL     1      19.475   2.669  50.933  1.00  0.00    -0.261 NA
HETATM    7  C12 UNL     1      18.639   1.721  50.484  1.00  0.00     0.117 A 
HETATM    8  C13 UNL     1      18.683   0.430  50.931  1.00  0.00     0.020 A 
HETATM    9  C14 UNL     1      19.664   0.163  51.889  1.00  0.00     0.017 A 
HETATM   10  C15 UNL     1      20.498   1.182  52.310  1.00  0.00     0.022 A 
HETATM   11  C16 UNL     1      21.363   0.434  53.250  1.00  0.00     0.089 A 
HETATM   12  C17 UNL     1      21.039  -0.178  54.402  1.00  0.00     0.053 A 
HETATM   13  C18 UNL     1      22.165  -0.782  54.977  1.00  0.00     0.139 A 
HETATM   14  N3  UNL     1      23.395  -0.753  54.445  1.00  0.00    -0.075 NA
HETATM   15  C19 UNL     1      23.659  -0.128  53.291  1.00  0.00     0.723 A 
HETATM   16  N4  UNL     1      22.571   0.439  52.767  1.00  0.00    -0.062 NA
HETATM   17  N5  UNL     1      24.773   0.102  52.416  1.00  0.00    -0.217 N 
HETATM   18  C20 UNL     1      24.576   1.312  51.625  1.00  0.00     0.195 C 
HETATM   19  H21 UNL     1      25.391  -0.704  52.635  1.00  0.00     0.178 HD
ENDROOT
BRANCH   1  20
HETATM   20  N1  UNL     1      26.189   2.627  52.602  1.00  0.00    -0.329 N 
HETATM   21  C6  UNL     1      26.872   2.079  53.702  1.00  0.00     0.222 C 
HETATM   22  O1  UNL     1      26.570   1.440  54.726  1.00  0.00    -0.273 OA
HETATM   23  H12 UNL     1      26.733   3.125  51.874  1.00  0.00     0.168 HD
BRANCH  21  24
HETATM   24  C5  UNL     1      28.359   2.238  53.774  1.00  0.00     0.103 C 
BRANCH  24  25
HETATM   25  C4  UNL     1      28.983   1.049  54.434  1.00  0.00     0.009 C 
BRANCH  25  26
HETATM   26  C3  UNL     1      29.830   0.263  53.480  1.00  0.00     0.000 C 
BRANCH  26  27
HETATM   27  C2  UNL     1      29.543  -1.201  53.547  1.00  0.00    -0.005 C 
HETATM   28  C1  UNL     1      28.106  -1.395  53.096  1.00  0.00     0.005 C 
ENDBRANCH  26  27
ENDBRANCH  25  26
ENDBRANCH  24  25
ENDBRANCH  21  24
ENDBRANCH   1  20
TORSDOF 5
ENDMDL
MODEL 2
REMARK VINA RESULT:      -8.1      1.854      3.181
REMARK  5 active torsions:
REMARK  status: ('A' for Active; 'I' for Inactive)
REMARK    1  A    between atoms: C2_2  and  C3_3 
REMARK    2  A    between atoms: C3_3  and  C4_4 
REMARK    3  A    between atoms: C4_4  and  C5_5 
REMARK    4  A    between atoms: C5_5  and  C6_6 
REMARK       I    between atoms: C6_6  and  N1_8 
REMARK    5  A    between atoms: N1_8  and  C7_9 
ROOT
HETATM    1  C7  UNL     1      24.940   1.466  53.367  1.00  0.00     0.027 C 
HETATM    2  C8  UNL     1      24.579   0.184  53.134  1.00  0.00     0.009 C 
HETATM    3  C9  UNL     1      23.196   0.298  52.689  1.00  0.00     0.046 C 
HETATM    4  C10 UNL     1      22.145  -0.392  52.280  1.00  0.00     0.015 C 
HETATM    5  C11 UNL     1      20.957   0.396  51.956  1.00  0.00     0.066 A 
HETATM    6  N2  UNL     1      19.694   0.227  52.362  1.00  0.00    -0.261 NA
HETATM    7  C12 UNL     1      18.644   0.970  51.984  1.00  0.00     0.117 A 
HETATM    8  C13 UNL     1      18.759   2.015  51.110  1.00  0.00     0.020 A 
HETATM    9  C14 UNL     1      20.051   2.259  50.638  1.00  0.00     0.017 A 
HETATM   10  C15 UNL     1      21.094   1.459  51.067  1.00  0.00     0.022 A 
HETATM   11  C16 UNL     1      22.223   2.108  50.364  1.00  0.00     0.089 A 
HETATM   12  C17 UNL     1      22.455   2.214  49.045  1.00  0.00     0.053 A 
HETATM   13  C18 UNL     1      23.641   2.923  48.805  1.00  0.00     0.139 A 
HETATM   14  N3  UNL     1      24.429   3.426  49.765  1.00  0.00    -0.075 NA
HETATM   15  C19 UNL     1      24.146   3.291  51.066  1.00  0.00     0.723 A 
HETATM   16  N4  UNL     1      23.014   2.611  51.266  1.00  0.00    -0.062 NA
HETATM   17  N5  UNL     1      24.685   3.682  52.337  1.00  0.00    -0.217 N 
HETATM   18  C20 UNL     1      24.256   2.769  53.391  1.00  0.00     0.195 C 
HETATM   19  H21 UNL     1      25.233   4.529  52.088  1.00  0.00     0.178 HD
ENDROOT
BRANCH   1  20
HETATM   20  N1  UNL     1      26.279   1.765  53.820  1.00  0.00    -0.329 N 
HETATM   21  C6  UNL     1      27.347   2.164  52.997  1.00  0.00     0.222 C 
HETATM   22  O1  UNL     1      27.522   2.375  51.783  1.00  0.00    -0.273 OA
HETATM   23  H12 UNL     1      26.442   1.673  54.840  1.00  0.00     0.168 HD
BRANCH  21  24
HETATM   24  C5  UNL     1      28.676   2.437  53.629  1.00  0.00     0.103 C 
BRANCH  24  25
HETATM   25  C4  UNL     1      29.169   1.228  54.360  1.00  0.00     0.009 C 
BRANCH  25  26
HETATM   26  C3  UNL     1      29.812   0.241  53.433  1.00  0.00     0.000 C 
BRANCH  26  27
HETATM   27  C2  UNL     1      29.372  -1.159  53.707  1.00  0.00    -0.005 C 
HETATM   28  C1  UNL     1      28.041  -1.354  53.003  1.00  0.00     0.005 C 
ENDBRANCH  26  27
ENDBRANCH  25  26
ENDBRANCH  24  25
ENDBRANCH  21  24
ENDBRANCH   1  20
TORSDOF 5
ENDMDL
MODEL 3
REMARK VINA RESULT:      -7.9      3.323      5.635
REMARK  5 active torsions:
REMARK  status: ('A' for Active; 'I' for Inactive)
REMARK    1  A    between atoms: C2_2  and  C3_3 
REMARK    2  A    between atoms: C3_3  and  C4_4 
REMARK    3  A    between atoms: C4_4  and  C5_5 
REMARK    4  A    between atoms: C5_5  and  C6_6 
REMARK       I    between atoms: C6_6  and  N1_8 
REMARK    5  A    between atoms: N1_8  and  C7_9 
ROOT
HETATM    1  C7  UNL     1      24.710   3.881  51.538  1.00  0.00     0.027 C 
HETATM    2  C8  UNL     1      25.557   2.898  51.159  1.00  0.00     0.009 C 
HETATM    3  C9  UNL     1      25.192   1.784  52.024  1.00  0.00     0.046 C 
HETATM    4  C10 UNL     1      25.472   0.527  52.322  1.00  0.00     0.015 C 
HETATM    5  C11 UNL     1      24.660  -0.069  53.381  1.00  0.00     0.066 A 
HETATM    6  N2  UNL     1      25.052  -0.740  54.470  1.00  0.00    -0.261 NA
HETATM    7  C12 UNL     1      24.240  -1.298  55.380  1.00  0.00     0.117 A 
HETATM    8  C13 UNL     1      22.878  -1.238  55.285  1.00  0.00     0.020 A 
HETATM    9  C14 UNL     1      22.387  -0.551  54.173  1.00  0.00     0.017 A 
HETATM   10  C15 UNL     1      23.275   0.005  53.271  1.00  0.00     0.022 A 
HETATM   11  C16 UNL     1      22.324   0.642  52.333  1.00  0.00     0.089 A 
HETATM   12  C17 UNL     1      21.407   0.072  51.532  1.00  0.00     0.053 A 
HETATM   13  C18 UNL     1      20.702   1.046  50.812  1.00  0.00     0.139 A 
HETATM   14  N3  UNL     1      20.917   2.365  50.913  1.00  0.00    -0.075 NA
HETATM   15  C19 UNL     1      21.844   2.878  51.731  1.00  0.00     0.723 A 
HETATM   16  N4  UNL     1      22.500   1.929  52.403  1.00  0.00    -0.062 NA
HETATM   17  N5  UNL     1      22.342   4.163  52.132  1.00  0.00    -0.217 N 
HETATM   18  C20 UNL     1      23.717   4.065  52.610  1.00  0.00     0.195 C 
HETATM   19  H21 UNL     1      21.527   4.779  51.945  1.00  0.00     0.178 HD
ENDROOT
BRANCH   1  20
HETATM   20  N1  UNL     1      24.760   5.168  50.883  1.00  0.00    -0.329 N 
HETATM   21  C6  UNL     1      24.332   5.429  49.569  1.00  0.00     0.222 C 
HETATM   22  O1  UNL     1      23.836   4.776  48.633  1.00  0.00    -0.273 OA
HETATM   23  H12 UNL     1      25.145   5.947  51.447  1.00  0.00     0.168 HD
BRANCH  21  24
HETATM   24  C5  UNL     1      24.453   6.825  49.040  1.00  0.00     0.103 C 
BRANCH  24  25
HETATM   25  C4  UNL     1      25.630   6.938  48.123  1.00  0.00     0.009 C 
BRANCH  25  26
HETATM   26  C3  UNL     1      26.921   7.020  48.881  1.00  0.00     0.000 C 
BRANCH  26  27
HETATM   27  C2  UNL     1      27.991   6.181  48.263  1.00  0.00    -0.005 C 
HETATM   28  C1  UNL     1      27.701   4.739  48.640  1.00  0.00     0.005 C 
ENDBRANCH  26  27
ENDBRANCH  25  26
ENDBRANCH  24  25
ENDBRANCH  21  24
ENDBRANCH   1  20
TORSDOF 5
ENDMDL
MODEL 4
REMARK VINA RESULT:      -7.6      2.934      8.161
REMARK  5 active torsions:
REMARK  status: ('A' for Active; 'I' for Inactive)
REMARK    1  A    between atoms: C2_2  and  C3_3 
REMARK    2  A    between atoms: C3_3  and  C4_4 
REMARK    3  A    between atoms: C4_4  and  C5_5 
REMARK    4  A    between atoms: C5_5  and  C6_6 
REMARK       I    between atoms: C6_6  and  N1_8 
REMARK    5  A    between atoms: N1_8  and  C7_9 
ROOT
HETATM    1  C7  UNL     1      20.593  -0.267  52.979  1.00  0.00     0.027 C 
HETATM    2  C8  UNL     1      21.078  -0.555  54.207  1.00  0.00     0.009 C 
HETATM    3  C9  UNL     1      22.522  -0.535  54.013  1.00  0.00     0.046 C 
HETATM    4  C10 UNL     1      23.685  -0.693  54.623  1.00  0.00     0.015 C 
HETATM    5  C11 UNL     1      24.869  -0.519  53.784  1.00  0.00     0.066 A 
HETATM    6  N2  UNL     1      25.932  -1.319  53.647  1.00  0.00    -0.261 NA
HETATM    7  C12 UNL     1      27.008  -1.069  52.886  1.00  0.00     0.117 A 
HETATM    8  C13 UNL     1      27.134   0.073  52.144  1.00  0.00     0.020 A 
HETATM    9  C14 UNL     1      26.061   0.963  52.232  1.00  0.00     0.017 A 
HETATM   10  C15 UNL     1      24.979   0.647  53.033  1.00  0.00     0.022 A 
HETATM   11  C16 UNL     1      24.115   1.821  52.773  1.00  0.00     0.089 A 
HETATM   12  C17 UNL     1      24.329   3.116  53.062  1.00  0.00     0.053 A 
HETATM   13  C18 UNL     1      23.255   3.905  52.628  1.00  0.00     0.139 A 
HETATM   14  N3  UNL     1      22.167   3.428  52.009  1.00  0.00    -0.075 NA
HETATM   15  C19 UNL     1      22.008   2.126  51.744  1.00  0.00     0.723 A 
HETATM   16  N4  UNL     1      23.044   1.398  52.168  1.00  0.00    -0.062 NA
HETATM   17  N5  UNL     1      21.057   1.259  51.109  1.00  0.00    -0.217 N 
HETATM   18  C20 UNL     1      21.160  -0.101  51.630  1.00  0.00     0.195 C 
HETATM   19  H21 UNL     1      20.579   1.906  50.452  1.00  0.00     0.178 HD
ENDROOT
BRANCH   1  20
HETATM   20  N1  UNL     1      19.165  -0.182  52.771  1.00  0.00    -0.329 N 
HETATM   21  C6  UNL     1      18.230  -1.168  53.131  1.00  0.00     0.222 C 
HETATM   22  O1  UNL     1      18.261  -2.290  53.668  1.00  0.00    -0.273 OA
HETATM   23  H12 UNL     1      18.825   0.687  52.319  1.00  0.00     0.168 HD
BRANCH  21  24
HETATM   24  C5  UNL     1      16.781  -0.921  52.844  1.00  0.00     0.103 C 
BRANCH  24  25
HETATM   25  C4  UNL     1      16.627   0.034  51.703  1.00  0.00     0.009 C 
BRANCH  25  26
HETATM   26  C3  UNL     1      15.502   0.998  51.931  1.00  0.00     0.000 C 
BRANCH  26  27
HETATM   27  C2  UNL     1      14.592   0.552  53.028  1.00  0.00    -0.005 C 
HETATM   28  C1  UNL     1      13.553   1.642  53.217  1.00  0.00     0.005 C 
ENDBRANCH  26  27
ENDBRANCH  25  26
ENDBRANCH  24  25
ENDBRANCH  21  24
ENDBRANCH   1  20
TORSDOF 5
ENDMDL
MODEL 5
REMARK VINA RESULT:      -7.5      2.979      8.239
REMARK  5 active torsions:
REMARK  status: ('A' for Active; 'I' for Inactive)
REMARK    1  A    between atoms: C2_2  and  C3_3 
REMARK    2  A    between atoms: C3_3  and  C4_4 
REMARK    3  A    between atoms: C4_4  and  C5_5 
REMARK    4  A    between atoms: C5_5  and  C6_6 
REMARK       I    between atoms: C6_6  and  N1_8 
REMARK    5  A    between atoms: N1_8  and  C7_9 
ROOT
HETATM    1  C7  UNL     1      20.288   0.488  52.042  1.00  0.00     0.027 C 
HETATM    2  C8  UNL     1      20.560   0.031  53.285  1.00  0.00     0.009 C 
HETATM    3  C9  UNL     1      22.011  -0.096  53.288  1.00  0.00     0.046 C 
HETATM    4  C10 UNL     1      23.051  -0.443  54.027  1.00  0.00     0.015 C 
HETATM    5  C11 UNL     1      24.356  -0.326  53.379  1.00  0.00     0.066 A 
HETATM    6  N2  UNL     1      25.343  -1.226  53.297  1.00  0.00    -0.261 NA
HETATM    7  C12 UNL     1      26.537  -1.028  52.719  1.00  0.00     0.117 A 
HETATM    8  C13 UNL     1      26.882   0.158  52.132  1.00  0.00     0.020 A 
HETATM    9  C14 UNL     1      25.902   1.152  52.174  1.00  0.00     0.017 A 
HETATM   10  C15 UNL     1      24.690   0.887  52.783  1.00  0.00     0.022 A 
HETATM   11  C16 UNL     1      23.994   2.171  52.542  1.00  0.00     0.089 A 
HETATM   12  C17 UNL     1      24.292   3.399  52.999  1.00  0.00     0.053 A 
HETATM   13  C18 UNL     1      23.375   4.344  52.516  1.00  0.00     0.139 A 
HETATM   14  N3  UNL     1      22.346   4.056  51.707  1.00  0.00    -0.075 NA
HETATM   15  C19 UNL     1      22.099   2.811  51.281  1.00  0.00     0.723 A 
HETATM   16  N4  UNL     1      22.984   1.933  51.756  1.00  0.00    -0.062 NA
HETATM   17  N5  UNL     1      21.168   2.123  50.433  1.00  0.00    -0.217 N 
HETATM   18  C20 UNL     1      21.058   0.718  50.808  1.00  0.00     0.195 C 
HETATM   19  H21 UNL     1      20.857   2.881  49.793  1.00  0.00     0.178 HD
ENDROOT
BRANCH   1  20
HETATM   20  N1  UNL     1      18.921   0.756  51.656  1.00  0.00    -0.329 N 
HETATM   21  C6  UNL     1      18.298   2.016  51.688  1.00  0.00     0.222 C 
HETATM   22  O1  UNL     1      18.621   3.176  52.002  1.00  0.00    -0.273 OA
HETATM   23  H12 UNL     1      18.375  -0.064  51.332  1.00  0.00     0.168 HD
BRANCH  21  24
HETATM   24  C5  UNL     1      16.870   2.120  51.252  1.00  0.00     0.103 C 
BRANCH  24  25
HETATM   25  C4  UNL     1      16.284   3.429  51.681  1.00  0.00     0.009 C 
BRANCH  25  26
HETATM   26  C3  UNL     1      15.052   3.241  52.515  1.00  0.00     0.000 C 
BRANCH  26  27
HETATM   27  C2  UNL     1      14.851   4.359  53.483  1.00  0.00    -0.005 C 
HETATM   28  C1  UNL     1      13.377   4.376  53.845  1.00  0.00     0.005 C 
ENDBRANCH  26  27
ENDBRANCH  25  26
ENDBRANCH  24  25
ENDBRANCH  21  24
ENDBRANCH   1  20
TORSDOF 5
ENDMDL
MODEL 6
REMARK VINA RESULT:      -7.3      3.008      6.190
REMARK  5 active torsions:
REMARK  status: ('A' for Active; 'I' for Inactive)
REMARK    1  A    between atoms: C2_2  and  C3_3 
REMARK    2  A    between atoms: C3_3  and  C4_4 
REMARK    3  A    between atoms: C4_4  and  C5_5 
REMARK    4  A    between atoms: C5_5  and  C6_6 
REMARK       I    between atoms: C6_6  and  N1_8 
REMARK    5  A    between atoms: N1_8  and  C7_9 
ROOT
HETATM    1  C7  UNL     1      24.875   3.618  51.497  1.00  0.00     0.027 C 
HETATM    2  C8  UNL     1      25.701   2.612  51.133  1.00  0.00     0.009 C 
HETATM    3  C9  UNL     1      25.351   1.537  52.053  1.00  0.00     0.046 C 
HETATM    4  C10 UNL     1      25.628   0.290  52.394  1.00  0.00     0.015 C 
HETATM    5  C11 UNL     1      24.843  -0.254  53.500  1.00  0.00     0.066 A 
HETATM    6  N2  UNL     1      25.260  -0.884  54.603  1.00  0.00    -0.261 NA
HETATM    7  C12 UNL     1      24.470  -1.397  55.558  1.00  0.00     0.117 A 
HETATM    8  C13 UNL     1      23.106  -1.327  55.500  1.00  0.00     0.020 A 
HETATM    9  C14 UNL     1      22.589  -0.679  54.376  1.00  0.00     0.017 A 
HETATM   10  C15 UNL     1      23.455  -0.170  53.426  1.00  0.00     0.022 A 
HETATM   11  C16 UNL     1      22.483   0.439  52.491  1.00  0.00     0.089 A 
HETATM   12  C17 UNL     1      21.537  -0.153  51.741  1.00  0.00     0.053 A 
HETATM   13  C18 UNL     1      20.821   0.799  51.002  1.00  0.00     0.139 A 
HETATM   14  N3  UNL     1      21.051   2.118  51.044  1.00  0.00    -0.075 NA
HETATM   15  C19 UNL     1      22.007   2.653  51.813  1.00  0.00     0.723 A 
HETATM   16  N4  UNL     1      22.673   1.726  52.504  1.00  0.00    -0.062 NA
HETATM   17  N5  UNL     1      22.528   3.949  52.147  1.00  0.00    -0.217 N 
HETATM   18  C20 UNL     1      23.916   3.855  52.589  1.00  0.00     0.195 C 
HETATM   19  H21 UNL     1      21.713   4.565  51.959  1.00  0.00     0.178 HD
ENDROOT
BRANCH   1  20
HETATM   20  N1  UNL     1      24.917   4.877  50.789  1.00  0.00    -0.329 N 
HETATM   21  C6  UNL     1      24.431   5.095  49.487  1.00  0.00     0.222 C 
HETATM   22  O1  UNL     1      23.878   4.416  48.604  1.00  0.00    -0.273 OA
HETATM   23  H12 UNL     1      25.345   5.669  51.302  1.00  0.00     0.168 HD
BRANCH  21  24
HETATM   24  C5  UNL     1      24.553   6.466  48.897  1.00  0.00     0.103 C 
BRANCH  24  25
HETATM   25  C4  UNL     1      24.365   7.510  49.953  1.00  0.00     0.009 C 
BRANCH  25  26
HETATM   26  C3  UNL     1      22.987   8.098  49.915  1.00  0.00     0.000 C 
BRANCH  26  27
HETATM   27  C2  UNL     1      22.035   7.359  50.797  1.00  0.00    -0.005 C 
HETATM   28  C1  UNL     1      20.930   6.819  49.908  1.00  0.00     0.005 C 
ENDBRANCH  26  27
ENDBRANCH  25  26
ENDBRANCH  24  25
ENDBRANCH  21  24
ENDBRANCH   1  20
TORSDOF 5
ENDMDL
MODEL 7
REMARK VINA RESULT:      -7.3      4.202      5.826
REMARK  5 active torsions:
REMARK  status: ('A' for Active; 'I' for Inactive)
REMARK    1  A    between atoms: C2_2  and  C3_3 
REMARK    2  A    between atoms: C3_3  and  C4_4 
REMARK    3  A    between atoms: C4_4  and  C5_5 
REMARK    4  A    between atoms: C5_5  and  C6_6 
REMARK       I    between atoms: C6_6  and  N1_8 
REMARK    5  A    between atoms: N1_8  and  C7_9 
ROOT
HETATM    1  C7  UNL     1      24.761   4.574  49.868  1.00  0.00     0.027 C 
HETATM    2  C8  UNL     1      23.906   5.096  50.775  1.00  0.00     0.009 C 
HETATM    3  C9  UNL     1      23.397   3.923  51.474  1.00  0.00     0.046 C 
HETATM    4  C10 UNL     1      22.583   3.522  52.436  1.00  0.00     0.015 C 
HETATM    5  C11 UNL     1      22.529   2.079  52.659  1.00  0.00     0.066 A 
HETATM    6  N2  UNL     1      21.462   1.277  52.750  1.00  0.00    -0.261 NA
HETATM    7  C12 UNL     1      21.491  -0.040  53.001  1.00  0.00     0.117 A 
HETATM    8  C13 UNL     1      22.657  -0.725  53.198  1.00  0.00     0.020 A 
HETATM    9  C14 UNL     1      23.821   0.042  53.117  1.00  0.00     0.017 A 
HETATM   10  C15 UNL     1      23.726   1.396  52.853  1.00  0.00     0.022 A 
HETATM   11  C16 UNL     1      25.162   1.753  52.816  1.00  0.00     0.089 A 
HETATM   12  C17 UNL     1      26.076   1.707  53.800  1.00  0.00     0.053 A 
HETATM   13  C18 UNL     1      27.331   2.122  53.333  1.00  0.00     0.139 A 
HETATM   14  N3  UNL     1      27.579   2.508  52.074  1.00  0.00    -0.075 NA
HETATM   15  C19 UNL     1      26.628   2.532  51.133  1.00  0.00     0.723 A 
HETATM   16  N4  UNL     1      25.445   2.134  51.605  1.00  0.00    -0.062 NA
HETATM   17  N5  UNL     1      26.495   2.838  49.737  1.00  0.00    -0.217 N 
HETATM   18  C20 UNL     1      25.125   3.221  49.414  1.00  0.00     0.195 C 
HETATM   19  H21 UNL     1      27.460   2.680  49.387  1.00  0.00     0.178 HD
ENDROOT
BRANCH   1  20
HETATM   20  N1  UNL     1      25.487   5.450  48.976  1.00  0.00    -0.329 N 
HETATM   21  C6  UNL     1      26.040   6.693  49.328  1.00  0.00     0.222 C 
HETATM   22  O1  UNL     1      26.107   7.395  50.354  1.00  0.00    -0.273 OA
HETATM   23  H12 UNL     1      25.597   5.112  48.002  1.00  0.00     0.168 HD
BRANCH  21  24
HETATM   24  C5  UNL     1      26.765   7.478  48.280  1.00  0.00     0.103 C 
BRANCH  24  25
HETATM   25  C4  UNL     1      28.141   6.928  48.070  1.00  0.00     0.009 C 
BRANCH  25  26
HETATM   26  C3  UNL     1      29.155   8.018  47.894  1.00  0.00     0.000 C 
BRANCH  26  27
HETATM   27  C2  UNL     1      29.239   8.909  49.089  1.00  0.00    -0.005 C 
HETATM   28  C1  UNL     1      30.707   9.234  49.302  1.00  0.00     0.005 C 
ENDBRANCH  26  27
ENDBRANCH  25  26
ENDBRANCH  24  25
ENDBRANCH  21  24
ENDBRANCH   1  20
TORSDOF 5
ENDMDL
MODEL 8
REMARK VINA RESULT:      -7.1      4.313      5.859
REMARK  5 active torsions:
REMARK  status: ('A' for Active; 'I' for Inactive)
REMARK    1  A    between atoms: C2_2  and  C3_3 
REMARK    2  A    between atoms: C3_3  and  C4_4 
REMARK    3  A    between atoms: C4_4  and  C5_5 
REMARK    4  A    between atoms: C5_5  and  C6_6 
REMARK       I    between atoms: C6_6  and  N1_8 
REMARK    5  A    between atoms: N1_8  and  C7_9 
ROOT
HETATM    1  C7  UNL     1      25.320   4.143  50.618  1.00  0.00     0.027 C 
HETATM    2  C8  UNL     1      25.988   2.985  50.815  1.00  0.00     0.009 C 
HETATM    3  C9  UNL     1      25.002   2.131  51.465  1.00  0.00     0.046 C 
HETATM    4  C10 UNL     1      24.800   0.928  51.974  1.00  0.00     0.015 C 
HETATM    5  C11 UNL     1      23.464   0.685  52.515  1.00  0.00     0.066 A 
HETATM    6  N2  UNL     1      23.113   0.185  53.705  1.00  0.00    -0.261 NA
HETATM    7  C12 UNL     1      21.858  -0.051  54.115  1.00  0.00     0.117 A 
HETATM    8  C13 UNL     1      20.768   0.203  53.330  1.00  0.00     0.020 A 
HETATM    9  C14 UNL     1      21.051   0.730  52.068  1.00  0.00     0.017 A 
HETATM   10  C15 UNL     1      22.366   0.953  51.703  1.00  0.00     0.022 A 
HETATM   11  C16 UNL     1      22.165   1.537  50.359  1.00  0.00     0.089 A 
HETATM   12  C17 UNL     1      21.644   0.974  49.255  1.00  0.00     0.053 A 
HETATM   13  C18 UNL     1      21.625   1.888  48.192  1.00  0.00     0.139 A 
HETATM   14  N3  UNL     1      22.065   3.151  48.273  1.00  0.00    -0.075 NA
HETATM   15  C19 UNL     1      22.574   3.660  49.402  1.00  0.00     0.723 A 
HETATM   16  N4  UNL     1      22.581   2.769  50.396  1.00  0.00    -0.062 NA
HETATM   17  N5  UNL     1      23.101   4.904  49.886  1.00  0.00    -0.217 N 
HETATM   18  C20 UNL     1      24.008   4.686  51.008  1.00  0.00     0.195 C 
HETATM   19  H21 UNL     1      22.647   5.592  49.255  1.00  0.00     0.178 HD
ENDROOT
BRANCH   1  20
HETATM   20  N1  UNL     1      25.980   5.254  49.971  1.00  0.00    -0.329 N 
HETATM   21  C6  UNL     1      27.059   5.149  49.075  1.00  0.00     0.222 C 
HETATM   22  O1  UNL     1      27.739   4.231  48.583  1.00  0.00    -0.273 OA
HETATM   23  H12 UNL     1      25.610   6.195  50.199  1.00  0.00     0.168 HD
BRANCH  21  24
HETATM   24  C5  UNL     1      27.629   6.404  48.490  1.00  0.00     0.103 C 
BRANCH  24  25
HETATM   25  C4  UNL     1      28.980   6.143  47.903  1.00  0.00     0.009 C 
BRANCH  25  26
HETATM   26  C3  UNL     1      29.728   7.416  47.641  1.00  0.00     0.000 C 
BRANCH  26  27
HETATM   27  C2  UNL     1      30.302   8.000  48.889  1.00  0.00    -0.005 C 
HETATM   28  C1  UNL     1      29.866   9.453  48.943  1.00  0.00     0.005 C 
ENDBRANCH  26  27
ENDBRANCH  25  26
ENDBRANCH  24  25
ENDBRANCH  21  24
ENDBRANCH   1  20
TORSDOF 5
ENDMDL
MODEL 9
REMARK VINA RESULT:      -7.0      2.580      7.925
REMARK  5 active torsions:
REMARK  status: ('A' for Active; 'I' for Inactive)
REMARK    1  A    between atoms: C2_2  and  C3_3 
REMARK    2  A    between atoms: C3_3  and  C4_4 
REMARK    3  A    between atoms: C4_4  and  C5_5 
REMARK    4  A    between atoms: C5_5  and  C6_6 
REMARK       I    between atoms: C6_6  and  N1_8 
REMARK    5  A    between atoms: N1_8  and  C7_9 
ROOT
HETATM    1  C7  UNL     1      20.538   0.315  51.834  1.00  0.00     0.027 C 
HETATM    2  C8  UNL     1      20.775  -0.177  53.070  1.00  0.00     0.009 C 
HETATM    3  C9  UNL     1      22.230  -0.229  53.140  1.00  0.00     0.046 C 
HETATM    4  C10 UNL     1      23.251  -0.551  53.915  1.00  0.00     0.015 C 
HETATM    5  C11 UNL     1      24.577  -0.341  53.337  1.00  0.00     0.066 A 
HETATM    6  N2  UNL     1      25.613  -1.184  53.270  1.00  0.00    -0.261 NA
HETATM    7  C12 UNL     1      26.821  -0.901  52.759  1.00  0.00     0.117 A 
HETATM    8  C13 UNL     1      27.129   0.323  52.235  1.00  0.00     0.020 A 
HETATM    9  C14 UNL     1      26.096   1.263  52.266  1.00  0.00     0.017 A 
HETATM   10  C15 UNL     1      24.872   0.911  52.804  1.00  0.00     0.022 A 
HETATM   11  C16 UNL     1      24.121   2.165  52.578  1.00  0.00     0.089 A 
HETATM   12  C17 UNL     1      24.330   3.388  53.095  1.00  0.00     0.053 A 
HETATM   13  C18 UNL     1      23.388   4.303  52.604  1.00  0.00     0.139 A 
HETATM   14  N3  UNL     1      22.416   3.995  51.735  1.00  0.00    -0.075 NA
HETATM   15  C19 UNL     1      22.255   2.757  51.251  1.00  0.00     0.723 A 
HETATM   16  N4  UNL     1      23.163   1.907  51.735  1.00  0.00    -0.062 NA
HETATM   17  N5  UNL     1      21.403   2.057  50.332  1.00  0.00    -0.217 N 
HETATM   18  C20 UNL     1      21.352   0.633  50.649  1.00  0.00     0.195 C 
HETATM   19  H21 UNL     1      21.083   2.822  49.708  1.00  0.00     0.178 HD
ENDROOT
BRANCH   1  20
HETATM   20  N1  UNL     1      19.178   0.526  51.392  1.00  0.00    -0.329 N 
HETATM   21  C6  UNL     1      18.450   1.720  51.543  1.00  0.00     0.222 C 
HETATM   22  O1  UNL     1      18.654   2.848  52.025  1.00  0.00    -0.273 OA
HETATM   23  H12 UNL     1      18.724  -0.281  50.928  1.00  0.00     0.168 HD
BRANCH  21  24
HETATM   24  C5  UNL     1      17.046   1.772  51.026  1.00  0.00     0.103 C 
BRANCH  24  25
HETATM   25  C4  UNL     1      16.561   0.399  50.681  1.00  0.00     0.009 C 
BRANCH  25  26
HETATM   26  C3  UNL     1      16.184   0.288  49.235  1.00  0.00     0.000 C 
BRANCH  26  27
HETATM   27  C2  UNL     1      15.885  -1.119  48.837  1.00  0.00    -0.005 C 
HETATM   28  C1  UNL     1      14.994  -1.708  49.916  1.00  0.00     0.005 C 
ENDBRANCH  26  27
ENDBRANCH  25  26
ENDBRANCH  24  25
ENDBRANCH  21  24
ENDBRANCH   1  20
TORSDOF 5
ENDMDL
