MODEL 1
REMARK VINA RESULT:      -6.2      0.000      0.000
REMARK  7 active torsions:
REMARK  status: ('A' for Active; 'I' for Inactive)
REMARK    1  A    between atoms: C3_3  and  O1_4 
REMARK    2  A    between atoms: O1_4  and  C4_5 
REMARK    3  A    between atoms: C4_5  and  C5_6 
REMARK    4  A    between atoms: C8_9  and  O2_10 
REMARK    5  A    between atoms: O2_10  and  C9_11 
REMARK    6  A    between atoms: C9_11  and  C10_12 
REMARK    7  A    between atoms: C13_15  and  C14_16 
ROOT
HETATM    1  C1  UNL     1      22.778  -1.375  55.215  1.00  0.00     0.114 C 
HETATM    2  C2  UNL     1      21.487  -1.178  54.584  1.00  0.00    -0.081 C 
HETATM    3  C3  UNL     1      20.412  -0.999  54.065  1.00  0.00     0.054 C 
ENDROOT
BRANCH   3   4
HETATM    4  O1  UNL     1      19.200  -0.780  53.488  1.00  0.00    -0.299 OA
BRANCH   4   5
HETATM    5  C4  UNL     1      19.021  -0.300  52.170  1.00  0.00     0.226 C 
BRANCH   5   6
HETATM    6  C5  UNL     1      20.087   0.701  51.906  1.00  0.00    -0.033 A 
HETATM    7  C6  UNL     1      21.039   0.412  50.955  1.00  0.00     0.012 A 
HETATM    8  C7  UNL     1      22.083   1.219  50.592  1.00  0.00     0.037 A 
HETATM    9  C8  UNL     1      22.187   2.435  51.242  1.00  0.00     0.069 A 
HETATM   10  C16 UNL     1      21.253   2.776  52.209  1.00  0.00     0.037 A 
HETATM   11  C17 UNL     1      20.215   1.915  52.536  1.00  0.00     0.012 A 
BRANCH   9  12
HETATM   12  O2  UNL     1      23.178   3.349  50.988  1.00  0.00    -0.347 OA
BRANCH  12  13
HETATM   13  C9  UNL     1      24.159   3.638  51.966  1.00  0.00     0.210 C 
BRANCH  13  14
HETATM   14  C10 UNL     1      25.117   2.508  52.016  1.00  0.00    -0.052 A 
HETATM   15  C11 UNL     1      26.163   2.055  51.343  1.00  0.00     0.006 A 
HETATM   16  C12 UNL     1      26.708   0.826  51.916  1.00  0.00     0.011 A 
HETATM   17  C13 UNL     1      25.936   0.570  52.961  1.00  0.00    -0.017 A 
HETATM   18  C15 UNL     1      24.858   1.577  53.153  1.00  0.00     0.078 A 
BRANCH  17  19
HETATM   19  C14 UNL     1      26.130  -0.583  53.833  1.00  0.00     0.265 C 
HETATM   20  O3  UNL     1      26.457  -0.513  55.027  1.00  0.00    -0.302 OA
ENDBRANCH  17  19
ENDBRANCH  13  14
ENDBRANCH  12  13
ENDBRANCH   9  12
ENDBRANCH   5   6
ENDBRANCH   4   5
ENDBRANCH   3   4
TORSDOF 7
ENDMDL
MODEL 2
REMARK VINA RESULT:      -5.9      3.750      7.285
REMARK  7 active torsions:
REMARK  status: ('A' for Active; 'I' for Inactive)
REMARK    1  A    between atoms: C3_3  and  O1_4 
REMARK    2  A    between atoms: O1_4  and  C4_5 
REMARK    3  A    between atoms: C4_5  and  C5_6 
REMARK    4  A    between atoms: C8_9  and  O2_10 
REMARK    5  A    between atoms: O2_10  and  C9_11 
REMARK    6  A    between atoms: C9_11  and  C10_12 
REMARK    7  A    between atoms: C13_15  and  C14_16 
ROOT
HETATM    1  C1  UNL     1      30.427   8.091  46.825  1.00  0.00     0.114 C 
HETATM    2  C2  UNL     1      29.485   7.134  47.374  1.00  0.00    -0.081 C 
HETATM    3  C3  UNL     1      28.706   6.341  47.845  1.00  0.00     0.054 C 
ENDROOT
BRANCH   3   4
HETATM    4  O1  UNL     1      27.834   5.453  48.394  1.00  0.00    -0.299 OA
BRANCH   4   5
HETATM    5  C4  UNL     1      26.506   5.766  48.763  1.00  0.00     0.226 C 
BRANCH   5   6
HETATM    6  C5  UNL     1      25.971   4.618  49.539  1.00  0.00    -0.033 A 
HETATM    7  C6  UNL     1      24.684   4.694  50.023  1.00  0.00     0.012 A 
HETATM    8  C7  UNL     1      24.042   3.731  50.753  1.00  0.00     0.037 A 
HETATM    9  C8  UNL     1      24.753   2.577  51.025  1.00  0.00     0.069 A 
HETATM   10  C16 UNL     1      26.053   2.449  50.561  1.00  0.00     0.037 A 
HETATM   11  C17 UNL     1      26.653   3.461  49.826  1.00  0.00     0.012 A 
BRANCH   9  12
HETATM   12  O2  UNL     1      24.245   1.525  51.744  1.00  0.00    -0.347 OA
BRANCH  12  13
HETATM   13  C9  UNL     1      24.643   1.310  53.085  1.00  0.00     0.210 C 
BRANCH  13  14
HETATM   14  C10 UNL     1      25.769   0.345  53.090  1.00  0.00    -0.052 A 
HETATM   15  C11 UNL     1      26.044  -0.871  52.645  1.00  0.00     0.006 A 
HETATM   16  C12 UNL     1      27.400  -1.298  52.985  1.00  0.00     0.011 A 
HETATM   17  C13 UNL     1      27.916  -0.278  53.654  1.00  0.00    -0.017 A 
HETATM   18  C15 UNL     1      26.975   0.863  53.802  1.00  0.00     0.078 A 
BRANCH  17  19
HETATM   19  C14 UNL     1      29.274  -0.281  54.189  1.00  0.00     0.265 C 
HETATM   20  O3  UNL     1      30.175  -1.044  53.809  1.00  0.00    -0.302 OA
ENDBRANCH  17  19
ENDBRANCH  13  14
ENDBRANCH  12  13
ENDBRANCH   9  12
ENDBRANCH   5   6
ENDBRANCH   4   5
ENDBRANCH   3   4
TORSDOF 7
ENDMDL
MODEL 3
REMARK VINA RESULT:      -5.8      3.660      6.129
REMARK  7 active torsions:
REMARK  status: ('A' for Active; 'I' for Inactive)
REMARK    1  A    between atoms: C3_3  and  O1_4 
REMARK    2  A    between atoms: O1_4  and  C4_5 
REMARK    3  A    between atoms: C4_5  and  C5_6 
REMARK    4  A    between atoms: C8_9  and  O2_10 
REMARK    5  A    between atoms: O2_10  and  C9_11 
REMARK    6  A    between atoms: C9_11  and  C10_12 
REMARK    7  A    between atoms: C13_15  and  C14_16 
ROOT
HETATM    1  C1  UNL     1      30.032  -0.907  53.601  1.00  0.00     0.114 C 
HETATM    2  C2  UNL     1      28.618  -0.761  53.313  1.00  0.00    -0.081 C 
HETATM    3  C3  UNL     1      27.442  -0.624  53.079  1.00  0.00     0.054 C 
ENDROOT
BRANCH   3   4
HETATM    4  O1  UNL     1      26.117  -0.452  52.823  1.00  0.00    -0.299 OA
BRANCH   4   5
HETATM    5  C4  UNL     1      25.274   0.424  53.545  1.00  0.00     0.226 C 
BRANCH   5   6
HETATM    6  C5  UNL     1      25.008   1.605  52.684  1.00  0.00    -0.033 A 
HETATM    7  C6  UNL     1      24.446   2.724  53.257  1.00  0.00     0.012 A 
HETATM    8  C7  UNL     1      24.138   3.890  52.610  1.00  0.00     0.037 A 
HETATM    9  C8  UNL     1      24.419   3.945  51.257  1.00  0.00     0.069 A 
HETATM   10  C16 UNL     1      24.985   2.846  50.630  1.00  0.00     0.037 A 
HETATM   11  C17 UNL     1      25.275   1.689  51.339  1.00  0.00     0.012 A 
BRANCH   9  12
HETATM   12  O2  UNL     1      24.167   5.044  50.475  1.00  0.00    -0.347 OA
BRANCH  12  13
HETATM   13  C9  UNL     1      24.456   5.023  49.090  1.00  0.00     0.210 C 
BRANCH  13  14
HETATM   14  C10 UNL     1      25.705   5.788  48.861  1.00  0.00    -0.052 A 
HETATM   15  C11 UNL     1      26.100   7.048  48.762  1.00  0.00     0.006 A 
HETATM   16  C12 UNL     1      27.537   7.167  48.518  1.00  0.00     0.011 A 
HETATM   17  C13 UNL     1      27.975   5.918  48.475  1.00  0.00    -0.017 A 
HETATM   18  C15 UNL     1      26.900   4.912  48.682  1.00  0.00     0.078 A 
BRANCH  17  19
HETATM   19  C14 UNL     1      29.374   5.572  48.249  1.00  0.00     0.265 C 
HETATM   20  O3  UNL     1      30.336   6.249  48.642  1.00  0.00    -0.302 OA
ENDBRANCH  17  19
ENDBRANCH  13  14
ENDBRANCH  12  13
ENDBRANCH   9  12
ENDBRANCH   5   6
ENDBRANCH   4   5
ENDBRANCH   3   4
TORSDOF 7
ENDMDL
MODEL 4
REMARK VINA RESULT:      -5.8      2.437      3.807
REMARK  7 active torsions:
REMARK  status: ('A' for Active; 'I' for Inactive)
REMARK    1  A    between atoms: C3_3  and  O1_4 
REMARK    2  A    between atoms: O1_4  and  C4_5 
REMARK    3  A    between atoms: C4_5  and  C5_6 
REMARK    4  A    between atoms: C8_9  and  O2_10 
REMARK    5  A    between atoms: O2_10  and  C9_11 
REMARK    6  A    between atoms: C9_11  and  C10_12 
REMARK    7  A    between atoms: C13_15  and  C14_16 
ROOT
HETATM    1  C1  UNL     1      15.306   4.090  52.790  1.00  0.00     0.114 C 
HETATM    2  C2  UNL     1      15.823   2.922  52.103  1.00  0.00    -0.081 C 
HETATM    3  C3  UNL     1      16.263   1.946  51.545  1.00  0.00     0.054 C 
ENDROOT
BRANCH   3   4
HETATM    4  O1  UNL     1      16.769   0.843  50.931  1.00  0.00    -0.299 OA
BRANCH   4   5
HETATM    5  C4  UNL     1      17.167  -0.333  51.609  1.00  0.00     0.226 C 
BRANCH   5   6
HETATM    6  C5  UNL     1      18.616  -0.209  51.911  1.00  0.00    -0.033 A 
HETATM    7  C6  UNL     1      19.072  -0.644  53.136  1.00  0.00     0.012 A 
HETATM    8  C7  UNL     1      20.369  -0.602  53.571  1.00  0.00     0.037 A 
HETATM    9  C8  UNL     1      21.303  -0.077  52.699  1.00  0.00     0.069 A 
HETATM   10  C16 UNL     1      20.898   0.375  51.452  1.00  0.00     0.037 A 
HETATM   11  C17 UNL     1      19.567   0.308  51.066  1.00  0.00     0.012 A 
BRANCH   9  12
HETATM   12  O2  UNL     1      22.639   0.031  52.993  1.00  0.00    -0.347 OA
BRANCH  12  13
HETATM   13  C9  UNL     1      23.285   1.290  52.958  1.00  0.00     0.210 C 
BRANCH  13  14
HETATM   14  C10 UNL     1      24.721   1.071  52.659  1.00  0.00    -0.052 A 
HETATM   15  C11 UNL     1      25.743   1.728  52.133  1.00  0.00     0.006 A 
HETATM   16  C12 UNL     1      26.969   0.931  52.112  1.00  0.00     0.011 A 
HETATM   17  C13 UNL     1      26.625  -0.230  52.648  1.00  0.00    -0.017 A 
HETATM   18  C15 UNL     1      25.196  -0.289  53.052  1.00  0.00     0.078 A 
BRANCH  17  19
HETATM   19  C14 UNL     1      27.561  -1.335  52.821  1.00  0.00     0.265 C 
HETATM   20  O3  UNL     1      27.226  -2.516  53.002  1.00  0.00    -0.302 OA
ENDBRANCH  17  19
ENDBRANCH  13  14
ENDBRANCH  12  13
ENDBRANCH   9  12
ENDBRANCH   5   6
ENDBRANCH   4   5
ENDBRANCH   3   4
TORSDOF 7
ENDMDL
MODEL 5
REMARK VINA RESULT:      -5.7      3.499      5.846
REMARK  7 active torsions:
REMARK  status: ('A' for Active; 'I' for Inactive)
REMARK    1  A    between atoms: C3_3  and  O1_4 
REMARK    2  A    between atoms: O1_4  and  C4_5 
REMARK    3  A    between atoms: C4_5  and  C5_6 
REMARK    4  A    between atoms: C8_9  and  O2_10 
REMARK    5  A    between atoms: O2_10  and  C9_11 
REMARK    6  A    between atoms: C9_11  and  C10_12 
REMARK    7  A    between atoms: C13_15  and  C14_16 
ROOT
HETATM    1  C1  UNL     1      21.647  -0.901  53.587  1.00  0.00     0.114 C 
HETATM    2  C2  UNL     1      22.984  -0.869  54.149  1.00  0.00    -0.081 C 
HETATM    3  C3  UNL     1      24.091  -0.850  54.629  1.00  0.00     0.054 C 
ENDROOT
BRANCH   3   4
HETATM    4  O1  UNL     1      25.333  -0.840  55.185  1.00  0.00    -0.299 OA
BRANCH   4   5
HETATM    5  C4  UNL     1      26.510  -0.465  54.497  1.00  0.00     0.226 C 
BRANCH   5   6
HETATM    6  C5  UNL     1      26.160   0.650  53.579  1.00  0.00    -0.033 A 
HETATM    7  C6  UNL     1      26.469   0.524  52.243  1.00  0.00     0.012 A 
HETATM    8  C7  UNL     1      26.218   1.452  51.270  1.00  0.00     0.037 A 
HETATM    9  C8  UNL     1      25.595   2.621  51.668  1.00  0.00     0.069 A 
HETATM   10  C16 UNL     1      25.260   2.798  53.001  1.00  0.00     0.037 A 
HETATM   11  C17 UNL     1      25.542   1.821  53.945  1.00  0.00     0.012 A 
BRANCH   9  12
HETATM   12  O2  UNL     1      25.278   3.642  50.808  1.00  0.00    -0.347 OA
BRANCH  12  13
HETATM   13  C9  UNL     1      25.697   3.601  49.457  1.00  0.00     0.210 C 
BRANCH  13  14
HETATM   14  C10 UNL     1      26.298   4.913  49.114  1.00  0.00    -0.052 A 
HETATM   15  C11 UNL     1      25.966   6.195  49.115  1.00  0.00     0.006 A 
HETATM   16  C12 UNL     1      27.048   7.054  48.638  1.00  0.00     0.011 A 
HETATM   17  C13 UNL     1      28.038   6.222  48.353  1.00  0.00    -0.017 A 
HETATM   18  C15 UNL     1      27.698   4.797  48.611  1.00  0.00     0.078 A 
BRANCH  17  19
HETATM   19  C14 UNL     1      29.328   6.665  47.838  1.00  0.00     0.265 C 
HETATM   20  O3  UNL     1      30.157   7.318  48.491  1.00  0.00    -0.302 OA
ENDBRANCH  17  19
ENDBRANCH  13  14
ENDBRANCH  12  13
ENDBRANCH   9  12
ENDBRANCH   5   6
ENDBRANCH   4   5
ENDBRANCH   3   4
TORSDOF 7
ENDMDL
MODEL 6
REMARK VINA RESULT:      -5.7      3.185      5.831
REMARK  7 active torsions:
REMARK  status: ('A' for Active; 'I' for Inactive)
REMARK    1  A    between atoms: C3_3  and  O1_4 
REMARK    2  A    between atoms: O1_4  and  C4_5 
REMARK    3  A    between atoms: C4_5  and  C5_6 
REMARK    4  A    between atoms: C8_9  and  O2_10 
REMARK    5  A    between atoms: O2_10  and  C9_11 
REMARK    6  A    between atoms: C9_11  and  C10_12 
REMARK    7  A    between atoms: C13_15  and  C14_16 
ROOT
HETATM    1  C1  UNL     1      29.796  -0.312  53.661  1.00  0.00     0.114 C 
HETATM    2  C2  UNL     1      28.373  -0.544  53.499  1.00  0.00    -0.081 C 
HETATM    3  C3  UNL     1      27.187  -0.731  53.379  1.00  0.00     0.054 C 
ENDROOT
BRANCH   3   4
HETATM    4  O1  UNL     1      25.847  -0.933  53.261  1.00  0.00    -0.299 OA
BRANCH   4   5
HETATM    5  C4  UNL     1      24.867  -0.213  53.982  1.00  0.00     0.226 C 
BRANCH   5   6
HETATM    6  C5  UNL     1      24.383   0.887  53.109  1.00  0.00    -0.033 A 
HETATM    7  C6  UNL     1      23.356   0.626  52.230  1.00  0.00     0.012 A 
HETATM    8  C7  UNL     1      22.796   1.522  51.360  1.00  0.00     0.037 A 
HETATM    9  C8  UNL     1      23.310   2.806  51.369  1.00  0.00     0.069 A 
HETATM   10  C16 UNL     1      24.345   3.122  52.236  1.00  0.00     0.037 A 
HETATM   11  C17 UNL     1      24.874   2.170  53.095  1.00  0.00     0.012 A 
BRANCH   9  12
HETATM   12  O2  UNL     1      22.853   3.812  50.556  1.00  0.00    -0.347 OA
BRANCH  12  13
HETATM   13  C9  UNL     1      23.045   3.749  49.155  1.00  0.00     0.210 C 
BRANCH  13  14
HETATM   14  C10 UNL     1      23.713   4.998  48.718  1.00  0.00    -0.052 A 
HETATM   15  C11 UNL     1      23.423   6.106  48.054  1.00  0.00     0.006 A 
HETATM   16  C12 UNL     1      24.567   7.010  47.945  1.00  0.00     0.011 A 
HETATM   17  C13 UNL     1      25.551   6.385  48.576  1.00  0.00    -0.017 A 
HETATM   18  C15 UNL     1      25.146   5.067  49.132  1.00  0.00     0.078 A 
BRANCH  17  19
HETATM   19  C14 UNL     1      26.892   6.942  48.708  1.00  0.00     0.265 C 
HETATM   20  O3  UNL     1      27.196   7.863  49.482  1.00  0.00    -0.302 OA
ENDBRANCH  17  19
ENDBRANCH  13  14
ENDBRANCH  12  13
ENDBRANCH   9  12
ENDBRANCH   5   6
ENDBRANCH   4   5
ENDBRANCH   3   4
TORSDOF 7
ENDMDL
MODEL 7
REMARK VINA RESULT:      -5.7      4.581      8.299
REMARK  7 active torsions:
REMARK  status: ('A' for Active; 'I' for Inactive)
REMARK    1  A    between atoms: C3_3  and  O1_4 
REMARK    2  A    between atoms: O1_4  and  C4_5 
REMARK    3  A    between atoms: C4_5  and  C5_6 
REMARK    4  A    between atoms: C8_9  and  O2_10 
REMARK    5  A    between atoms: O2_10  and  C9_11 
REMARK    6  A    between atoms: C9_11  and  C10_12 
REMARK    7  A    between atoms: C13_15  and  C14_16 
ROOT
HETATM    1  C1  UNL     1      33.220   7.023  48.075  1.00  0.00     0.114 C 
HETATM    2  C2  UNL     1      31.789   7.154  48.275  1.00  0.00    -0.081 C 
HETATM    3  C3  UNL     1      30.597   7.266  48.425  1.00  0.00     0.054 C 
ENDROOT
BRANCH   3   4
HETATM    4  O1  UNL     1      29.251   7.395  48.575  1.00  0.00    -0.299 OA
BRANCH   4   5
HETATM    5  C4  UNL     1      28.294   6.803  47.718  1.00  0.00     0.226 C 
BRANCH   5   6
HETATM    6  C5  UNL     1      27.315   6.078  48.568  1.00  0.00    -0.033 A 
HETATM    7  C6  UNL     1      27.479   4.723  48.750  1.00  0.00     0.012 A 
HETATM    8  C7  UNL     1      26.672   3.909  49.497  1.00  0.00     0.037 A 
HETATM    9  C8  UNL     1      25.595   4.506  50.126  1.00  0.00     0.069 A 
HETATM   10  C16 UNL     1      25.384   5.868  49.977  1.00  0.00     0.037 A 
HETATM   11  C17 UNL     1      26.237   6.643  49.204  1.00  0.00     0.012 A 
BRANCH   9  12
HETATM   12  O2  UNL     1      24.699   3.822  50.908  1.00  0.00    -0.347 OA
BRANCH  12  13
HETATM   13  C9  UNL     1      24.130   2.607  50.457  1.00  0.00     0.210 C 
BRANCH  13  14
HETATM   14  C10 UNL     1      24.132   1.643  51.582  1.00  0.00    -0.052 A 
HETATM   15  C11 UNL     1      25.003   1.003  52.348  1.00  0.00     0.006 A 
HETATM   16  C12 UNL     1      24.353   0.143  53.336  1.00  0.00     0.011 A 
HETATM   17  C13 UNL     1      23.056   0.302  53.120  1.00  0.00    -0.017 A 
HETATM   18  C15 UNL     1      22.758   1.247  52.011  1.00  0.00     0.078 A 
BRANCH  17  19
HETATM   19  C14 UNL     1      22.030  -0.385  53.896  1.00  0.00     0.265 C 
HETATM   20  O3  UNL     1      21.820  -1.606  53.856  1.00  0.00    -0.302 OA
ENDBRANCH  17  19
ENDBRANCH  13  14
ENDBRANCH  12  13
ENDBRANCH   9  12
ENDBRANCH   5   6
ENDBRANCH   4   5
ENDBRANCH   3   4
TORSDOF 7
ENDMDL
MODEL 8
REMARK VINA RESULT:      -5.6      4.190      7.842
REMARK  7 active torsions:
REMARK  status: ('A' for Active; 'I' for Inactive)
REMARK    1  A    between atoms: C3_3  and  O1_4 
REMARK    2  A    between atoms: O1_4  and  C4_5 
REMARK    3  A    between atoms: C4_5  and  C5_6 
REMARK    4  A    between atoms: C8_9  and  O2_10 
REMARK    5  A    between atoms: O2_10  and  C9_11 
REMARK    6  A    between atoms: C9_11  and  C10_12 
REMARK    7  A    between atoms: C13_15  and  C14_16 
ROOT
HETATM    1  C1  UNL     1      32.554   6.572  48.113  1.00  0.00     0.114 C 
HETATM    2  C2  UNL     1      31.153   6.896  48.310  1.00  0.00    -0.081 C 
HETATM    3  C3  UNL     1      29.987   7.169  48.458  1.00  0.00     0.054 C 
ENDROOT
BRANCH   3   4
HETATM    4  O1  UNL     1      28.671   7.482  48.606  1.00  0.00    -0.299 OA
BRANCH   4   5
HETATM    5  C4  UNL     1      27.626   6.904  47.849  1.00  0.00     0.226 C 
BRANCH   5   6
HETATM    6  C5  UNL     1      26.884   5.975  48.739  1.00  0.00    -0.033 A 
HETATM    7  C6  UNL     1      25.830   6.469  49.474  1.00  0.00     0.012 A 
HETATM    8  C7  UNL     1      25.047   5.752  50.338  1.00  0.00     0.037 A 
HETATM    9  C8  UNL     1      25.344   4.409  50.480  1.00  0.00     0.069 A 
HETATM   10  C16 UNL     1      26.395   3.860  49.763  1.00  0.00     0.037 A 
HETATM   11  C17 UNL     1      27.156   4.638  48.902  1.00  0.00     0.012 A 
BRANCH   9  12
HETATM   12  O2  UNL     1      24.649   3.563  51.308  1.00  0.00    -0.347 OA
BRANCH  12  13
HETATM   13  C9  UNL     1      24.488   2.198  50.971  1.00  0.00     0.210 C 
BRANCH  13  14
HETATM   14  C10 UNL     1      25.453   1.403  51.767  1.00  0.00    -0.052 A 
HETATM   15  C11 UNL     1      26.618   0.794  51.608  1.00  0.00     0.006 A 
HETATM   16  C12 UNL     1      27.083   0.146  52.833  1.00  0.00     0.011 A 
HETATM   17  C13 UNL     1      26.139   0.397  53.727  1.00  0.00    -0.017 A 
HETATM   18  C15 UNL     1      25.015   1.204  53.181  1.00  0.00     0.078 A 
BRANCH  17  19
HETATM   19  C14 UNL     1      26.201  -0.073  55.106  1.00  0.00     0.265 C 
HETATM   20  O3  UNL     1      25.419  -0.900  55.601  1.00  0.00    -0.302 OA
ENDBRANCH  17  19
ENDBRANCH  13  14
ENDBRANCH  12  13
ENDBRANCH   9  12
ENDBRANCH   5   6
ENDBRANCH   4   5
ENDBRANCH   3   4
TORSDOF 7
ENDMDL
MODEL 9
REMARK VINA RESULT:      -5.5      1.979      5.230
REMARK  7 active torsions:
REMARK  status: ('A' for Active; 'I' for Inactive)
REMARK    1  A    between atoms: C3_3  and  O1_4 
REMARK    2  A    between atoms: O1_4  and  C4_5 
REMARK    3  A    between atoms: C4_5  and  C5_6 
REMARK    4  A    between atoms: C8_9  and  O2_10 
REMARK    5  A    between atoms: O2_10  and  C9_11 
REMARK    6  A    between atoms: C9_11  and  C10_12 
REMARK    7  A    between atoms: C13_15  and  C14_16 
ROOT
HETATM    1  C1  UNL     1      26.627   3.533  49.680  1.00  0.00     0.114 C 
HETATM    2  C2  UNL     1      25.448   4.379  49.656  1.00  0.00    -0.081 C 
HETATM    3  C3  UNL     1      24.469   5.085  49.652  1.00  0.00     0.054 C 
ENDROOT
BRANCH   3   4
HETATM    4  O1  UNL     1      23.370   5.886  49.665  1.00  0.00    -0.299 OA
BRANCH   4   5
HETATM    5  C4  UNL     1      22.092   5.490  49.208  1.00  0.00     0.226 C 
BRANCH   5   6
HETATM    6  C5  UNL     1      21.574   4.464  50.150  1.00  0.00    -0.033 A 
HETATM    7  C6  UNL     1      21.391   3.180  49.687  1.00  0.00     0.012 A 
HETATM    8  C7  UNL     1      20.925   2.121  50.418  1.00  0.00     0.037 A 
HETATM    9  C8  UNL     1      20.612   2.368  51.742  1.00  0.00     0.069 A 
HETATM   10  C16 UNL     1      20.778   3.643  52.259  1.00  0.00     0.037 A 
HETATM   11  C17 UNL     1      21.255   4.679  51.468  1.00  0.00     0.012 A 
BRANCH   9  12
HETATM   12  O2  UNL     1      20.134   1.409  52.599  1.00  0.00    -0.347 OA
BRANCH  12  13
HETATM   13  C9  UNL     1      20.394   0.038  52.363  1.00  0.00     0.210 C 
BRANCH  13  14
HETATM   14  C10 UNL     1      21.354  -0.440  53.386  1.00  0.00    -0.052 A 
HETATM   15  C11 UNL     1      21.342  -1.080  54.546  1.00  0.00     0.006 A 
HETATM   16  C12 UNL     1      22.683  -1.263  55.098  1.00  0.00     0.011 A 
HETATM   17  C13 UNL     1      23.492  -0.701  54.213  1.00  0.00    -0.017 A 
HETATM   18  C15 UNL     1      22.773  -0.123  53.046  1.00  0.00     0.078 A 
BRANCH  17  19
HETATM   19  C14 UNL     1      24.941  -0.657  54.372  1.00  0.00     0.265 C 
HETATM   20  O3  UNL     1      25.543  -0.987  55.405  1.00  0.00    -0.302 OA
ENDBRANCH  17  19
ENDBRANCH  13  14
ENDBRANCH  12  13
ENDBRANCH   9  12
ENDBRANCH   5   6
ENDBRANCH   4   5
ENDBRANCH   3   4
TORSDOF 7
ENDMDL
