MODEL 1
REMARK VINA RESULT:      -8.7      0.000      0.000
REMARK  3 active torsions:
REMARK  status: ('A' for Active; 'I' for Inactive)
REMARK    1  A    between atoms: C6_8  and  N3_9 
REMARK    2  A    between atoms: C17_20  and  C18_21 
REMARK    3  A    between atoms: C18_21  and  O1_22 
ROOT
HETATM    1  C1  UNL     1      20.011   0.415  51.386  1.00  0.00     0.049 C 
HETATM    2  C2  UNL     1      21.298   0.279  52.085  1.00  0.00    -0.051 A 
HETATM    3  C3  UNL     1      21.373  -0.503  53.237  1.00  0.00     0.040 A 
HETATM    4  C4  UNL     1      22.569  -0.664  53.934  1.00  0.00     0.072 A 
HETATM    5  N1  UNL     1      22.635  -1.420  55.042  1.00  0.00    -0.241 NA
HETATM    6  C5  UNL     1      23.809  -1.546  55.681  1.00  0.00     0.236 A 
HETATM    7  N2  UNL     1      24.928  -0.939  55.249  1.00  0.00    -0.223 NA
HETATM    8  C6  UNL     1      24.949  -0.153  54.131  1.00  0.00     0.144 A 
HETATM    9  C15 UNL     1      23.725  -0.050  53.507  1.00  0.00     0.040 A 
HETATM   10  C16 UNL     1      23.621   0.713  52.372  1.00  0.00     0.027 A 
HETATM   11  C17 UNL     1      22.464   0.902  51.648  1.00  0.00    -0.028 A 
ENDROOT
BRANCH   8  12
HETATM   12  N3  UNL     1      26.145   0.484  53.699  1.00  0.00    -0.330 N 
HETATM   13  C7  UNL     1      26.645   1.822  53.340  1.00  0.00     0.135 C 
HETATM   14  C8  UNL     1      28.048   1.847  53.914  1.00  0.00     0.061 C 
HETATM   15  C9  UNL     1      28.477   0.448  53.638  1.00  0.00    -0.030 A 
HETATM   16  C10 UNL     1      29.740  -0.037  53.516  1.00  0.00     0.009 A 
HETATM   17  C14 UNL     1      27.310  -0.315  53.521  1.00  0.00     0.042 A 
HETATM   18  C11 UNL     1      29.922  -1.380  53.257  1.00  0.00     0.001 A 
HETATM   19  C12 UNL     1      28.818  -2.198  53.129  1.00  0.00     0.002 A 
HETATM   20  C13 UNL     1      27.561  -1.654  53.261  1.00  0.00     0.030 A 
ENDBRANCH   8  12
BRANCH  11  21
HETATM   21  C18 UNL     1      22.373   1.722  50.435  1.00  0.00     0.203 C 
BRANCH  21  22
HETATM   22  O1  UNL     1      23.539   2.494  50.272  1.00  0.00    -0.396 OA
HETATM   23  H17 UNL     1      23.886   2.757  51.150  1.00  0.00     0.209 HD
ENDBRANCH  21  22
ENDBRANCH  11  21
TORSDOF 3
ENDMDL
MODEL 2
REMARK VINA RESULT:      -8.5      2.627      3.688
REMARK  3 active torsions:
REMARK  status: ('A' for Active; 'I' for Inactive)
REMARK    1  A    between atoms: C6_8  and  N3_9 
REMARK    2  A    between atoms: C17_20  and  C18_21 
REMARK    3  A    between atoms: C18_21  and  O1_22 
ROOT
HETATM    1  C1  UNL     1      23.923   5.203  48.555  1.00  0.00     0.049 C 
HETATM    2  C2  UNL     1      24.410   4.286  49.597  1.00  0.00    -0.051 A 
HETATM    3  C3  UNL     1      23.494   3.658  50.441  1.00  0.00     0.040 A 
HETATM    4  C4  UNL     1      23.907   2.781  51.443  1.00  0.00     0.072 A 
HETATM    5  N1  UNL     1      23.020   2.178  52.250  1.00  0.00    -0.241 NA
HETATM    6  C5  UNL     1      23.463   1.340  53.201  1.00  0.00     0.236 A 
HETATM    7  N2  UNL     1      24.771   1.082  53.376  1.00  0.00    -0.223 NA
HETATM    8  C6  UNL     1      25.739   1.652  52.597  1.00  0.00     0.144 A 
HETATM    9  C15 UNL     1      25.242   2.504  51.635  1.00  0.00     0.040 A 
HETATM   10  C16 UNL     1      26.118   3.137  50.791  1.00  0.00     0.027 A 
HETATM   11  C17 UNL     1      25.762   4.010  49.787  1.00  0.00    -0.028 A 
ENDROOT
BRANCH   8  12
HETATM   12  N3  UNL     1      27.117   1.368  52.806  1.00  0.00    -0.330 N 
HETATM   13  C7  UNL     1      28.393   2.069  53.028  1.00  0.00     0.135 C 
HETATM   14  C8  UNL     1      29.109   1.197  54.041  1.00  0.00     0.061 C 
HETATM   15  C9  UNL     1      28.714  -0.156  53.560  1.00  0.00    -0.030 A 
HETATM   16  C10 UNL     1      29.350  -1.339  53.762  1.00  0.00     0.009 A 
HETATM   17  C14 UNL     1      27.529   0.005  52.836  1.00  0.00     0.042 A 
HETATM   18  C11 UNL     1      28.812  -2.490  53.224  1.00  0.00     0.001 A 
HETATM   19  C12 UNL     1      27.642  -2.413  52.496  1.00  0.00     0.002 A 
HETATM   20  C13 UNL     1      27.041  -1.187  52.323  1.00  0.00     0.030 A 
ENDBRANCH   8  12
BRANCH  11  21
HETATM   21  C18 UNL     1      26.715   4.677  48.894  1.00  0.00     0.203 C 
BRANCH  21  22
HETATM   22  O1  UNL     1      27.989   4.739  49.489  1.00  0.00    -0.396 OA
HETATM   23  H17 UNL     1      28.065   4.047  50.179  1.00  0.00     0.209 HD
ENDBRANCH  21  22
ENDBRANCH  11  21
TORSDOF 3
ENDMDL
MODEL 3
REMARK VINA RESULT:      -8.3      2.145      5.872
REMARK  3 active torsions:
REMARK  status: ('A' for Active; 'I' for Inactive)
REMARK    1  A    between atoms: C6_8  and  N3_9 
REMARK    2  A    between atoms: C17_20  and  C18_21 
REMARK    3  A    between atoms: C18_21  and  O1_22 
ROOT
HETATM    1  C1  UNL     1      27.918  -0.217  54.307  1.00  0.00     0.049 C 
HETATM    2  C2  UNL     1      26.585   0.211  53.853  1.00  0.00    -0.051 A 
HETATM    3  C3  UNL     1      25.468  -0.548  54.199  1.00  0.00     0.040 A 
HETATM    4  C4  UNL     1      24.185  -0.184  53.794  1.00  0.00     0.072 A 
HETATM    5  N1  UNL     1      23.112  -0.918  54.131  1.00  0.00    -0.241 NA
HETATM    6  C5  UNL     1      21.895  -0.528  53.719  1.00  0.00     0.236 A 
HETATM    7  N2  UNL     1      21.710   0.577  52.976  1.00  0.00    -0.223 NA
HETATM    8  C6  UNL     1      22.746   1.380  52.590  1.00  0.00     0.144 A 
HETATM    9  C15 UNL     1      23.976   0.945  53.033  1.00  0.00     0.040 A 
HETATM   10  C16 UNL     1      25.094   1.670  52.709  1.00  0.00     0.027 A 
HETATM   11  C17 UNL     1      26.381   1.354  53.084  1.00  0.00    -0.028 A 
ENDROOT
BRANCH   8  12
HETATM   12  N3  UNL     1      22.525   2.541  51.798  1.00  0.00    -0.330 N 
HETATM   13  C7  UNL     1      22.403   4.002  51.945  1.00  0.00     0.135 C 
HETATM   14  C8  UNL     1      23.109   4.545  50.718  1.00  0.00     0.061 C 
HETATM   15  C9  UNL     1      22.686   3.545  49.699  1.00  0.00    -0.030 A 
HETATM   16  C10 UNL     1      22.622   3.694  48.350  1.00  0.00     0.009 A 
HETATM   17  C14 UNL     1      22.352   2.378  50.394  1.00  0.00     0.042 A 
HETATM   18  C11 UNL     1      22.199   2.632  47.577  1.00  0.00     0.001 A 
HETATM   19  C12 UNL     1      21.852   1.446  48.191  1.00  0.00     0.002 A 
HETATM   20  C13 UNL     1      21.935   1.351  49.561  1.00  0.00     0.030 A 
ENDBRANCH   8  12
BRANCH  11  21
HETATM   21  C18 UNL     1      27.564   2.144  52.728  1.00  0.00     0.203 C 
BRANCH  21  22
HETATM   22  O1  UNL     1      27.302   2.943  51.599  1.00  0.00    -0.396 OA
HETATM   23  H17 UNL     1      27.699   3.830  51.724  1.00  0.00     0.209 HD
ENDBRANCH  21  22
ENDBRANCH  11  21
TORSDOF 3
ENDMDL
MODEL 4
REMARK VINA RESULT:      -7.8      2.714      5.902
REMARK  3 active torsions:
REMARK  status: ('A' for Active; 'I' for Inactive)
REMARK    1  A    between atoms: C6_8  and  N3_9 
REMARK    2  A    between atoms: C17_20  and  C18_21 
REMARK    3  A    between atoms: C18_21  and  O1_22 
ROOT
HETATM    1  C1  UNL     1      22.193  -1.491  54.884  1.00  0.00     0.049 C 
HETATM    2  C2  UNL     1      22.807  -0.486  54.002  1.00  0.00    -0.051 A 
HETATM    3  C3  UNL     1      24.164  -0.580  53.696  1.00  0.00     0.040 A 
HETATM    4  C4  UNL     1      24.791   0.347  52.865  1.00  0.00     0.072 A 
HETATM    5  N1  UNL     1      26.098   0.250  52.573  1.00  0.00    -0.241 NA
HETATM    6  C5  UNL     1      26.659   1.166  51.767  1.00  0.00     0.236 A 
HETATM    7  N2  UNL     1      25.956   2.183  51.240  1.00  0.00    -0.223 NA
HETATM    8  C6  UNL     1      24.622   2.355  51.485  1.00  0.00     0.144 A 
HETATM    9  C15 UNL     1      24.087   1.395  52.315  1.00  0.00     0.040 A 
HETATM   10  C16 UNL     1      22.754   1.461  52.635  1.00  0.00     0.027 A 
HETATM   11  C17 UNL     1      22.089   0.571  53.449  1.00  0.00    -0.028 A 
ENDROOT
BRANCH   8  12
HETATM   12  N3  UNL     1      23.902   3.444  50.920  1.00  0.00    -0.330 N 
HETATM   13  C7  UNL     1      23.549   4.842  51.222  1.00  0.00     0.135 C 
HETATM   14  C8  UNL     1      23.643   5.533  49.876  1.00  0.00     0.061 C 
HETATM   15  C9  UNL     1      23.093   4.471  48.988  1.00  0.00    -0.030 A 
HETATM   16  C10 UNL     1      22.521   4.610  47.764  1.00  0.00     0.009 A 
HETATM   17  C14 UNL     1      23.274   3.255  49.656  1.00  0.00     0.042 A 
HETATM   18  C11 UNL     1      22.073   3.486  47.101  1.00  0.00     0.001 A 
HETATM   19  C12 UNL     1      22.217   2.249  47.696  1.00  0.00     0.002 A 
HETATM   20  C13 UNL     1      22.803   2.167  48.938  1.00  0.00     0.030 A 
ENDBRANCH   8  12
BRANCH  11  21
HETATM   21  C18 UNL     1      20.662   0.659  53.778  1.00  0.00     0.203 C 
BRANCH  21  22
HETATM   22  O1  UNL     1      19.880   0.162  52.719  1.00  0.00    -0.396 OA
HETATM   23  H17 UNL     1      19.118   0.759  52.563  1.00  0.00     0.209 HD
ENDBRANCH  21  22
ENDBRANCH  11  21
TORSDOF 3
ENDMDL
MODEL 5
REMARK VINA RESULT:      -7.7      2.317      4.722
REMARK  3 active torsions:
REMARK  status: ('A' for Active; 'I' for Inactive)
REMARK    1  A    between atoms: C6_8  and  N3_9 
REMARK    2  A    between atoms: C17_20  and  C18_21 
REMARK    3  A    between atoms: C18_21  and  O1_22 
ROOT
HETATM    1  C1  UNL     1      21.124  -1.753  54.263  1.00  0.00     0.049 C 
HETATM    2  C2  UNL     1      22.301  -0.948  53.903  1.00  0.00    -0.051 A 
HETATM    3  C3  UNL     1      23.490  -1.118  54.612  1.00  0.00     0.040 A 
HETATM    4  C4  UNL     1      24.633  -0.379  54.308  1.00  0.00     0.072 A 
HETATM    5  N1  UNL     1      25.775  -0.549  54.992  1.00  0.00    -0.241 NA
HETATM    6  C5  UNL     1      26.851   0.185  54.665  1.00  0.00     0.236 A 
HETATM    7  N2  UNL     1      26.826   1.089  53.671  1.00  0.00    -0.223 NA
HETATM    8  C6  UNL     1      25.705   1.324  52.925  1.00  0.00     0.144 A 
HETATM    9  C15 UNL     1      24.625   0.551  53.293  1.00  0.00     0.040 A 
HETATM   10  C16 UNL     1      23.441   0.697  52.616  1.00  0.00     0.027 A 
HETATM   11  C17 UNL     1      22.287  -0.008  52.876  1.00  0.00    -0.028 A 
ENDROOT
BRANCH   8  12
HETATM   12  N3  UNL     1      25.701   2.292  51.882  1.00  0.00    -0.330 N 
HETATM   13  C7  UNL     1      26.433   2.624  50.648  1.00  0.00     0.135 C 
HETATM   14  C8  UNL     1      25.346   3.097  49.703  1.00  0.00     0.061 C 
HETATM   15  C9  UNL     1      24.472   3.845  50.649  1.00  0.00    -0.030 A 
HETATM   16  C10 UNL     1      23.590   4.840  50.373  1.00  0.00     0.009 A 
HETATM   17  C14 UNL     1      24.724   3.327  51.924  1.00  0.00     0.042 A 
HETATM   18  C11 UNL     1      22.871   5.406  51.405  1.00  0.00     0.001 A 
HETATM   19  C12 UNL     1      23.064   4.947  52.693  1.00  0.00     0.002 A 
HETATM   20  C13 UNL     1      23.971   3.936  52.916  1.00  0.00     0.030 A 
ENDBRANCH   8  12
BRANCH  11  21
HETATM   21  C18 UNL     1      21.031   0.162  52.139  1.00  0.00     0.203 C 
BRANCH  21  22
HETATM   22  O1  UNL     1      21.273   0.203  50.753  1.00  0.00    -0.396 OA
HETATM   23  H17 UNL     1      20.442   0.416  50.279  1.00  0.00     0.209 HD
ENDBRANCH  21  22
ENDBRANCH  11  21
TORSDOF 3
ENDMDL
MODEL 6
REMARK VINA RESULT:      -7.6      2.898      5.581
REMARK  3 active torsions:
REMARK  status: ('A' for Active; 'I' for Inactive)
REMARK    1  A    between atoms: C6_8  and  N3_9 
REMARK    2  A    between atoms: C17_20  and  C18_21 
REMARK    3  A    between atoms: C18_21  and  O1_22 
ROOT
HETATM    1  C1  UNL     1      21.964   4.561  47.201  1.00  0.00     0.049 C 
HETATM    2  C2  UNL     1      22.418   4.089  48.519  1.00  0.00    -0.051 A 
HETATM    3  C3  UNL     1      22.673   5.018  49.528  1.00  0.00     0.040 A 
HETATM    4  C4  UNL     1      23.104   4.621  50.793  1.00  0.00     0.072 A 
HETATM    5  N1  UNL     1      23.346   5.519  51.761  1.00  0.00    -0.241 NA
HETATM    6  C5  UNL     1      23.759   5.090  52.965  1.00  0.00     0.236 A 
HETATM    7  N2  UNL     1      23.941   3.786  53.238  1.00  0.00    -0.223 NA
HETATM    8  C6  UNL     1      23.717   2.807  52.310  1.00  0.00     0.144 A 
HETATM    9  C15 UNL     1      23.295   3.290  51.090  1.00  0.00     0.040 A 
HETATM   10  C16 UNL     1      23.037   2.401  50.078  1.00  0.00     0.027 A 
HETATM   11  C17 UNL     1      22.609   2.742  48.814  1.00  0.00    -0.028 A 
ENDROOT
BRANCH   8  12
HETATM   12  N3  UNL     1      23.924   1.435  52.621  1.00  0.00    -0.330 N 
HETATM   13  C7  UNL     1      24.980   0.410  52.558  1.00  0.00     0.135 C 
HETATM   14  C8  UNL     1      24.785  -0.383  53.835  1.00  0.00     0.061 C 
HETATM   15  C9  UNL     1      23.298  -0.399  53.920  1.00  0.00    -0.030 A 
HETATM   16  C10 UNL     1      22.501  -1.286  54.571  1.00  0.00     0.009 A 
HETATM   17  C14 UNL     1      22.842   0.699  53.183  1.00  0.00     0.042 A 
HETATM   18  C11 UNL     1      21.133  -1.119  54.524  1.00  0.00     0.001 A 
HETATM   19  C12 UNL     1      20.606  -0.057  53.817  1.00  0.00     0.002 A 
HETATM   20  C13 UNL     1      21.460   0.810  53.175  1.00  0.00     0.030 A 
ENDBRANCH   8  12
BRANCH  11  21
HETATM   21  C18 UNL     1      22.338   1.776  47.744  1.00  0.00     0.203 C 
BRANCH  21  22
HETATM   22  O1  UNL     1      21.461   0.773  48.196  1.00  0.00    -0.396 OA
HETATM   23  H17 UNL     1      21.393   0.065  47.521  1.00  0.00     0.209 HD
ENDBRANCH  21  22
ENDBRANCH  11  21
TORSDOF 3
ENDMDL
MODEL 7
REMARK VINA RESULT:      -7.5      2.197      6.815
REMARK  3 active torsions:
REMARK  status: ('A' for Active; 'I' for Inactive)
REMARK    1  A    between atoms: C6_8  and  N3_9 
REMARK    2  A    between atoms: C17_20  and  C18_21 
REMARK    3  A    between atoms: C18_21  and  O1_22 
ROOT
HETATM    1  C1  UNL     1      26.844   0.640  52.188  1.00  0.00     0.049 C 
HETATM    2  C2  UNL     1      25.397   0.697  52.449  1.00  0.00    -0.051 A 
HETATM    3  C3  UNL     1      24.829  -0.198  53.356  1.00  0.00     0.040 A 
HETATM    4  C4  UNL     1      23.463  -0.184  53.637  1.00  0.00     0.072 A 
HETATM    5  N1  UNL     1      22.923  -1.046  54.513  1.00  0.00    -0.241 NA
HETATM    6  C5  UNL     1      21.603  -0.996  54.752  1.00  0.00     0.236 A 
HETATM    7  N2  UNL     1      20.797  -0.108  54.144  1.00  0.00    -0.223 NA
HETATM    8  C6  UNL     1      21.266   0.804  53.240  1.00  0.00     0.144 A 
HETATM    9  C15 UNL     1      22.624   0.718  53.023  1.00  0.00     0.040 A 
HETATM   10  C16 UNL     1      23.211   1.584  52.136  1.00  0.00     0.027 A 
HETATM   11  C17 UNL     1      24.552   1.611  51.825  1.00  0.00    -0.028 A 
ENDROOT
BRANCH   8  12
HETATM   12  N3  UNL     1      20.391   1.729  52.604  1.00  0.00    -0.330 N 
HETATM   13  C7  UNL     1      20.181   3.181  52.480  1.00  0.00     0.135 C 
HETATM   14  C8  UNL     1      19.772   3.362  51.032  1.00  0.00     0.061 C 
HETATM   15  C9  UNL     1      18.929   2.150  50.836  1.00  0.00    -0.030 A 
HETATM   16  C10 UNL     1      17.945   1.948  49.922  1.00  0.00     0.009 A 
HETATM   17  C14 UNL     1      19.339   1.216  51.793  1.00  0.00     0.042 A 
HETATM   18  C11 UNL     1      17.279   0.740  49.908  1.00  0.00     0.001 A 
HETATM   19  C12 UNL     1      17.628  -0.234  50.823  1.00  0.00     0.002 A 
HETATM   20  C13 UNL     1      18.632   0.025  51.727  1.00  0.00     0.030 A 
ENDBRANCH   8  12
BRANCH  11  21
HETATM   21  C18 UNL     1      25.162   2.546  50.873  1.00  0.00     0.203 C 
BRANCH  21  22
HETATM   22  O1  UNL     1      25.215   3.842  51.420  1.00  0.00    -0.396 OA
HETATM   23  H17 UNL     1      25.574   4.466  50.755  1.00  0.00     0.209 HD
ENDBRANCH  21  22
ENDBRANCH  11  21
TORSDOF 3
ENDMDL
MODEL 8
REMARK VINA RESULT:      -7.5      1.983      2.986
REMARK  3 active torsions:
REMARK  status: ('A' for Active; 'I' for Inactive)
REMARK    1  A    between atoms: C6_8  and  N3_9 
REMARK    2  A    between atoms: C17_20  and  C18_21 
REMARK    3  A    between atoms: C18_21  and  O1_22 
ROOT
HETATM    1  C1  UNL     1      17.516   0.391  50.101  1.00  0.00     0.049 C 
HETATM    2  C2  UNL     1      18.744   0.435  50.910  1.00  0.00    -0.051 A 
HETATM    3  C3  UNL     1      18.856  -0.389  52.030  1.00  0.00     0.040 A 
HETATM    4  C4  UNL     1      20.000  -0.384  52.828  1.00  0.00     0.072 A 
HETATM    5  N1  UNL     1      20.103  -1.181  53.903  1.00  0.00    -0.241 NA
HETATM    6  C5  UNL     1      21.223  -1.143  54.642  1.00  0.00     0.236 A 
HETATM    7  N2  UNL     1      22.252  -0.332  54.342  1.00  0.00    -0.223 NA
HETATM    8  C6  UNL     1      22.230   0.510  53.265  1.00  0.00     0.144 A 
HETATM    9  C15 UNL     1      21.063   0.440  52.535  1.00  0.00     0.040 A 
HETATM   10  C16 UNL     1      20.923   1.238  51.429  1.00  0.00     0.027 A 
HETATM   11  C17 UNL     1      19.816   1.271  50.609  1.00  0.00    -0.028 A 
ENDROOT
BRANCH   8  12
HETATM   12  N3  UNL     1      23.329   1.364  52.973  1.00  0.00    -0.330 N 
HETATM   13  C7  UNL     1      23.610   2.777  52.667  1.00  0.00     0.135 C 
HETATM   14  C8  UNL     1      24.907   3.052  53.401  1.00  0.00     0.061 C 
HETATM   15  C9  UNL     1      25.618   1.761  53.187  1.00  0.00    -0.030 A 
HETATM   16  C10 UNL     1      26.954   1.521  53.217  1.00  0.00     0.009 A 
HETATM   17  C14 UNL     1      24.635   0.798  52.938  1.00  0.00     0.042 A 
HETATM   18  C11 UNL     1      27.411   0.240  52.990  1.00  0.00     0.001 A 
HETATM   19  C12 UNL     1      26.501  -0.767  52.737  1.00  0.00     0.002 A 
HETATM   20  C13 UNL     1      25.158  -0.467  52.718  1.00  0.00     0.030 A 
ENDBRANCH   8  12
BRANCH  11  21
HETATM   21  C18 UNL     1      19.686   2.132  49.430  1.00  0.00     0.203 C 
BRANCH  21  22
HETATM   22  O1  UNL     1      20.426   1.609  48.352  1.00  0.00    -0.396 OA
HETATM   23  H17 UNL     1      21.297   2.055  48.303  1.00  0.00     0.209 HD
ENDBRANCH  21  22
ENDBRANCH  11  21
TORSDOF 3
ENDMDL
MODEL 9
REMARK VINA RESULT:      -7.5      4.128      6.249
REMARK  3 active torsions:
REMARK  status: ('A' for Active; 'I' for Inactive)
REMARK    1  A    between atoms: C6_8  and  N3_9 
REMARK    2  A    between atoms: C17_20  and  C18_21 
REMARK    3  A    between atoms: C18_21  and  O1_22 
ROOT
HETATM    1  C1  UNL     1      21.891  -1.021  53.379  1.00  0.00     0.049 C 
HETATM    2  C2  UNL     1      22.336  -0.005  52.413  1.00  0.00    -0.051 A 
HETATM    3  C3  UNL     1      21.535   0.288  51.309  1.00  0.00     0.040 A 
HETATM    4  C4  UNL     1      21.912   1.243  50.366  1.00  0.00     0.072 A 
HETATM    5  N1  UNL     1      21.135   1.522  49.307  1.00  0.00    -0.241 NA
HETATM    6  C5  UNL     1      21.539   2.450  48.425  1.00  0.00     0.236 A 
HETATM    7  N2  UNL     1      22.699   3.114  48.563  1.00  0.00    -0.223 NA
HETATM    8  C6  UNL     1      23.548   2.892  49.612  1.00  0.00     0.144 A 
HETATM    9  C15 UNL     1      23.097   1.933  50.493  1.00  0.00     0.040 A 
HETATM   10  C16 UNL     1      23.863   1.623  51.587  1.00  0.00     0.027 A 
HETATM   11  C17 UNL     1      23.535   0.690  52.546  1.00  0.00    -0.028 A 
ENDROOT
BRANCH   8  12
HETATM   12  N3  UNL     1      24.774   3.602  49.732  1.00  0.00    -0.330 N 
HETATM   13  C7  UNL     1      26.226   3.376  49.624  1.00  0.00     0.135 C 
HETATM   14  C8  UNL     1      26.737   4.641  48.962  1.00  0.00     0.061 C 
HETATM   15  C9  UNL     1      25.871   5.658  49.620  1.00  0.00    -0.030 A 
HETATM   16  C10 UNL     1      26.109   6.985  49.785  1.00  0.00     0.009 A 
HETATM   17  C14 UNL     1      24.723   4.988  50.056  1.00  0.00     0.042 A 
HETATM   18  C11 UNL     1      25.167   7.761  50.429  1.00  0.00     0.001 A 
HETATM   19  C12 UNL     1      24.006   7.171  50.888  1.00  0.00     0.002 A 
HETATM   20  C13 UNL     1      23.818   5.822  50.694  1.00  0.00     0.030 A 
ENDBRANCH   8  12
BRANCH  11  21
HETATM   21  C18 UNL     1      24.369   0.373  53.710  1.00  0.00     0.203 C 
BRANCH  21  22
HETATM   22  O1  UNL     1      25.585  -0.208  53.303  1.00  0.00    -0.396 OA
HETATM   23  H17 UNL     1      26.261   0.491  53.183  1.00  0.00     0.209 HD
ENDBRANCH  21  22
ENDBRANCH  11  21
TORSDOF 3
ENDMDL
