MODEL 1
REMARK VINA RESULT:      -7.8      0.000      0.000
REMARK  9 active torsions:
REMARK  status: ('A' for Active; 'I' for Inactive)
REMARK    1  A    between atoms: N1_2  and  C2_3 
REMARK    2  A    between atoms: C2_3  and  C3_4 
REMARK    3  A    between atoms: C3_4  and  C4_5 
REMARK    4  A    between atoms: C4_5  and  C5_7 
REMARK    5  A    between atoms: C8_10  and  O2_11 
REMARK    6  A    between atoms: O2_11  and  S1_12 
REMARK    7  A    between atoms: S1_12  and  C9_15 
REMARK    8  A    between atoms: C12_18  and  C13_19 
REMARK    9  A    between atoms: C13_19  and  O6_21 
ROOT
HETATM    1  O2  UNL     1      24.215   2.101  50.923  1.00  0.00    -0.229 OA
ENDROOT
BRANCH   1   2
HETATM    2  C8  UNL     1      24.896   3.153  50.331  1.00  0.00     0.089 A 
HETATM    3  C7  UNL     1      26.197   2.907  49.948  1.00  0.00     0.039 A 
HETATM    4  C6  UNL     1      26.934   3.902  49.354  1.00  0.00     0.018 A 
HETATM    5  C5  UNL     1      26.425   5.170  49.115  1.00  0.00     0.010 A 
HETATM    6  C17 UNL     1      25.114   5.423  49.500  1.00  0.00     0.018 A 
HETATM    7  C16 UNL     1      24.388   4.413  50.094  1.00  0.00     0.039 A 
BRANCH   5   8
HETATM    8  C4  UNL     1      27.211   6.247  48.477  1.00  0.00     0.161 C 
HETATM    9  O1  UNL     1      26.630   7.353  48.216  1.00  0.00    -0.292 OA
BRANCH   8  10
HETATM   10  C3  UNL     1      28.621   6.099  48.132  1.00  0.00     0.114 C 
BRANCH  10  11
HETATM   11  C2  UNL     1      29.432   7.348  48.082  1.00  0.00     0.277 C 
BRANCH  11  12
HETATM   12  N1  UNL     1      29.588   8.053  49.314  1.00  0.00     0.079 N 
HETATM   13  C1  UNL     1      29.310   9.454  49.284  1.00  0.00     0.306 C 
HETATM   14  H4  UNL     1      29.113   7.605  50.110  1.00  0.00     0.315 HD
ENDBRANCH  11  12
ENDBRANCH  10  11
ENDBRANCH   8  10
ENDBRANCH   5   8
ENDBRANCH   1   2
BRANCH   1  15
HETATM   15  S1  UNL     1      24.376   1.907  52.613  1.00  0.00     0.303 S 
HETATM   16  O3  UNL     1      23.168   1.279  53.207  1.00  0.00    -0.193 OA
HETATM   17  O4  UNL     1      24.629   3.232  53.255  1.00  0.00    -0.193 OA
BRANCH  15  18
HETATM   18  C9  UNL     1      25.791   0.874  52.845  1.00  0.00     0.086 A 
HETATM   19  C10 UNL     1      26.996   1.472  53.187  1.00  0.00     0.027 A 
HETATM   20  C11 UNL     1      28.108   0.665  53.371  1.00  0.00     0.020 A 
HETATM   21  C12 UNL     1      27.988  -0.707  53.209  1.00  0.00     0.037 A 
HETATM   22  C14 UNL     1      26.768  -1.277  52.865  1.00  0.00     0.020 A 
HETATM   23  C15 UNL     1      25.653  -0.498  52.678  1.00  0.00     0.027 A 
BRANCH  21  24
HETATM   24  C13 UNL     1      29.160  -1.552  53.403  1.00  0.00     0.176 C 
HETATM   25  O5  UNL     1      30.253  -0.968  53.633  1.00  0.00    -0.646 OA
BRANCH  24  26
HETATM   26  O6  UNL     1      29.038  -2.928  53.330  1.00  0.00    -0.773 OA
HETATM   27  H13 UNL     1      29.542  -3.440  52.612  1.00  0.00     0.167 HD
ENDBRANCH  24  26
ENDBRANCH  21  24
ENDBRANCH  15  18
ENDBRANCH   1  15
TORSDOF 9
ENDMDL
MODEL 2
REMARK VINA RESULT:      -7.6      2.034      2.469
REMARK  9 active torsions:
REMARK  status: ('A' for Active; 'I' for Inactive)
REMARK    1  A    between atoms: N1_2  and  C2_3 
REMARK    2  A    between atoms: C2_3  and  C3_4 
REMARK    3  A    between atoms: C3_4  and  C4_5 
REMARK    4  A    between atoms: C4_5  and  C5_7 
REMARK    5  A    between atoms: C8_10  and  O2_11 
REMARK    6  A    between atoms: O2_11  and  S1_12 
REMARK    7  A    between atoms: S1_12  and  C9_15 
REMARK    8  A    between atoms: C12_18  and  C13_19 
REMARK    9  A    between atoms: C13_19  and  O6_21 
ROOT
HETATM    1  O2  UNL     1      23.295   3.560  50.012  1.00  0.00    -0.229 OA
ENDROOT
BRANCH   1   2
HETATM    2  C8  UNL     1      24.462   4.175  49.587  1.00  0.00     0.089 A 
HETATM    3  C7  UNL     1      25.626   3.449  49.726  1.00  0.00     0.039 A 
HETATM    4  C6  UNL     1      26.822   3.994  49.326  1.00  0.00     0.018 A 
HETATM    5  C5  UNL     1      26.920   5.264  48.778  1.00  0.00     0.010 A 
HETATM    6  C17 UNL     1      25.750   5.998  48.636  1.00  0.00     0.018 A 
HETATM    7  C16 UNL     1      24.558   5.437  49.042  1.00  0.00     0.039 A 
BRANCH   5   8
HETATM    8  C4  UNL     1      28.203   5.858  48.344  1.00  0.00     0.161 C 
HETATM    9  O1  UNL     1      29.286   5.249  48.637  1.00  0.00    -0.292 OA
BRANCH   8  10
HETATM   10  C3  UNL     1      28.284   7.108  47.597  1.00  0.00     0.114 C 
BRANCH  10  11
HETATM   11  C2  UNL     1      28.978   8.244  48.265  1.00  0.00     0.277 C 
BRANCH  11  12
HETATM   12  N1  UNL     1      28.702   8.428  49.654  1.00  0.00     0.079 N 
HETATM   13  C1  UNL     1      27.540   9.194  49.975  1.00  0.00     0.306 C 
HETATM   14  H4  UNL     1      28.722   7.554  50.199  1.00  0.00     0.315 HD
ENDBRANCH  11  12
ENDBRANCH  10  11
ENDBRANCH   8  10
ENDBRANCH   5   8
ENDBRANCH   1   2
BRANCH   1  15
HETATM   15  S1  UNL     1      22.873   3.719  51.660  1.00  0.00     0.303 S 
HETATM   16  O3  UNL     1      21.410   3.563  51.865  1.00  0.00    -0.193 OA
HETATM   17  O4  UNL     1      23.319   5.050  52.173  1.00  0.00    -0.193 OA
BRANCH  15  18
HETATM   18  C9  UNL     1      23.759   2.446  52.507  1.00  0.00     0.086 A 
HETATM   19  C10 UNL     1      24.933   2.786  53.167  1.00  0.00     0.027 A 
HETATM   20  C11 UNL     1      25.630   1.791  53.834  1.00  0.00     0.020 A 
HETATM   21  C12 UNL     1      25.141   0.494  53.825  1.00  0.00     0.037 A 
HETATM   22  C14 UNL     1      23.963   0.184  53.155  1.00  0.00     0.020 A 
HETATM   23  C15 UNL     1      23.256   1.153  52.487  1.00  0.00     0.027 A 
BRANCH  21  24
HETATM   24  C13 UNL     1      25.878  -0.550  54.527  1.00  0.00     0.176 C 
HETATM   25  O5  UNL     1      25.219  -1.287  55.309  1.00  0.00    -0.646 OA
BRANCH  24  26
HETATM   26  O6  UNL     1      27.238  -0.694  54.317  1.00  0.00    -0.773 OA
HETATM   27  H13 UNL     1      27.864   0.074  54.538  1.00  0.00     0.167 HD
ENDBRANCH  24  26
ENDBRANCH  21  24
ENDBRANCH  15  18
ENDBRANCH   1  15
TORSDOF 9
ENDMDL
MODEL 3
REMARK VINA RESULT:      -7.4      1.349      2.129
REMARK  9 active torsions:
REMARK  status: ('A' for Active; 'I' for Inactive)
REMARK    1  A    between atoms: N1_2  and  C2_3 
REMARK    2  A    between atoms: C2_3  and  C3_4 
REMARK    3  A    between atoms: C3_4  and  C4_5 
REMARK    4  A    between atoms: C4_5  and  C5_7 
REMARK    5  A    between atoms: C8_10  and  O2_11 
REMARK    6  A    between atoms: O2_11  and  S1_12 
REMARK    7  A    between atoms: S1_12  and  C9_15 
REMARK    8  A    between atoms: C12_18  and  C13_19 
REMARK    9  A    between atoms: C13_19  and  O6_21 
ROOT
HETATM    1  O2  UNL     1      23.367   2.943  50.276  1.00  0.00    -0.229 OA
ENDROOT
BRANCH   1   2
HETATM    2  C8  UNL     1      24.464   3.661  49.826  1.00  0.00     0.089 A 
HETATM    3  C7  UNL     1      24.220   4.944  49.384  1.00  0.00     0.039 A 
HETATM    4  C6  UNL     1      25.259   5.716  48.923  1.00  0.00     0.018 A 
HETATM    5  C5  UNL     1      26.568   5.261  48.880  1.00  0.00     0.010 A 
HETATM    6  C17 UNL     1      26.818   3.970  49.325  1.00  0.00     0.018 A 
HETATM    7  C16 UNL     1      25.765   3.208  49.784  1.00  0.00     0.039 A 
BRANCH   5   8
HETATM    8  C4  UNL     1      27.691   6.086  48.387  1.00  0.00     0.161 C 
HETATM    9  O1  UNL     1      27.458   7.295  48.050  1.00  0.00    -0.292 OA
BRANCH   8  10
HETATM   10  C3  UNL     1      29.054   5.578  48.269  1.00  0.00     0.114 C 
BRANCH  10  11
HETATM   11  C2  UNL     1      30.147   6.590  48.242  1.00  0.00     0.277 C 
BRANCH  11  12
HETATM   12  N1  UNL     1      30.239   7.454  49.375  1.00  0.00     0.079 N 
HETATM   13  C1  UNL     1      30.571   8.818  49.109  1.00  0.00     0.306 C 
HETATM   14  H4  UNL     1      29.428   7.395  50.008  1.00  0.00     0.315 HD
ENDBRANCH  11  12
ENDBRANCH  10  11
ENDBRANCH   8  10
ENDBRANCH   5   8
ENDBRANCH   1   2
BRANCH   1  15
HETATM   15  S1  UNL     1      23.090   2.896  51.961  1.00  0.00     0.303 S 
HETATM   16  O3  UNL     1      21.828   2.182  52.285  1.00  0.00    -0.193 OA
HETATM   17  O4  UNL     1      23.042   4.286  52.507  1.00  0.00    -0.193 OA
BRANCH  15  18
HETATM   18  C9  UNL     1      24.479   2.051  52.652  1.00  0.00     0.086 A 
HETATM   19  C10 UNL     1      24.639   0.701  52.367  1.00  0.00     0.027 A 
HETATM   20  C11 UNL     1      25.729   0.036  52.906  1.00  0.00     0.020 A 
HETATM   21  C12 UNL     1      26.621   0.728  53.710  1.00  0.00     0.037 A 
HETATM   22  C14 UNL     1      26.433   2.079  53.978  1.00  0.00     0.020 A 
HETATM   23  C15 UNL     1      25.362   2.760  53.455  1.00  0.00     0.027 A 
BRANCH  21  24
HETATM   24  C13 UNL     1      27.765   0.023  54.276  1.00  0.00     0.176 C 
HETATM   25  O5  UNL     1      27.953  -1.162  53.891  1.00  0.00    -0.646 OA
BRANCH  24  26
HETATM   26  O6  UNL     1      28.584   0.660  55.191  1.00  0.00    -0.773 OA
HETATM   27  H13 UNL     1      28.342   0.646  56.177  1.00  0.00     0.167 HD
ENDBRANCH  24  26
ENDBRANCH  21  24
ENDBRANCH  15  18
ENDBRANCH   1  15
TORSDOF 9
ENDMDL
MODEL 4
REMARK VINA RESULT:      -7.2      3.534      4.331
REMARK  9 active torsions:
REMARK  status: ('A' for Active; 'I' for Inactive)
REMARK    1  A    between atoms: N1_2  and  C2_3 
REMARK    2  A    between atoms: C2_3  and  C3_4 
REMARK    3  A    between atoms: C3_4  and  C4_5 
REMARK    4  A    between atoms: C4_5  and  C5_7 
REMARK    5  A    between atoms: C8_10  and  O2_11 
REMARK    6  A    between atoms: O2_11  and  S1_12 
REMARK    7  A    between atoms: S1_12  and  C9_15 
REMARK    8  A    between atoms: C12_18  and  C13_19 
REMARK    9  A    between atoms: C13_19  and  O6_21 
ROOT
HETATM    1  O2  UNL     1      23.250   3.264  50.133  1.00  0.00    -0.229 OA
ENDROOT
BRANCH   1   2
HETATM    2  C8  UNL     1      24.414   3.892  49.717  1.00  0.00     0.089 A 
HETATM    3  C7  UNL     1      24.272   5.144  49.160  1.00  0.00     0.039 A 
HETATM    4  C6  UNL     1      25.381   5.828  48.724  1.00  0.00     0.018 A 
HETATM    5  C5  UNL     1      26.665   5.309  48.818  1.00  0.00     0.010 A 
HETATM    6  C17 UNL     1      26.812   4.048  49.378  1.00  0.00     0.018 A 
HETATM    7  C16 UNL     1      25.689   3.376  49.811  1.00  0.00     0.039 A 
BRANCH   5   8
HETATM    8  C4  UNL     1      27.863   6.038  48.352  1.00  0.00     0.161 C 
HETATM    9  O1  UNL     1      27.757   7.283  48.090  1.00  0.00    -0.292 OA
BRANCH   8  10
HETATM   10  C3  UNL     1      29.162   5.396  48.178  1.00  0.00     0.114 C 
BRANCH  10  11
HETATM   11  C2  UNL     1      30.355   6.288  48.169  1.00  0.00     0.277 C 
BRANCH  11  12
HETATM   12  N1  UNL     1      30.473   7.200  49.262  1.00  0.00     0.079 N 
HETATM   13  C1  UNL     1      31.738   7.847  49.415  1.00  0.00     0.306 C 
HETATM   14  H4  UNL     1      29.706   7.886  49.313  1.00  0.00     0.315 HD
ENDBRANCH  11  12
ENDBRANCH  10  11
ENDBRANCH   8  10
ENDBRANCH   5   8
ENDBRANCH   1   2
BRANCH   1  15
HETATM   15  S1  UNL     1      22.594   3.735  51.639  1.00  0.00     0.303 S 
HETATM   16  O3  UNL     1      21.407   4.610  51.466  1.00  0.00    -0.193 OA
HETATM   17  O4  UNL     1      23.633   4.440  52.448  1.00  0.00    -0.193 OA
BRANCH  15  18
HETATM   18  C9  UNL     1      22.146   2.234  52.457  1.00  0.00     0.086 A 
HETATM   19  C10 UNL     1      23.156   1.355  52.824  1.00  0.00     0.027 A 
HETATM   20  C11 UNL     1      22.808   0.177  53.467  1.00  0.00     0.020 A 
HETATM   21  C12 UNL     1      21.473  -0.090  53.724  1.00  0.00     0.037 A 
HETATM   22  C14 UNL     1      20.483   0.810  53.344  1.00  0.00     0.020 A 
HETATM   23  C15 UNL     1      20.803   1.982  52.706  1.00  0.00     0.027 A 
BRANCH  21  24
HETATM   24  C13 UNL     1      21.111  -1.330  54.400  1.00  0.00     0.176 C 
HETATM   25  O5  UNL     1      21.998  -1.869  55.115  1.00  0.00    -0.646 OA
BRANCH  24  26
HETATM   26  O6  UNL     1      19.843  -1.860  54.239  1.00  0.00    -0.773 OA
HETATM   27  H13 UNL     1      19.663  -2.821  54.511  1.00  0.00     0.167 HD
ENDBRANCH  24  26
ENDBRANCH  21  24
ENDBRANCH  15  18
ENDBRANCH   1  15
TORSDOF 9
ENDMDL
MODEL 5
REMARK VINA RESULT:      -7.1      3.268      5.347
REMARK  9 active torsions:
REMARK  status: ('A' for Active; 'I' for Inactive)
REMARK    1  A    between atoms: N1_2  and  C2_3 
REMARK    2  A    between atoms: C2_3  and  C3_4 
REMARK    3  A    between atoms: C3_4  and  C4_5 
REMARK    4  A    between atoms: C4_5  and  C5_7 
REMARK    5  A    between atoms: C8_10  and  O2_11 
REMARK    6  A    between atoms: O2_11  and  S1_12 
REMARK    7  A    between atoms: S1_12  and  C9_15 
REMARK    8  A    between atoms: C12_18  and  C13_19 
REMARK    9  A    between atoms: C13_19  and  O6_21 
ROOT
HETATM    1  O2  UNL     1      25.595   1.082  54.266  1.00  0.00    -0.229 OA
ENDROOT
BRANCH   1   2
HETATM    2  C8  UNL     1      25.693   1.820  53.097  1.00  0.00     0.089 A 
HETATM    3  C7  UNL     1      24.708   2.759  52.878  1.00  0.00     0.039 A 
HETATM    4  C6  UNL     1      24.739   3.529  51.740  1.00  0.00     0.018 A 
HETATM    5  C5  UNL     1      25.732   3.406  50.780  1.00  0.00     0.010 A 
HETATM    6  C17 UNL     1      26.727   2.461  50.997  1.00  0.00     0.018 A 
HETATM    7  C16 UNL     1      26.681   1.697  52.144  1.00  0.00     0.039 A 
BRANCH   5   8
HETATM    8  C4  UNL     1      25.774   4.230  49.554  1.00  0.00     0.161 C 
HETATM    9  O1  UNL     1      24.671   4.631  49.052  1.00  0.00    -0.292 OA
BRANCH   8  10
HETATM   10  C3  UNL     1      27.020   4.603  48.893  1.00  0.00     0.114 C 
BRANCH  10  11
HETATM   11  C2  UNL     1      27.197   6.045  48.564  1.00  0.00     0.277 C 
BRANCH  11  12
HETATM   12  N1  UNL     1      26.907   6.975  49.609  1.00  0.00     0.079 N 
HETATM   13  C1  UNL     1      25.894   7.944  49.335  1.00  0.00     0.306 C 
HETATM   14  H4  UNL     1      26.746   6.531  50.525  1.00  0.00     0.315 HD
ENDBRANCH  11  12
ENDBRANCH  10  11
ENDBRANCH   8  10
ENDBRANCH   5   8
ENDBRANCH   1   2
BRANCH   1  15
HETATM   15  S1  UNL     1      25.137  -0.558  54.130  1.00  0.00     0.303 S 
HETATM   16  O3  UNL     1      25.427  -1.310  55.378  1.00  0.00    -0.193 OA
HETATM   17  O4  UNL     1      25.849  -1.190  52.978  1.00  0.00    -0.193 OA
BRANCH  15  18
HETATM   18  C9  UNL     1      23.401  -0.545  53.800  1.00  0.00     0.086 A 
HETATM   19  C10 UNL     1      22.536  -0.973  54.799  1.00  0.00     0.027 A 
HETATM   20  C11 UNL     1      21.174  -0.963  54.544  1.00  0.00     0.020 A 
HETATM   21  C12 UNL     1      20.715  -0.530  53.309  1.00  0.00     0.037 A 
HETATM   22  C14 UNL     1      21.606  -0.109  52.329  1.00  0.00     0.020 A 
HETATM   23  C15 UNL     1      22.959  -0.110  52.558  1.00  0.00     0.027 A 
BRANCH  21  24
HETATM   24  C13 UNL     1      19.281  -0.523  53.045  1.00  0.00     0.176 C 
HETATM   25  O5  UNL     1      18.608  -1.476  53.521  1.00  0.00    -0.646 OA
BRANCH  24  26
HETATM   26  O6  UNL     1      18.722   0.502  52.303  1.00  0.00    -0.773 OA
HETATM   27  H13 UNL     1      18.487   0.344  51.327  1.00  0.00     0.167 HD
ENDBRANCH  24  26
ENDBRANCH  21  24
ENDBRANCH  15  18
ENDBRANCH   1  15
TORSDOF 9
ENDMDL
MODEL 6
REMARK VINA RESULT:      -6.8      1.442      1.921
REMARK  9 active torsions:
REMARK  status: ('A' for Active; 'I' for Inactive)
REMARK    1  A    between atoms: N1_2  and  C2_3 
REMARK    2  A    between atoms: C2_3  and  C3_4 
REMARK    3  A    between atoms: C3_4  and  C4_5 
REMARK    4  A    between atoms: C4_5  and  C5_7 
REMARK    5  A    between atoms: C8_10  and  O2_11 
REMARK    6  A    between atoms: O2_11  and  S1_12 
REMARK    7  A    between atoms: S1_12  and  C9_15 
REMARK    8  A    between atoms: C12_18  and  C13_19 
REMARK    9  A    between atoms: C13_19  and  O6_21 
ROOT
HETATM    1  O2  UNL     1      23.501   2.172  50.473  1.00  0.00    -0.229 OA
ENDROOT
BRANCH   1   2
HETATM    2  C8  UNL     1      23.853   3.441  50.039  1.00  0.00     0.089 A 
HETATM    3  C7  UNL     1      25.193   3.662  49.807  1.00  0.00     0.039 A 
HETATM    4  C6  UNL     1      25.617   4.895  49.374  1.00  0.00     0.018 A 
HETATM    5  C5  UNL     1      24.746   5.952  49.155  1.00  0.00     0.010 A 
HETATM    6  C17 UNL     1      23.395   5.733  49.387  1.00  0.00     0.018 A 
HETATM    7  C16 UNL     1      22.986   4.490  49.820  1.00  0.00     0.039 A 
BRANCH   5   8
HETATM    8  C4  UNL     1      25.194   7.281  48.690  1.00  0.00     0.161 C 
HETATM    9  O1  UNL     1      25.450   7.438  47.449  1.00  0.00    -0.292 OA
BRANCH   8  10
HETATM   10  C3  UNL     1      25.355   8.421  49.586  1.00  0.00     0.114 C 
BRANCH  10  11
HETATM   11  C2  UNL     1      26.735   8.701  50.072  1.00  0.00     0.277 C 
BRANCH  11  12
HETATM   12  N1  UNL     1      27.792   7.986  49.430  1.00  0.00     0.079 N 
HETATM   13  C1  UNL     1      28.704   8.762  48.652  1.00  0.00     0.306 C 
HETATM   14  H4  UNL     1      28.302   7.349  50.059  1.00  0.00     0.315 HD
ENDBRANCH  11  12
ENDBRANCH  10  11
ENDBRANCH   8  10
ENDBRANCH   5   8
ENDBRANCH   1   2
BRANCH   1  15
HETATM   15  S1  UNL     1      23.498   1.886  52.157  1.00  0.00     0.303 S 
HETATM   16  O3  UNL     1      22.215   1.286  52.605  1.00  0.00    -0.193 OA
HETATM   17  O4  UNL     1      23.746   3.164  52.890  1.00  0.00    -0.193 OA
BRANCH  15  18
HETATM   18  C9  UNL     1      24.842   0.778  52.457  1.00  0.00     0.086 A 
HETATM   19  C10 UNL     1      24.632  -0.300  53.306  1.00  0.00     0.027 A 
HETATM   20  C11 UNL     1      25.683  -1.172  53.542  1.00  0.00     0.020 A 
HETATM   21  C12 UNL     1      26.906  -0.947  52.930  1.00  0.00     0.037 A 
HETATM   22  C14 UNL     1      27.086   0.142  52.085  1.00  0.00     0.020 A 
HETATM   23  C15 UNL     1      26.060   1.019  51.836  1.00  0.00     0.027 A 
BRANCH  21  24
HETATM   24  C13 UNL     1      28.009  -1.866  53.183  1.00  0.00     0.176 C 
HETATM   25  O5  UNL     1      28.969  -1.429  53.873  1.00  0.00    -0.646 OA
BRANCH  24  26
HETATM   26  O6  UNL     1      27.968  -3.150  52.671  1.00  0.00    -0.773 OA
HETATM   27  H13 UNL     1      27.097  -3.674  52.698  1.00  0.00     0.167 HD
ENDBRANCH  24  26
ENDBRANCH  21  24
ENDBRANCH  15  18
ENDBRANCH   1  15
TORSDOF 9
ENDMDL
MODEL 7
REMARK VINA RESULT:      -6.8      1.515      1.745
REMARK  9 active torsions:
REMARK  status: ('A' for Active; 'I' for Inactive)
REMARK    1  A    between atoms: N1_2  and  C2_3 
REMARK    2  A    between atoms: C2_3  and  C3_4 
REMARK    3  A    between atoms: C3_4  and  C4_5 
REMARK    4  A    between atoms: C4_5  and  C5_7 
REMARK    5  A    between atoms: C8_10  and  O2_11 
REMARK    6  A    between atoms: O2_11  and  S1_12 
REMARK    7  A    between atoms: S1_12  and  C9_15 
REMARK    8  A    between atoms: C12_18  and  C13_19 
REMARK    9  A    between atoms: C13_19  and  O6_21 
ROOT
HETATM    1  O2  UNL     1      23.748   2.525  50.047  1.00  0.00    -0.229 OA
ENDROOT
BRANCH   1   2
HETATM    2  C8  UNL     1      24.641   3.521  49.682  1.00  0.00     0.089 A 
HETATM    3  C7  UNL     1      25.974   3.171  49.651  1.00  0.00     0.039 A 
HETATM    4  C6  UNL     1      26.917   4.105  49.298  1.00  0.00     0.018 A 
HETATM    5  C5  UNL     1      26.589   5.411  48.964  1.00  0.00     0.010 A 
HETATM    6  C17 UNL     1      25.247   5.768  48.994  1.00  0.00     0.018 A 
HETATM    7  C16 UNL     1      24.314   4.818  49.350  1.00  0.00     0.039 A 
BRANCH   5   8
HETATM    8  C4  UNL     1      27.597   6.423  48.583  1.00  0.00     0.161 C 
HETATM    9  O1  UNL     1      27.429   7.627  48.970  1.00  0.00    -0.292 OA
BRANCH   8  10
HETATM   10  C3  UNL     1      28.776   6.103  47.784  1.00  0.00     0.114 C 
BRANCH  10  11
HETATM   11  C2  UNL     1      30.049   5.884  48.525  1.00  0.00     0.277 C 
BRANCH  11  12
HETATM   12  N1  UNL     1      31.214   5.654  47.732  1.00  0.00     0.079 N 
HETATM   13  C1  UNL     1      31.992   6.804  47.396  1.00  0.00     0.306 C 
HETATM   14  H4  UNL     1      31.818   4.900  48.092  1.00  0.00     0.315 HD
ENDBRANCH  11  12
ENDBRANCH  10  11
ENDBRANCH   8  10
ENDBRANCH   5   8
ENDBRANCH   1   2
BRANCH   1  15
HETATM   15  S1  UNL     1      23.343   2.395  51.701  1.00  0.00     0.303 S 
HETATM   16  O3  UNL     1      22.154   1.528  51.904  1.00  0.00    -0.193 OA
HETATM   17  O4  UNL     1      23.086   3.753  52.270  1.00  0.00    -0.193 OA
BRANCH  15  18
HETATM   18  C9  UNL     1      24.763   1.697  52.489  1.00  0.00     0.086 A 
HETATM   19  C10 UNL     1      25.628   2.548  53.165  1.00  0.00     0.027 A 
HETATM   20  C11 UNL     1      26.741   2.004  53.785  1.00  0.00     0.020 A 
HETATM   21  C12 UNL     1      26.960   0.637  53.716  1.00  0.00     0.037 A 
HETATM   22  C14 UNL     1      26.077  -0.190  53.031  1.00  0.00     0.020 A 
HETATM   23  C15 UNL     1      24.967   0.326  52.409  1.00  0.00     0.027 A 
BRANCH  21  24
HETATM   24  C13 UNL     1      28.134   0.069  54.369  1.00  0.00     0.176 C 
HETATM   25  O5  UNL     1      28.655   0.747  55.295  1.00  0.00    -0.646 OA
BRANCH  24  26
HETATM   26  O6  UNL     1      28.623  -1.160  53.963  1.00  0.00    -0.773 OA
HETATM   27  H13 UNL     1      28.135  -1.679  53.239  1.00  0.00     0.167 HD
ENDBRANCH  24  26
ENDBRANCH  21  24
ENDBRANCH  15  18
ENDBRANCH   1  15
TORSDOF 9
ENDMDL
MODEL 8
REMARK VINA RESULT:      -6.8      4.253      6.661
REMARK  9 active torsions:
REMARK  status: ('A' for Active; 'I' for Inactive)
REMARK    1  A    between atoms: N1_2  and  C2_3 
REMARK    2  A    between atoms: C2_3  and  C3_4 
REMARK    3  A    between atoms: C3_4  and  C4_5 
REMARK    4  A    between atoms: C4_5  and  C5_7 
REMARK    5  A    between atoms: C8_10  and  O2_11 
REMARK    6  A    between atoms: O2_11  and  S1_12 
REMARK    7  A    between atoms: S1_12  and  C9_15 
REMARK    8  A    between atoms: C12_18  and  C13_19 
REMARK    9  A    between atoms: C13_19  and  O6_21 
ROOT
HETATM    1  O2  UNL     1      22.606   4.097  50.375  1.00  0.00    -0.229 OA
ENDROOT
BRANCH   1   2
HETATM    2  C8  UNL     1      23.538   3.544  51.238  1.00  0.00     0.089 A 
HETATM    3  C7  UNL     1      24.566   2.831  50.658  1.00  0.00     0.039 A 
HETATM    4  C6  UNL     1      25.528   2.254  51.450  1.00  0.00     0.018 A 
HETATM    5  C5  UNL     1      25.518   2.354  52.834  1.00  0.00     0.010 A 
HETATM    6  C17 UNL     1      24.485   3.071  53.422  1.00  0.00     0.018 A 
HETATM    7  C16 UNL     1      23.527   3.645  52.613  1.00  0.00     0.039 A 
BRANCH   5   8
HETATM    8  C4  UNL     1      26.550   1.736  53.694  1.00  0.00     0.161 C 
HETATM    9  O1  UNL     1      27.594   2.414  53.976  1.00  0.00    -0.292 OA
BRANCH   8  10
HETATM   10  C3  UNL     1      26.426   0.386  54.234  1.00  0.00     0.114 C 
BRANCH  10  11
HETATM   11  C2  UNL     1      27.438  -0.611  53.785  1.00  0.00     0.277 C 
BRANCH  11  12
HETATM   12  N1  UNL     1      28.703  -0.572  54.446  1.00  0.00     0.079 N 
HETATM   13  C1  UNL     1      29.848  -0.367  53.617  1.00  0.00     0.306 C 
HETATM   14  H4  UNL     1      28.726   0.060  55.259  1.00  0.00     0.315 HD
ENDBRANCH  11  12
ENDBRANCH  10  11
ENDBRANCH   8  10
ENDBRANCH   5   8
ENDBRANCH   1   2
BRANCH   1  15
HETATM   15  S1  UNL     1      21.206   3.181  50.031  1.00  0.00     0.303 S 
HETATM   16  O3  UNL     1      21.273   2.571  48.678  1.00  0.00    -0.193 OA
HETATM   17  O4  UNL     1      19.992   4.046  50.140  1.00  0.00    -0.193 OA
BRANCH  15  18
HETATM   18  C9  UNL     1      21.135   1.928  51.275  1.00  0.00     0.086 A 
HETATM   19  C10 UNL     1      21.761   0.714  51.026  1.00  0.00     0.027 A 
HETATM   20  C11 UNL     1      21.708  -0.270  52.000  1.00  0.00     0.020 A 
HETATM   21  C12 UNL     1      21.038  -0.019  53.187  1.00  0.00     0.037 A 
HETATM   22  C14 UNL     1      20.420   1.206  53.407  1.00  0.00     0.020 A 
HETATM   23  C15 UNL     1      20.458   2.196  52.457  1.00  0.00     0.027 A 
BRANCH  21  24
HETATM   24  C13 UNL     1      20.985  -1.058  54.209  1.00  0.00     0.176 C 
HETATM   25  O5  UNL     1      20.014  -1.861  54.156  1.00  0.00    -0.646 OA
BRANCH  24  26
HETATM   26  O6  UNL     1      21.973  -1.128  55.174  1.00  0.00    -0.773 OA
HETATM   27  H13 UNL     1      22.151  -0.325  55.770  1.00  0.00     0.167 HD
ENDBRANCH  24  26
ENDBRANCH  21  24
ENDBRANCH  15  18
ENDBRANCH   1  15
TORSDOF 9
ENDMDL
MODEL 9
REMARK VINA RESULT:      -6.8      2.456      4.032
REMARK  9 active torsions:
REMARK  status: ('A' for Active; 'I' for Inactive)
REMARK    1  A    between atoms: N1_2  and  C2_3 
REMARK    2  A    between atoms: C2_3  and  C3_4 
REMARK    3  A    between atoms: C3_4  and  C4_5 
REMARK    4  A    between atoms: C4_5  and  C5_7 
REMARK    5  A    between atoms: C8_10  and  O2_11 
REMARK    6  A    between atoms: O2_11  and  S1_12 
REMARK    7  A    between atoms: S1_12  and  C9_15 
REMARK    8  A    between atoms: C12_18  and  C13_19 
REMARK    9  A    between atoms: C13_19  and  O6_21 
ROOT
HETATM    1  O2  UNL     1      24.902   2.613  50.403  1.00  0.00    -0.229 OA
ENDROOT
BRANCH   1   2
HETATM    2  C8  UNL     1      25.533   3.757  49.941  1.00  0.00     0.089 A 
HETATM    3  C7  UNL     1      26.745   3.579  49.309  1.00  0.00     0.039 A 
HETATM    4  C6  UNL     1      27.428   4.667  48.824  1.00  0.00     0.018 A 
HETATM    5  C5  UNL     1      26.951   5.964  48.940  1.00  0.00     0.010 A 
HETATM    6  C17 UNL     1      25.730   6.148  49.575  1.00  0.00     0.018 A 
HETATM    7  C16 UNL     1      25.057   5.046  50.056  1.00  0.00     0.039 A 
BRANCH   5   8
HETATM    8  C4  UNL     1      27.680   7.141  48.420  1.00  0.00     0.161 C 
HETATM    9  O1  UNL     1      28.399   6.999  47.375  1.00  0.00    -0.292 OA
BRANCH   8  10
HETATM   10  C3  UNL     1      27.613   8.455  49.050  1.00  0.00     0.114 C 
BRANCH  10  11
HETATM   11  C2  UNL     1      28.909   9.144  49.303  1.00  0.00     0.277 C 
BRANCH  11  12
HETATM   12  N1  UNL     1      29.653   9.541  48.150  1.00  0.00     0.079 N 
HETATM   13  C1  UNL     1      30.957  10.074  48.387  1.00  0.00     0.306 C 
HETATM   14  H4  UNL     1      29.682   8.825  47.410  1.00  0.00     0.315 HD
ENDBRANCH  11  12
ENDBRANCH  10  11
ENDBRANCH   8  10
ENDBRANCH   5   8
ENDBRANCH   1   2
BRANCH   1  15
HETATM   15  S1  UNL     1      25.562   1.849  51.781  1.00  0.00     0.303 S 
HETATM   16  O3  UNL     1      26.140   2.836  52.728  1.00  0.00    -0.193 OA
HETATM   17  O4  UNL     1      26.611   0.869  51.365  1.00  0.00    -0.193 OA
BRANCH  15  18
HETATM   18  C9  UNL     1      24.222   0.976  52.533  1.00  0.00     0.086 A 
HETATM   19  C10 UNL     1      24.518  -0.042  53.431  1.00  0.00     0.027 A 
HETATM   20  C11 UNL     1      23.469  -0.727  54.023  1.00  0.00     0.020 A 
HETATM   21  C12 UNL     1      22.164  -0.383  53.707  1.00  0.00     0.037 A 
HETATM   22  C14 UNL     1      21.900   0.640  52.804  1.00  0.00     0.020 A 
HETATM   23  C15 UNL     1      22.922   1.334  52.205  1.00  0.00     0.027 A 
BRANCH  21  24
HETATM   24  C13 UNL     1      21.065  -1.108  54.333  1.00  0.00     0.176 C 
HETATM   25  O5  UNL     1      21.372  -2.057  55.103  1.00  0.00    -0.646 OA
BRANCH  24  26
HETATM   26  O6  UNL     1      19.757  -0.740  54.068  1.00  0.00    -0.773 OA
HETATM   27  H13 UNL     1      19.530  -0.298  53.182  1.00  0.00     0.167 HD
ENDBRANCH  24  26
ENDBRANCH  21  24
ENDBRANCH  15  18
ENDBRANCH   1  15
TORSDOF 9
ENDMDL
