MODEL 1
REMARK VINA RESULT:      -7.8      0.000      0.000
REMARK  6 active torsions:
REMARK  status: ('A' for Active; 'I' for Inactive)
REMARK    1  A    between atoms: O1_2  and  C2_3 
REMARK    2  A    between atoms: C7_10  and  N3_11 
REMARK    3  A    between atoms: N3_11  and  C8_12 
REMARK    4  A    between atoms: C12_16  and  C13_17 
REMARK    5  A    between atoms: C13_17  and  O2_18 
REMARK    6  A    between atoms: C14_19  and  O3_20 
ROOT
HETATM    1  N3  UNL     1      25.445   1.077  51.369  1.00  0.00    -0.340 N 
HETATM    2  H7  UNL     1      25.224   0.313  50.703  1.00  0.00     0.167 HD
ENDROOT
BRANCH   1   3
HETATM    3  C7  UNL     1      25.770   0.578  52.630  1.00  0.00     0.142 A 
HETATM    4  N2  UNL     1      27.065   0.726  53.064  1.00  0.00    -0.224 NA
HETATM    5  C6  UNL     1      27.462   0.289  54.271  1.00  0.00     0.236 A 
HETATM    6  N1  UNL     1      26.628  -0.333  55.161  1.00  0.00    -0.241 NA
HETATM    7  C5  UNL     1      25.334  -0.515  54.801  1.00  0.00     0.072 A 
HETATM    8  C4  UNL     1      24.437  -1.125  55.650  1.00  0.00     0.035 A 
HETATM    9  C17 UNL     1      25.007  -0.045  53.567  1.00  0.00     0.041 A 
HETATM   10  C3  UNL     1      23.113  -1.271  55.218  1.00  0.00     0.039 A 
HETATM   11  C2  UNL     1      22.680  -0.829  53.985  1.00  0.00     0.069 A 
HETATM   12  C18 UNL     1      23.675  -0.224  53.204  1.00  0.00     0.054 A 
BRANCH  11  13
HETATM   13  O1  UNL     1      21.399  -0.939  53.500  1.00  0.00    -0.356 OA
HETATM   14  C1  UNL     1      20.427   0.013  53.822  1.00  0.00     0.210 C 
ENDBRANCH  11  13
ENDBRANCH   1   3
BRANCH   1  15
HETATM   15  C8  UNL     1      25.425   2.488  51.042  1.00  0.00     0.036 A 
HETATM   16  C9  UNL     1      26.382   2.908  50.108  1.00  0.00     0.037 A 
HETATM   17  C10 UNL     1      26.317   4.271  49.777  1.00  0.00    -0.049 A 
HETATM   18  C11 UNL     1      27.352   4.678  48.779  1.00  0.00     0.049 C 
HETATM   19  C12 UNL     1      25.373   5.147  50.333  1.00  0.00     0.005 A 
HETATM   20  C14 UNL     1      24.525   4.554  51.228  1.00  0.00     0.079 A 
HETATM   21  C16 UNL     1      24.460   3.251  51.652  1.00  0.00     0.066 A 
BRANCH  19  22
HETATM   22  C13 UNL     1      25.377   6.557  49.922  1.00  0.00     0.206 C 
BRANCH  22  23
HETATM   23  O2  UNL     1      26.037   7.366  50.852  1.00  0.00    -0.396 OA
HETATM   24  H14 UNL     1      25.522   8.185  51.096  1.00  0.00     0.209 HD
ENDBRANCH  22  23
ENDBRANCH  19  22
BRANCH  20  25
HETATM   25  O3  UNL     1      23.630   5.529  51.713  1.00  0.00    -0.355 OA
HETATM   26  C15 UNL     1      22.283   5.137  51.861  1.00  0.00     0.210 C 
ENDBRANCH  20  25
ENDBRANCH   1  15
TORSDOF 6
ENDMDL
MODEL 2
REMARK VINA RESULT:      -7.5      2.865      7.614
REMARK  6 active torsions:
REMARK  status: ('A' for Active; 'I' for Inactive)
REMARK    1  A    between atoms: O1_2  and  C2_3 
REMARK    2  A    between atoms: C7_10  and  N3_11 
REMARK    3  A    between atoms: N3_11  and  C8_12 
REMARK    4  A    between atoms: C12_16  and  C13_17 
REMARK    5  A    between atoms: C13_17  and  O2_18 
REMARK    6  A    between atoms: C14_19  and  O3_20 
ROOT
HETATM    1  N3  UNL     1      24.899   2.845  50.301  1.00  0.00    -0.340 N 
HETATM    2  H7  UNL     1      24.752   2.366  49.393  1.00  0.00     0.167 HD
ENDROOT
BRANCH   1   3
HETATM    3  C7  UNL     1      24.770   4.227  50.178  1.00  0.00     0.142 A 
HETATM    4  N2  UNL     1      23.624   4.810  50.661  1.00  0.00    -0.224 NA
HETATM    5  C6  UNL     1      23.421   6.137  50.597  1.00  0.00     0.236 A 
HETATM    6  N1  UNL     1      24.323   7.013  50.054  1.00  0.00    -0.241 NA
HETATM    7  C5  UNL     1      25.479   6.510  49.556  1.00  0.00     0.072 A 
HETATM    8  C4  UNL     1      26.435   7.334  49.004  1.00  0.00     0.035 A 
HETATM    9  C17 UNL     1      25.612   5.161  49.658  1.00  0.00     0.041 A 
HETATM   10  C3  UNL     1      27.611   6.749  48.518  1.00  0.00     0.039 A 
HETATM   11  C2  UNL     1      27.842   5.390  48.574  1.00  0.00     0.069 A 
HETATM   12  C18 UNL     1      26.805   4.648  49.156  1.00  0.00     0.054 A 
BRANCH  11  13
HETATM   13  O1  UNL     1      28.971   4.751  48.118  1.00  0.00    -0.356 OA
HETATM   14  C1  UNL     1      30.166   5.454  47.933  1.00  0.00     0.210 C 
ENDBRANCH  11  13
ENDBRANCH   1   3
BRANCH   1  15
HETATM   15  C8  UNL     1      25.200   2.173  51.549  1.00  0.00     0.036 A 
HETATM   16  C9  UNL     1      24.324   1.139  51.907  1.00  0.00     0.037 A 
HETATM   17  C10 UNL     1      24.658   0.476  53.099  1.00  0.00    -0.049 A 
HETATM   18  C11 UNL     1      23.701  -0.618  53.446  1.00  0.00     0.049 C 
HETATM   19  C12 UNL     1      25.777   0.817  53.873  1.00  0.00     0.005 A 
HETATM   20  C14 UNL     1      26.511   1.853  53.364  1.00  0.00     0.079 A 
HETATM   21  C16 UNL     1      26.318   2.594  52.225  1.00  0.00     0.066 A 
BRANCH  19  22
HETATM   22  C13 UNL     1      26.051   0.062  55.103  1.00  0.00     0.206 C 
BRANCH  22  23
HETATM   23  O2  UNL     1      27.333  -0.498  55.093  1.00  0.00    -0.396 OA
HETATM   24  H14 UNL     1      28.022   0.104  54.698  1.00  0.00     0.209 HD
ENDBRANCH  22  23
ENDBRANCH  19  22
BRANCH  20  25
HETATM   25  O3  UNL     1      27.600   2.098  54.224  1.00  0.00    -0.355 OA
HETATM   26  C15 UNL     1      28.816   2.476  53.617  1.00  0.00     0.210 C 
ENDBRANCH  20  25
ENDBRANCH   1  15
TORSDOF 6
ENDMDL
MODEL 3
REMARK VINA RESULT:      -7.4      1.766      2.951
REMARK  6 active torsions:
REMARK  status: ('A' for Active; 'I' for Inactive)
REMARK    1  A    between atoms: O1_2  and  C2_3 
REMARK    2  A    between atoms: C7_10  and  N3_11 
REMARK    3  A    between atoms: N3_11  and  C8_12 
REMARK    4  A    between atoms: C12_16  and  C13_17 
REMARK    5  A    between atoms: C13_17  and  O2_18 
REMARK    6  A    between atoms: C14_19  and  O3_20 
ROOT
HETATM    1  N3  UNL     1      26.254   2.211  50.696  1.00  0.00    -0.340 N 
HETATM    2  H7  UNL     1      26.004   1.355  50.168  1.00  0.00     0.167 HD
ENDROOT
BRANCH   1   3
HETATM    3  C7  UNL     1      26.776   1.905  51.952  1.00  0.00     0.142 A 
HETATM    4  N2  UNL     1      27.957   2.501  52.319  1.00  0.00    -0.224 NA
HETATM    5  C6  UNL     1      28.525   2.274  53.516  1.00  0.00     0.236 A 
HETATM    6  N1  UNL     1      27.988   1.442  54.460  1.00  0.00    -0.241 NA
HETATM    7  C5  UNL     1      26.821   0.816  54.168  1.00  0.00     0.072 A 
HETATM    8  C4  UNL     1      26.219  -0.028  55.075  1.00  0.00     0.035 A 
HETATM    9  C17 UNL     1      26.308   1.097  52.941  1.00  0.00     0.041 A 
HETATM   10  C3  UNL     1      25.009  -0.633  54.712  1.00  0.00     0.039 A 
HETATM   11  C2  UNL     1      24.406  -0.415  53.491  1.00  0.00     0.069 A 
HETATM   12  C18 UNL     1      25.104   0.461  52.648  1.00  0.00     0.054 A 
BRANCH  11  13
HETATM   13  O1  UNL     1      23.222  -0.974  53.072  1.00  0.00    -0.356 OA
HETATM   14  C1  UNL     1      21.995  -0.433  53.469  1.00  0.00     0.210 C 
ENDBRANCH  11  13
ENDBRANCH   1   3
BRANCH   1  15
HETATM   15  C8  UNL     1      26.088   3.563  50.202  1.00  0.00     0.036 A 
HETATM   16  C9  UNL     1      25.000   4.272  50.729  1.00  0.00     0.037 A 
HETATM   17  C10 UNL     1      24.884   5.593  50.266  1.00  0.00    -0.049 A 
HETATM   18  C11 UNL     1      23.713   6.314  50.851  1.00  0.00     0.049 C 
HETATM   19  C12 UNL     1      25.780   6.162  49.350  1.00  0.00     0.005 A 
HETATM   20  C14 UNL     1      26.775   5.314  48.947  1.00  0.00     0.079 A 
HETATM   21  C16 UNL     1      27.024   4.013  49.304  1.00  0.00     0.066 A 
BRANCH  19  22
HETATM   22  C13 UNL     1      25.582   7.554  48.926  1.00  0.00     0.206 C 
BRANCH  22  23
HETATM   23  O2  UNL     1      25.255   7.642  47.569  1.00  0.00    -0.396 OA
HETATM   24  H14 UNL     1      24.509   7.037  47.304  1.00  0.00     0.209 HD
ENDBRANCH  22  23
ENDBRANCH  19  22
BRANCH  20  25
HETATM   25  O3  UNL     1      27.605   5.997  48.035  1.00  0.00    -0.355 OA
HETATM   26  C15 UNL     1      28.997   5.808  48.177  1.00  0.00     0.210 C 
ENDBRANCH  20  25
ENDBRANCH   1  15
TORSDOF 6
ENDMDL
MODEL 4
REMARK VINA RESULT:      -7.2      2.205      3.417
REMARK  6 active torsions:
REMARK  status: ('A' for Active; 'I' for Inactive)
REMARK    1  A    between atoms: O1_2  and  C2_3 
REMARK    2  A    between atoms: C7_10  and  N3_11 
REMARK    3  A    between atoms: N3_11  and  C8_12 
REMARK    4  A    between atoms: C12_16  and  C13_17 
REMARK    5  A    between atoms: C13_17  and  O2_18 
REMARK    6  A    between atoms: C14_19  and  O3_20 
ROOT
HETATM    1  N3  UNL     1      22.672   0.986  51.071  1.00  0.00    -0.340 N 
HETATM    2  H7  UNL     1      22.646   0.333  50.265  1.00  0.00     0.167 HD
ENDROOT
BRANCH   1   3
HETATM    3  C7  UNL     1      22.205   0.380  52.236  1.00  0.00     0.142 A 
HETATM    4  N2  UNL     1      20.846   0.261  52.397  1.00  0.00    -0.224 NA
HETATM    5  C6  UNL     1      20.309  -0.322  53.482  1.00  0.00     0.236 A 
HETATM    6  N1  UNL     1      21.053  -0.840  54.508  1.00  0.00    -0.241 NA
HETATM    7  C5  UNL     1      22.404  -0.758  54.419  1.00  0.00     0.072 A 
HETATM    8  C4  UNL     1      23.215  -1.267  55.409  1.00  0.00     0.035 A 
HETATM    9  C17 UNL     1      22.872  -0.157  53.292  1.00  0.00     0.041 A 
HETATM   10  C3  UNL     1      24.602  -1.157  55.248  1.00  0.00     0.039 A 
HETATM   11  C2  UNL     1      25.177  -0.565  54.143  1.00  0.00     0.069 A 
HETATM   12  C18 UNL     1      24.259  -0.084  53.199  1.00  0.00     0.054 A 
BRANCH  11  13
HETATM   13  O1  UNL     1      26.527  -0.426  53.921  1.00  0.00    -0.356 OA
HETATM   14  C1  UNL     1      27.352   0.172  54.879  1.00  0.00     0.210 C 
ENDBRANCH  11  13
ENDBRANCH   1   3
BRANCH   1  15
HETATM   15  C8  UNL     1      23.136   2.357  51.006  1.00  0.00     0.036 A 
HETATM   16  C9  UNL     1      24.453   2.531  50.560  1.00  0.00     0.037 A 
HETATM   17  C10 UNL     1      24.866   3.871  50.468  1.00  0.00    -0.049 A 
HETATM   18  C11 UNL     1      26.274   4.014  49.988  1.00  0.00     0.049 C 
HETATM   19  C12 UNL     1      24.033   4.950  50.795  1.00  0.00     0.005 A 
HETATM   20  C14 UNL     1      22.784   4.581  51.214  1.00  0.00     0.079 A 
HETATM   21  C16 UNL     1      22.235   3.332  51.356  1.00  0.00     0.066 A 
BRANCH  19  22
HETATM   22  C13 UNL     1      24.551   6.318  50.662  1.00  0.00     0.206 C 
BRANCH  22  23
HETATM   23  O2  UNL     1      24.583   6.983  51.892  1.00  0.00    -0.396 OA
HETATM   24  H14 UNL     1      24.656   7.973  51.802  1.00  0.00     0.209 HD
ENDBRANCH  22  23
ENDBRANCH  19  22
BRANCH  20  25
HETATM   25  O3  UNL     1      22.048   5.746  51.511  1.00  0.00    -0.355 OA
HETATM   26  C15 UNL     1      20.935   6.020  50.688  1.00  0.00     0.210 C 
ENDBRANCH  20  25
ENDBRANCH   1  15
TORSDOF 6
ENDMDL
MODEL 5
REMARK VINA RESULT:      -7.2      3.129      6.857
REMARK  6 active torsions:
REMARK  status: ('A' for Active; 'I' for Inactive)
REMARK    1  A    between atoms: O1_2  and  C2_3 
REMARK    2  A    between atoms: C7_10  and  N3_11 
REMARK    3  A    between atoms: N3_11  and  C8_12 
REMARK    4  A    between atoms: C12_16  and  C13_17 
REMARK    5  A    between atoms: C13_17  and  O2_18 
REMARK    6  A    between atoms: C14_19  and  O3_20 
ROOT
HETATM    1  N3  UNL     1      22.028   2.922  52.500  1.00  0.00    -0.340 N 
HETATM    2  H7  UNL     1      22.014   3.765  53.105  1.00  0.00     0.167 HD
ENDROOT
BRANCH   1   3
HETATM    3  C7  UNL     1      23.028   3.002  51.534  1.00  0.00     0.142 A 
HETATM    4  N2  UNL     1      22.669   3.401  50.269  1.00  0.00    -0.224 NA
HETATM    5  C6  UNL     1      23.570   3.520  49.279  1.00  0.00     0.236 A 
HETATM    6  N1  UNL     1      24.905   3.258  49.438  1.00  0.00    -0.241 NA
HETATM    7  C5  UNL     1      25.335   2.859  50.661  1.00  0.00     0.072 A 
HETATM    8  C4  UNL     1      26.665   2.589  50.895  1.00  0.00     0.035 A 
HETATM    9  C17 UNL     1      24.365   2.764  51.610  1.00  0.00     0.041 A 
HETATM   10  C3  UNL     1      27.041   2.191  52.184  1.00  0.00     0.039 A 
HETATM   11  C2  UNL     1      26.135   2.063  53.216  1.00  0.00     0.069 A 
HETATM   12  C18 UNL     1      24.811   2.365  52.867  1.00  0.00     0.054 A 
BRANCH  11  13
HETATM   13  O1  UNL     1      26.436   1.680  54.502  1.00  0.00    -0.356 OA
HETATM   14  C1  UNL     1      26.519   0.327  54.844  1.00  0.00     0.210 C 
ENDBRANCH  11  13
ENDBRANCH   1   3
BRANCH   1  15
HETATM   15  C8  UNL     1      21.127   1.795  52.635  1.00  0.00     0.036 A 
HETATM   16  C9  UNL     1      21.609   0.721  53.394  1.00  0.00     0.037 A 
HETATM   17  C10 UNL     1      20.704  -0.342  53.544  1.00  0.00    -0.049 A 
HETATM   18  C11 UNL     1      21.255  -1.467  54.359  1.00  0.00     0.049 C 
HETATM   19  C12 UNL     1      19.419  -0.335  52.980  1.00  0.00     0.005 A 
HETATM   20  C14 UNL     1      19.130   0.798  52.272  1.00  0.00     0.079 A 
HETATM   21  C16 UNL     1      19.897   1.912  52.036  1.00  0.00     0.066 A 
BRANCH  19  22
HETATM   22  C13 UNL     1      18.538  -1.490  53.196  1.00  0.00     0.206 C 
BRANCH  22  23
HETATM   23  O2  UNL     1      17.412  -1.150  53.952  1.00  0.00    -0.396 OA
HETATM   24  H14 UNL     1      16.576  -1.587  53.631  1.00  0.00     0.209 HD
ENDBRANCH  22  23
ENDBRANCH  19  22
BRANCH  20  25
HETATM   25  O3  UNL     1      17.821   0.686  51.759  1.00  0.00    -0.355 OA
HETATM   26  C15 UNL     1      17.246   1.859  51.225  1.00  0.00     0.210 C 
ENDBRANCH  20  25
ENDBRANCH   1  15
TORSDOF 6
ENDMDL
MODEL 6
REMARK VINA RESULT:      -7.2      2.994      4.480
REMARK  6 active torsions:
REMARK  status: ('A' for Active; 'I' for Inactive)
REMARK    1  A    between atoms: O1_2  and  C2_3 
REMARK    2  A    between atoms: C7_10  and  N3_11 
REMARK    3  A    between atoms: N3_11  and  C8_12 
REMARK    4  A    between atoms: C12_16  and  C13_17 
REMARK    5  A    between atoms: C13_17  and  O2_18 
REMARK    6  A    between atoms: C14_19  and  O3_20 
ROOT
HETATM    1  N3  UNL     1      26.137   3.691  49.161  1.00  0.00    -0.340 N 
HETATM    2  H7  UNL     1      26.562   3.038  48.476  1.00  0.00     0.167 HD
ENDROOT
BRANCH   1   3
HETATM    3  C7  UNL     1      25.267   3.030  50.026  1.00  0.00     0.142 A 
HETATM    4  N2  UNL     1      23.938   2.973  49.681  1.00  0.00    -0.224 NA
HETATM    5  C6  UNL     1      23.032   2.344  50.449  1.00  0.00     0.236 A 
HETATM    6  N1  UNL     1      23.345   1.716  51.625  1.00  0.00    -0.241 NA
HETATM    7  C5  UNL     1      24.638   1.731  52.031  1.00  0.00     0.072 A 
HETATM    8  C4  UNL     1      25.026   1.111  53.198  1.00  0.00     0.035 A 
HETATM    9  C17 UNL     1      25.496   2.385  51.202  1.00  0.00     0.041 A 
HETATM   10  C3  UNL     1      26.379   1.157  53.553  1.00  0.00     0.039 A 
HETATM   11  C2  UNL     1      27.329   1.794  52.781  1.00  0.00     0.069 A 
HETATM   12  C18 UNL     1      26.824   2.389  51.616  1.00  0.00     0.054 A 
BRANCH  11  13
HETATM   13  O1  UNL     1      28.671   1.876  53.068  1.00  0.00    -0.356 OA
HETATM   14  C1  UNL     1      29.284   0.933  53.898  1.00  0.00     0.210 C 
ENDBRANCH  11  13
ENDBRANCH   1   3
BRANCH   1  15
HETATM   15  C8  UNL     1      26.407   5.113  49.222  1.00  0.00     0.036 A 
HETATM   16  C9  UNL     1      27.537   5.546  48.514  1.00  0.00     0.037 A 
HETATM   17  C10 UNL     1      27.756   6.933  48.555  1.00  0.00    -0.049 A 
HETATM   18  C11 UNL     1      28.968   7.354  47.789  1.00  0.00     0.049 C 
HETATM   19  C12 UNL     1      26.916   7.818  49.246  1.00  0.00     0.005 A 
HETATM   20  C14 UNL     1      25.867   7.208  49.878  1.00  0.00     0.079 A 
HETATM   21  C16 UNL     1      25.520   5.882  49.933  1.00  0.00     0.066 A 
BRANCH  19  22
HETATM   22  C13 UNL     1      27.221   9.254  49.228  1.00  0.00     0.206 C 
BRANCH  22  23
HETATM   23  O2  UNL     1      27.564   9.728  50.498  1.00  0.00    -0.396 OA
HETATM   24  H14 UNL     1      28.430  10.223  50.513  1.00  0.00     0.209 HD
ENDBRANCH  22  23
ENDBRANCH  19  22
BRANCH  20  25
HETATM   25  O3  UNL     1      25.102   8.195  50.532  1.00  0.00    -0.355 OA
HETATM   26  C15 UNL     1      23.706   8.156  50.326  1.00  0.00     0.210 C 
ENDBRANCH  20  25
ENDBRANCH   1  15
TORSDOF 6
ENDMDL
MODEL 7
REMARK VINA RESULT:      -7.1      2.283      3.338
REMARK  6 active torsions:
REMARK  status: ('A' for Active; 'I' for Inactive)
REMARK    1  A    between atoms: O1_2  and  C2_3 
REMARK    2  A    between atoms: C7_10  and  N3_11 
REMARK    3  A    between atoms: N3_11  and  C8_12 
REMARK    4  A    between atoms: C12_16  and  C13_17 
REMARK    5  A    between atoms: C13_17  and  O2_18 
REMARK    6  A    between atoms: C14_19  and  O3_20 
ROOT
HETATM    1  N3  UNL     1      26.093   3.583  49.406  1.00  0.00    -0.340 N 
HETATM    2  H7  UNL     1      25.937   2.983  48.574  1.00  0.00     0.167 HD
ENDROOT
BRANCH   1   3
HETATM    3  C7  UNL     1      26.008   2.849  50.588  1.00  0.00     0.142 A 
HETATM    4  N2  UNL     1      27.155   2.690  51.328  1.00  0.00    -0.224 NA
HETATM    5  C6  UNL     1      27.162   2.010  52.487  1.00  0.00     0.236 A 
HETATM    6  N1  UNL     1      26.048   1.423  53.026  1.00  0.00    -0.241 NA
HETATM    7  C5  UNL     1      24.878   1.539  52.350  1.00  0.00     0.072 A 
HETATM    8  C4  UNL     1      23.716   0.983  52.838  1.00  0.00     0.035 A 
HETATM    9  C17 UNL     1      24.950   2.241  51.188  1.00  0.00     0.041 A 
HETATM   10  C3  UNL     1      22.541   1.148  52.095  1.00  0.00     0.039 A 
HETATM   11  C2  UNL     1      22.508   1.843  50.904  1.00  0.00     0.069 A 
HETATM   12  C18 UNL     1      23.745   2.367  50.503  1.00  0.00     0.054 A 
BRANCH  11  13
HETATM   13  O1  UNL     1      21.392   2.045  50.125  1.00  0.00    -0.356 OA
HETATM   14  C1  UNL     1      20.355   1.107  50.106  1.00  0.00     0.210 C 
ENDBRANCH  11  13
ENDBRANCH   1   3
BRANCH   1  15
HETATM   15  C8  UNL     1      26.367   5.005  49.360  1.00  0.00     0.036 A 
HETATM   16  C9  UNL     1      27.483   5.382  48.600  1.00  0.00     0.037 A 
HETATM   17  C10 UNL     1      27.705   6.768  48.537  1.00  0.00    -0.049 A 
HETATM   18  C11 UNL     1      28.903   7.128  47.719  1.00  0.00     0.049 C 
HETATM   19  C12 UNL     1      26.881   7.703  49.180  1.00  0.00     0.005 A 
HETATM   20  C14 UNL     1      25.843   7.144  49.874  1.00  0.00     0.079 A 
HETATM   21  C16 UNL     1      25.495   5.825  50.030  1.00  0.00     0.066 A 
BRANCH  19  22
HETATM   22  C13 UNL     1      27.188   9.133  49.052  1.00  0.00     0.206 C 
BRANCH  22  23
HETATM   23  O2  UNL     1      27.542   9.699  50.280  1.00  0.00    -0.396 OA
HETATM   24  H14 UNL     1      27.094  10.573  50.455  1.00  0.00     0.209 HD
ENDBRANCH  22  23
ENDBRANCH  19  22
BRANCH  20  25
HETATM   25  O3  UNL     1      25.093   8.177  50.470  1.00  0.00    -0.355 OA
HETATM   26  C15 UNL     1      23.722   7.921  50.691  1.00  0.00     0.210 C 
ENDBRANCH  20  25
ENDBRANCH   1  15
TORSDOF 6
ENDMDL
MODEL 8
REMARK VINA RESULT:      -7.0      2.134      3.675
REMARK  6 active torsions:
REMARK  status: ('A' for Active; 'I' for Inactive)
REMARK    1  A    between atoms: O1_2  and  C2_3 
REMARK    2  A    between atoms: C7_10  and  N3_11 
REMARK    3  A    between atoms: N3_11  and  C8_12 
REMARK    4  A    between atoms: C12_16  and  C13_17 
REMARK    5  A    between atoms: C13_17  and  O2_18 
REMARK    6  A    between atoms: C14_19  and  O3_20 
ROOT
HETATM    1  N3  UNL     1      25.874   3.366  49.663  1.00  0.00    -0.340 N 
HETATM    2  H7  UNL     1      25.747   2.751  48.837  1.00  0.00     0.167 HD
ENDROOT
BRANCH   1   3
HETATM    3  C7  UNL     1      25.986   2.627  50.840  1.00  0.00     0.142 A 
HETATM    4  N2  UNL     1      27.208   2.597  51.465  1.00  0.00    -0.224 NA
HETATM    5  C6  UNL     1      27.402   1.922  52.611  1.00  0.00     0.236 A 
HETATM    6  N1  UNL     1      26.417   1.214  53.247  1.00  0.00    -0.241 NA
HETATM    7  C5  UNL     1      25.182   1.198  52.687  1.00  0.00     0.072 A 
HETATM    8  C4  UNL     1      24.142   0.515  53.277  1.00  0.00     0.035 A 
HETATM    9  C17 UNL     1      25.064   1.905  51.531  1.00  0.00     0.041 A 
HETATM   10  C3  UNL     1      22.890   0.549  52.651  1.00  0.00     0.039 A 
HETATM   11  C2  UNL     1      22.665   1.236  51.476  1.00  0.00     0.069 A 
HETATM   12  C18 UNL     1      23.792   1.895  50.965  1.00  0.00     0.054 A 
BRANCH  11  13
HETATM   13  O1  UNL     1      21.465   1.311  50.810  1.00  0.00    -0.356 OA
HETATM   14  C1  UNL     1      21.365   1.986  49.589  1.00  0.00     0.210 C 
ENDBRANCH  11  13
ENDBRANCH   1   3
BRANCH   1  15
HETATM   15  C8  UNL     1      25.933   4.813  49.613  1.00  0.00     0.036 A 
HETATM   16  C9  UNL     1      24.910   5.485  50.297  1.00  0.00     0.037 A 
HETATM   17  C10 UNL     1      25.010   6.886  50.268  1.00  0.00    -0.049 A 
HETATM   18  C11 UNL     1      23.903   7.564  51.006  1.00  0.00     0.049 C 
HETATM   19  C12 UNL     1      26.047   7.563  49.610  1.00  0.00     0.005 A 
HETATM   20  C14 UNL     1      26.950   6.737  48.998  1.00  0.00     0.079 A 
HETATM   21  C16 UNL     1      26.991   5.367  48.936  1.00  0.00     0.066 A 
BRANCH  19  22
HETATM   22  C13 UNL     1      26.073   9.031  49.639  1.00  0.00     0.206 C 
BRANCH  22  23
HETATM   23  O2  UNL     1      26.918   9.515  50.643  1.00  0.00    -0.396 OA
HETATM   24  H14 UNL     1      27.525  10.242  50.331  1.00  0.00     0.209 HD
ENDBRANCH  22  23
ENDBRANCH  19  22
BRANCH  20  25
HETATM   25  O3  UNL     1      27.936   7.530  48.377  1.00  0.00    -0.355 OA
HETATM   26  C15 UNL     1      28.986   6.845  47.728  1.00  0.00     0.210 C 
ENDBRANCH  20  25
ENDBRANCH   1  15
TORSDOF 6
ENDMDL
MODEL 9
REMARK VINA RESULT:      -6.9      5.171      8.730
REMARK  6 active torsions:
REMARK  status: ('A' for Active; 'I' for Inactive)
REMARK    1  A    between atoms: O1_2  and  C2_3 
REMARK    2  A    between atoms: C7_10  and  N3_11 
REMARK    3  A    between atoms: N3_11  and  C8_12 
REMARK    4  A    between atoms: C12_16  and  C13_17 
REMARK    5  A    between atoms: C13_17  and  O2_18 
REMARK    6  A    between atoms: C14_19  and  O3_20 
ROOT
HETATM    1  N3  UNL     1      28.527   6.779  47.568  1.00  0.00    -0.340 N 
HETATM    2  H7  UNL     1      28.546   6.953  46.546  1.00  0.00     0.167 HD
ENDROOT
BRANCH   1   3
HETATM    3  C7  UNL     1      29.728   7.147  48.172  1.00  0.00     0.142 A 
HETATM    4  N2  UNL     1      29.768   8.344  48.845  1.00  0.00    -0.224 NA
HETATM    5  C6  UNL     1      30.880   8.770  49.469  1.00  0.00     0.236 A 
HETATM    6  N1  UNL     1      32.052   8.064  49.489  1.00  0.00    -0.241 NA
HETATM    7  C5  UNL     1      32.089   6.871  48.845  1.00  0.00     0.072 A 
HETATM    8  C4  UNL     1      33.232   6.102  48.832  1.00  0.00     0.035 A 
HETATM    9  C17 UNL     1      30.926   6.507  48.240  1.00  0.00     0.041 A 
HETATM   10  C3  UNL     1      33.196   4.877  48.157  1.00  0.00     0.039 A 
HETATM   11  C2  UNL     1      32.067   4.417  47.511  1.00  0.00     0.069 A 
HETATM   12  C18 UNL     1      30.963   5.277  47.588  1.00  0.00     0.054 A 
BRANCH  11  13
HETATM   13  O1  UNL     1      31.963   3.226  46.832  1.00  0.00    -0.356 OA
HETATM   14  C1  UNL     1      32.895   2.203  47.033  1.00  0.00     0.210 C 
ENDBRANCH  11  13
ENDBRANCH   1   3
BRANCH   1  15
HETATM   15  C8  UNL     1      27.399   6.227  48.291  1.00  0.00     0.036 A 
HETATM   16  C9  UNL     1      27.520   4.881  48.666  1.00  0.00     0.037 A 
HETATM   17  C10 UNL     1      26.432   4.379  49.399  1.00  0.00    -0.049 A 
HETATM   18  C11 UNL     1      26.600   2.944  49.780  1.00  0.00     0.049 C 
HETATM   19  C12 UNL     1      25.313   5.156  49.732  1.00  0.00     0.005 A 
HETATM   20  C14 UNL     1      25.375   6.444  49.276  1.00  0.00     0.079 A 
HETATM   21  C16 UNL     1      26.356   7.079  48.556  1.00  0.00     0.066 A 
BRANCH  19  22
HETATM   22  C13 UNL     1      24.225   4.546  50.508  1.00  0.00     0.206 C 
BRANCH  22  23
HETATM   23  O2  UNL     1      24.283   4.911  51.857  1.00  0.00    -0.396 OA
HETATM   24  H14 UNL     1      23.559   4.501  52.406  1.00  0.00     0.209 HD
ENDBRANCH  22  23
ENDBRANCH  19  22
BRANCH  20  25
HETATM   25  O3  UNL     1      24.202   7.118  49.671  1.00  0.00    -0.355 OA
HETATM   26  C15 UNL     1      24.366   8.241  50.510  1.00  0.00     0.210 C 
ENDBRANCH  20  25
ENDBRANCH   1  15
TORSDOF 6
ENDMDL
