MODEL 1
REMARK VINA RESULT:      -6.9      0.000      0.000
REMARK  7 active torsions:
REMARK  status: ('A' for Active; 'I' for Inactive)
REMARK    1  A    between atoms: C2_2  and  O1_3 
REMARK    2  A    between atoms: O1_3  and  C3_4 
REMARK    3  A    between atoms: N1_7  and  C6_8 
REMARK    4  A    between atoms: C11_15  and  N3_16 
REMARK       I    between atoms: N3_16  and  C12_17 
REMARK    5  A    between atoms: C12_17  and  C13_19 
REMARK    6  A    between atoms: C14_20  and  C15_21 
REMARK    7  A    between atoms: C15_21  and  N4_22 
ROOT
HETATM    1  C6  UNL     1      22.198  -0.737  53.123  1.00  0.00     0.170 C 
HETATM    2  C7  UNL     1      21.320  -0.664  54.082  1.00  0.00     0.213 C 
HETATM    3  F1  UNL     1      21.741  -0.513  55.348  1.00  0.00    -0.193 F 
HETATM    4  C8  UNL     1      19.945  -0.753  53.687  1.00  0.00     0.132 C 
HETATM    5  N2  UNL     1      18.819  -0.825  53.385  1.00  0.00    -0.189 NA
ENDROOT
BRANCH   1   6
HETATM    6  N1  UNL     1      23.608  -0.684  53.164  1.00  0.00    -0.261 NA
HETATM    7  C5  UNL     1      24.290   0.314  52.709  1.00  0.00     0.040 A 
HETATM    8  C4  UNL     1      25.749   0.307  52.780  1.00  0.00     0.066 A 
HETATM    9  C9  UNL     1      23.519   1.449  52.119  1.00  0.00     0.088 A 
HETATM   10  C3  UNL     1      26.392   1.360  52.297  1.00  0.00     0.097 A 
HETATM   11  C11 UNL     1      25.712   2.511  51.703  1.00  0.00     0.065 A 
HETATM   12  C10 UNL     1      24.388   2.525  51.635  1.00  0.00     0.012 A 
BRANCH  10  13
HETATM   13  O1  UNL     1      27.768   1.357  52.363  1.00  0.00    -0.349 OA
BRANCH  13  14
HETATM   14  C2  UNL     1      28.486   1.301  53.574  1.00  0.00     0.171 C 
HETATM   15  C1  UNL     1      29.405   0.111  53.501  1.00  0.00     0.034 C 
ENDBRANCH  13  14
ENDBRANCH  10  13
BRANCH  11  16
HETATM   16  N3  UNL     1      26.498   3.607  51.206  1.00  0.00    -0.321 N 
HETATM   17  C12 UNL     1      26.413   3.737  49.812  1.00  0.00     0.245 C 
HETATM   18  O2  UNL     1      25.694   2.923  49.177  1.00  0.00    -0.268 OA
HETATM   19  H11 UNL     1      27.071   4.242  51.799  1.00  0.00     0.169 HD
BRANCH  17  20
HETATM   20  C13 UNL     1      27.131   4.784  49.097  1.00  0.00     0.072 C 
HETATM   21  C14 UNL     1      26.539   5.831  48.599  1.00  0.00     0.008 C 
BRANCH  21  22
HETATM   22  C15 UNL     1      27.250   6.911  47.865  1.00  0.00     0.299 C 
BRANCH  22  23
HETATM   23  N4  UNL     1      28.459   7.238  48.570  1.00  0.00     0.083 N 
HETATM   24  C16 UNL     1      29.652   6.936  47.814  1.00  0.00     0.309 C 
HETATM   25  C17 UNL     1      28.439   8.567  49.122  1.00  0.00     0.309 C 
ENDBRANCH  22  23
ENDBRANCH  21  22
ENDBRANCH  17  20
ENDBRANCH  11  16
ENDBRANCH   1   6
TORSDOF 7
ENDMDL
MODEL 2
REMARK VINA RESULT:      -6.7      4.283      8.620
REMARK  7 active torsions:
REMARK  status: ('A' for Active; 'I' for Inactive)
REMARK    1  A    between atoms: C2_2  and  O1_3 
REMARK    2  A    between atoms: O1_3  and  C3_4 
REMARK    3  A    between atoms: N1_7  and  C6_8 
REMARK    4  A    between atoms: C11_15  and  N3_16 
REMARK       I    between atoms: N3_16  and  C12_17 
REMARK    5  A    between atoms: C12_17  and  C13_19 
REMARK    6  A    between atoms: C14_20  and  C15_21 
REMARK    7  A    between atoms: C15_21  and  N4_22 
ROOT
HETATM    1  C6  UNL     1      27.605   1.126  52.882  1.00  0.00     0.170 C 
HETATM    2  C7  UNL     1      28.709   1.226  53.565  1.00  0.00     0.213 C 
HETATM    3  F1  UNL     1      29.022   2.400  54.137  1.00  0.00    -0.193 F 
HETATM    4  C8  UNL     1      29.511   0.041  53.648  1.00  0.00     0.132 C 
HETATM    5  N2  UNL     1      30.179  -0.915  53.726  1.00  0.00    -0.189 NA
ENDROOT
BRANCH   1   6
HETATM    6  N1  UNL     1      26.604   2.082  52.608  1.00  0.00    -0.261 NA
HETATM    7  C5  UNL     1      25.342   1.840  52.738  1.00  0.00     0.040 A 
HETATM    8  C4  UNL     1      24.356   2.875  52.437  1.00  0.00     0.066 A 
HETATM    9  C9  UNL     1      24.958   0.473  53.200  1.00  0.00     0.088 A 
HETATM   10  C3  UNL     1      23.076   2.567  52.589  1.00  0.00     0.097 A 
HETATM   11  C11 UNL     1      22.617   1.251  53.038  1.00  0.00     0.065 A 
HETATM   12  C10 UNL     1      23.506   0.307  53.312  1.00  0.00     0.012 A 
BRANCH  10  13
HETATM   13  O1  UNL     1      22.143   3.540  52.307  1.00  0.00    -0.349 OA
BRANCH  13  14
HETATM   14  C2  UNL     1      22.128   4.273  51.105  1.00  0.00     0.171 C 
HETATM   15  C1  UNL     1      21.477   3.411  50.056  1.00  0.00     0.034 C 
ENDBRANCH  13  14
ENDBRANCH  10  13
BRANCH  11  16
HETATM   16  N3  UNL     1      21.207   1.012  53.172  1.00  0.00    -0.321 N 
HETATM   17  C12 UNL     1      20.664   0.369  52.050  1.00  0.00     0.245 C 
HETATM   18  O2  UNL     1      21.430   0.085  51.094  1.00  0.00    -0.268 OA
HETATM   19  H11 UNL     1      20.637   1.280  54.002  1.00  0.00     0.169 HD
BRANCH  17  20
HETATM   20  C13 UNL     1      19.249   0.030  51.974  1.00  0.00     0.072 C 
HETATM   21  C14 UNL     1      18.510   0.318  50.942  1.00  0.00     0.008 C 
BRANCH  21  22
HETATM   22  C15 UNL     1      17.065  -0.017  50.842  1.00  0.00     0.299 C 
BRANCH  22  23
HETATM   23  N4  UNL     1      16.353   0.658  51.892  1.00  0.00     0.083 N 
HETATM   24  C16 UNL     1      15.714   1.876  51.447  1.00  0.00     0.309 C 
HETATM   25  C17 UNL     1      15.486  -0.219  52.631  1.00  0.00     0.309 C 
ENDBRANCH  22  23
ENDBRANCH  21  22
ENDBRANCH  17  20
ENDBRANCH  11  16
ENDBRANCH   1   6
TORSDOF 7
ENDMDL
MODEL 3
REMARK VINA RESULT:      -6.7      4.745      8.311
REMARK  7 active torsions:
REMARK  status: ('A' for Active; 'I' for Inactive)
REMARK    1  A    between atoms: C2_2  and  O1_3 
REMARK    2  A    between atoms: O1_3  and  C3_4 
REMARK    3  A    between atoms: N1_7  and  C6_8 
REMARK    4  A    between atoms: C11_15  and  N3_16 
REMARK       I    between atoms: N3_16  and  C12_17 
REMARK    5  A    between atoms: C12_17  and  C13_19 
REMARK    6  A    between atoms: C14_20  and  C15_21 
REMARK    7  A    between atoms: C15_21  and  N4_22 
ROOT
HETATM    1  C6  UNL     1      26.355   0.817  54.203  1.00  0.00     0.170 C 
HETATM    2  C7  UNL     1      27.591   0.434  54.054  1.00  0.00     0.213 C 
HETATM    3  F1  UNL     1      27.845  -0.810  53.618  1.00  0.00    -0.193 F 
HETATM    4  C8  UNL     1      28.596   1.403  54.378  1.00  0.00     0.132 C 
HETATM    5  N2  UNL     1      29.430   2.179  54.638  1.00  0.00    -0.189 NA
ENDROOT
BRANCH   1   6
HETATM    6  N1  UNL     1      25.146   0.126  53.977  1.00  0.00    -0.261 NA
HETATM    7  C5  UNL     1      24.182   0.604  53.263  1.00  0.00     0.040 A 
HETATM    8  C4  UNL     1      22.954  -0.164  53.068  1.00  0.00     0.066 A 
HETATM    9  C9  UNL     1      24.390   1.955  52.662  1.00  0.00     0.088 A 
HETATM   10  C3  UNL     1      22.002   0.380  52.324  1.00  0.00     0.097 A 
HETATM   11  C11 UNL     1      22.126   1.699  51.701  1.00  0.00     0.065 A 
HETATM   12  C10 UNL     1      23.237   2.401  51.874  1.00  0.00     0.012 A 
BRANCH  10  13
HETATM   13  O1  UNL     1      20.843  -0.340  52.138  1.00  0.00    -0.349 OA
BRANCH  13  14
HETATM   14  C2  UNL     1      19.831  -0.445  53.113  1.00  0.00     0.171 C 
HETATM   15  C1  UNL     1      18.506  -0.353  52.403  1.00  0.00     0.034 C 
ENDBRANCH  13  14
ENDBRANCH  10  13
BRANCH  11  16
HETATM   16  N3  UNL     1      21.037   2.203  50.912  1.00  0.00    -0.321 N 
HETATM   17  C12 UNL     1      20.126   2.950  51.673  1.00  0.00     0.245 C 
HETATM   18  O2  UNL     1      20.348   3.092  52.904  1.00  0.00    -0.268 OA
HETATM   19  H11 UNL     1      20.922   2.043  49.890  1.00  0.00     0.169 HD
BRANCH  17  20
HETATM   20  C13 UNL     1      18.945   3.557  51.073  1.00  0.00     0.072 C 
HETATM   21  C14 UNL     1      17.804   3.641  51.693  1.00  0.00     0.008 C 
BRANCH  21  22
HETATM   22  C15 UNL     1      16.586   4.255  51.102  1.00  0.00     0.299 C 
BRANCH  22  23
HETATM   23  N4  UNL     1      15.424   3.661  51.704  1.00  0.00     0.083 N 
HETATM   24  C16 UNL     1      15.388   2.224  51.564  1.00  0.00     0.309 C 
HETATM   25  C17 UNL     1      15.196   4.122  53.048  1.00  0.00     0.309 C 
ENDBRANCH  22  23
ENDBRANCH  21  22
ENDBRANCH  17  20
ENDBRANCH  11  16
ENDBRANCH   1   6
TORSDOF 7
ENDMDL
MODEL 4
REMARK VINA RESULT:      -6.6      2.288      3.845
REMARK  7 active torsions:
REMARK  status: ('A' for Active; 'I' for Inactive)
REMARK    1  A    between atoms: C2_2  and  O1_3 
REMARK    2  A    between atoms: O1_3  and  C3_4 
REMARK    3  A    between atoms: N1_7  and  C6_8 
REMARK    4  A    between atoms: C11_15  and  N3_16 
REMARK       I    between atoms: N3_16  and  C12_17 
REMARK    5  A    between atoms: C12_17  and  C13_19 
REMARK    6  A    between atoms: C14_20  and  C15_21 
REMARK    7  A    between atoms: C15_21  and  N4_22 
ROOT
HETATM    1  C6  UNL     1      22.416  -0.088  52.704  1.00  0.00     0.170 C 
HETATM    2  C7  UNL     1      21.804  -0.097  53.854  1.00  0.00     0.213 C 
HETATM    3  F1  UNL     1      20.753   0.716  54.044  1.00  0.00    -0.193 F 
HETATM    4  C8  UNL     1      22.321  -1.001  54.838  1.00  0.00     0.132 C 
HETATM    5  N2  UNL     1      22.730  -1.730  55.654  1.00  0.00    -0.189 NA
ENDROOT
BRANCH   1   6
HETATM    6  N1  UNL     1      22.168   0.666  51.538  1.00  0.00    -0.261 NA
HETATM    7  C5  UNL     1      22.962   1.592  51.114  1.00  0.00     0.040 A 
HETATM    8  C4  UNL     1      22.647   2.338  49.898  1.00  0.00     0.066 A 
HETATM    9  C9  UNL     1      24.192   1.852  51.921  1.00  0.00     0.088 A 
HETATM   10  C3  UNL     1      23.501   3.275  49.514  1.00  0.00     0.097 A 
HETATM   11  C11 UNL     1      24.728   3.591  50.248  1.00  0.00     0.065 A 
HETATM   12  C10 UNL     1      25.020   2.919  51.352  1.00  0.00     0.012 A 
BRANCH  10  13
HETATM   13  O1  UNL     1      23.209   3.980  48.368  1.00  0.00    -0.349 OA
BRANCH  13  14
HETATM   14  C2  UNL     1      21.993   4.664  48.169  1.00  0.00     0.171 C 
HETATM   15  C1  UNL     1      22.163   6.058  48.712  1.00  0.00     0.034 C 
ENDBRANCH  13  14
ENDBRANCH  10  13
BRANCH  11  16
HETATM   16  N3  UNL     1      25.592   4.626  49.751  1.00  0.00    -0.321 N 
HETATM   17  C12 UNL     1      26.781   4.116  49.211  1.00  0.00     0.245 C 
HETATM   18  O2  UNL     1      26.957   2.870  49.218  1.00  0.00    -0.268 OA
HETATM   19  H11 UNL     1      25.375   5.644  49.781  1.00  0.00     0.169 HD
BRANCH  17  20
HETATM   20  C13 UNL     1      27.802   4.990  48.649  1.00  0.00     0.072 C 
HETATM   21  C14 UNL     1      27.630   6.272  48.503  1.00  0.00     0.008 C 
BRANCH  21  22
HETATM   22  C15 UNL     1      28.656   7.184  47.932  1.00  0.00     0.299 C 
BRANCH  22  23
HETATM   23  N4  UNL     1      28.516   8.482  48.533  1.00  0.00     0.083 N 
HETATM   24  C16 UNL     1      27.333   8.597  49.355  1.00  0.00     0.309 C 
HETATM   25  C17 UNL     1      29.720   8.929  49.180  1.00  0.00     0.309 C 
ENDBRANCH  22  23
ENDBRANCH  21  22
ENDBRANCH  17  20
ENDBRANCH  11  16
ENDBRANCH   1   6
TORSDOF 7
ENDMDL
MODEL 5
REMARK VINA RESULT:      -6.4      3.085      8.674
REMARK  7 active torsions:
REMARK  status: ('A' for Active; 'I' for Inactive)
REMARK    1  A    between atoms: C2_2  and  O1_3 
REMARK    2  A    between atoms: O1_3  and  C3_4 
REMARK    3  A    between atoms: N1_7  and  C6_8 
REMARK    4  A    between atoms: C11_15  and  N3_16 
REMARK       I    between atoms: N3_16  and  C12_17 
REMARK    5  A    between atoms: C12_17  and  C13_19 
REMARK    6  A    between atoms: C14_20  and  C15_21 
REMARK    7  A    between atoms: C15_21  and  N4_22 
ROOT
HETATM    1  C6  UNL     1      27.078   5.323  48.775  1.00  0.00     0.170 C 
HETATM    2  C7  UNL     1      27.979   6.063  48.197  1.00  0.00     0.213 C 
HETATM    3  F1  UNL     1      29.239   5.608  48.099  1.00  0.00    -0.193 F 
HETATM    4  C8  UNL     1      27.533   7.333  47.704  1.00  0.00     0.132 C 
HETATM    5  N2  UNL     1      27.187   8.372  47.296  1.00  0.00    -0.189 NA
ENDROOT
BRANCH   1   6
HETATM    6  N1  UNL     1      27.179   4.041  49.360  1.00  0.00    -0.261 NA
HETATM    7  C5  UNL     1      26.304   3.572  50.185  1.00  0.00     0.040 A 
HETATM    8  C4  UNL     1      26.467   2.236  50.755  1.00  0.00     0.066 A 
HETATM    9  C9  UNL     1      25.143   4.451  50.516  1.00  0.00     0.088 A 
HETATM   10  C3  UNL     1      25.536   1.810  51.595  1.00  0.00     0.097 A 
HETATM   11  C11 UNL     1      24.369   2.609  51.972  1.00  0.00     0.065 A 
HETATM   12  C10 UNL     1      24.214   3.821  51.458  1.00  0.00     0.012 A 
BRANCH  10  13
HETATM   13  O1  UNL     1      25.686   0.551  52.135  1.00  0.00    -0.349 OA
BRANCH  13  14
HETATM   14  C2  UNL     1      26.908  -0.149  52.138  1.00  0.00     0.171 C 
HETATM   15  C1  UNL     1      26.704  -1.414  52.928  1.00  0.00     0.034 C 
ENDBRANCH  13  14
ENDBRANCH  10  13
BRANCH  11  16
HETATM   16  N3  UNL     1      23.413   2.058  52.892  1.00  0.00    -0.321 N 
HETATM   17  C12 UNL     1      22.430   1.293  52.247  1.00  0.00     0.245 C 
HETATM   18  O2  UNL     1      22.486   1.177  50.995  1.00  0.00    -0.268 OA
HETATM   19  H11 UNL     1      23.433   2.200  53.923  1.00  0.00     0.169 HD
BRANCH  17  20
HETATM   20  C13 UNL     1      21.360   0.640  52.989  1.00  0.00     0.072 C 
HETATM   21  C14 UNL     1      20.323   0.108  52.411  1.00  0.00     0.008 C 
BRANCH  21  22
HETATM   22  C15 UNL     1      19.219  -0.562  53.147  1.00  0.00     0.299 C 
BRANCH  22  23
HETATM   23  N4  UNL     1      18.099  -0.728  52.262  1.00  0.00     0.083 N 
HETATM   24  C16 UNL     1      16.996  -1.432  52.874  1.00  0.00     0.309 C 
HETATM   25  C17 UNL     1      17.719   0.497  51.609  1.00  0.00     0.309 C 
ENDBRANCH  22  23
ENDBRANCH  21  22
ENDBRANCH  17  20
ENDBRANCH  11  16
ENDBRANCH   1   6
TORSDOF 7
ENDMDL
MODEL 6
REMARK VINA RESULT:      -6.3      3.887      6.046
REMARK  7 active torsions:
REMARK  status: ('A' for Active; 'I' for Inactive)
REMARK    1  A    between atoms: C2_2  and  O1_3 
REMARK    2  A    between atoms: O1_3  and  C3_4 
REMARK    3  A    between atoms: N1_7  and  C6_8 
REMARK    4  A    between atoms: C11_15  and  N3_16 
REMARK       I    between atoms: N3_16  and  C12_17 
REMARK    5  A    between atoms: C12_17  and  C13_19 
REMARK    6  A    between atoms: C14_20  and  C15_21 
REMARK    7  A    between atoms: C15_21  and  N4_22 
ROOT
HETATM    1  C6  UNL     1      26.718  -0.451  53.783  1.00  0.00     0.170 C 
HETATM    2  C7  UNL     1      27.540  -1.217  53.125  1.00  0.00     0.213 C 
HETATM    3  F1  UNL     1      27.046  -2.170  52.318  1.00  0.00    -0.193 F 
HETATM    4  C8  UNL     1      28.937  -0.967  53.328  1.00  0.00     0.132 C 
HETATM    5  N2  UNL     1      30.080  -0.778  53.481  1.00  0.00    -0.189 NA
ENDROOT
BRANCH   1   6
HETATM    6  N1  UNL     1      25.307  -0.428  53.812  1.00  0.00    -0.261 NA
HETATM    7  C5  UNL     1      24.601   0.413  53.133  1.00  0.00     0.040 A 
HETATM    8  C4  UNL     1      23.142   0.384  53.207  1.00  0.00     0.066 A 
HETATM    9  C9  UNL     1      25.344   1.395  52.287  1.00  0.00     0.088 A 
HETATM   10  C3  UNL     1      22.473   1.272  52.486  1.00  0.00     0.097 A 
HETATM   11  C11 UNL     1      23.125   2.268  51.633  1.00  0.00     0.065 A 
HETATM   12  C10 UNL     1      24.448   2.300  51.561  1.00  0.00     0.012 A 
BRANCH  10  13
HETATM   13  O1  UNL     1      21.098   1.248  52.553  1.00  0.00    -0.349 OA
BRANCH  13  14
HETATM   14  C2  UNL     1      20.378   0.379  53.397  1.00  0.00     0.171 C 
HETATM   15  C1  UNL     1      19.199  -0.136  52.617  1.00  0.00     0.034 C 
ENDBRANCH  13  14
ENDBRANCH  10  13
BRANCH  11  16
HETATM   16  N3  UNL     1      22.313   3.190  50.889  1.00  0.00    -0.321 N 
HETATM   17  C12 UNL     1      22.150   4.415  51.553  1.00  0.00     0.245 C 
HETATM   18  O2  UNL     1      22.704   4.568  52.672  1.00  0.00    -0.268 OA
HETATM   19  H11 UNL     1      21.886   2.988  49.962  1.00  0.00     0.169 HD
BRANCH  17  20
HETATM   20  C13 UNL     1      21.362   5.497  50.978  1.00  0.00     0.072 C 
HETATM   21  C14 UNL     1      21.824   6.705  50.834  1.00  0.00     0.008 C 
BRANCH  21  22
HETATM   22  C15 UNL     1      21.039   7.825  50.250  1.00  0.00     0.299 C 
BRANCH  22  23
HETATM   23  N4  UNL     1      21.819   8.456  49.221  1.00  0.00     0.083 N 
HETATM   24  C16 UNL     1      23.233   8.478  49.519  1.00  0.00     0.309 C 
HETATM   25  C17 UNL     1      21.507   7.965  47.906  1.00  0.00     0.309 C 
ENDBRANCH  22  23
ENDBRANCH  21  22
ENDBRANCH  17  20
ENDBRANCH  11  16
ENDBRANCH   1   6
TORSDOF 7
ENDMDL
MODEL 7
REMARK VINA RESULT:      -6.1      3.984      5.976
REMARK  7 active torsions:
REMARK  status: ('A' for Active; 'I' for Inactive)
REMARK    1  A    between atoms: C2_2  and  O1_3 
REMARK    2  A    between atoms: O1_3  and  C3_4 
REMARK    3  A    between atoms: N1_7  and  C6_8 
REMARK    4  A    between atoms: C11_15  and  N3_16 
REMARK       I    between atoms: N3_16  and  C12_17 
REMARK    5  A    between atoms: C12_17  and  C13_19 
REMARK    6  A    between atoms: C14_20  and  C15_21 
REMARK    7  A    between atoms: C15_21  and  N4_22 
ROOT
HETATM    1  C6  UNL     1      27.254   0.848  53.887  1.00  0.00     0.170 C 
HETATM    2  C7  UNL     1      28.520   1.142  53.979  1.00  0.00     0.213 C 
HETATM    3  F1  UNL     1      28.885   2.419  54.174  1.00  0.00    -0.193 F 
HETATM    4  C8  UNL     1      29.433   0.044  53.860  1.00  0.00     0.132 C 
HETATM    5  N2  UNL     1      30.193  -0.839  53.764  1.00  0.00    -0.189 NA
ENDROOT
BRANCH   1   6
HETATM    6  N1  UNL     1      26.112   1.675  53.959  1.00  0.00    -0.261 NA
HETATM    7  C5  UNL     1      25.610   2.276  52.933  1.00  0.00     0.040 A 
HETATM    8  C4  UNL     1      24.425   3.119  53.076  1.00  0.00     0.066 A 
HETATM    9  C9  UNL     1      26.294   2.065  51.622  1.00  0.00     0.088 A 
HETATM   10  C3  UNL     1      23.957   3.709  51.985  1.00  0.00     0.097 A 
HETATM   11  C11 UNL     1      24.568   3.554  50.665  1.00  0.00     0.065 A 
HETATM   12  C10 UNL     1      25.643   2.791  50.528  1.00  0.00     0.012 A 
BRANCH  10  13
HETATM   13  O1  UNL     1      22.840   4.504  52.115  1.00  0.00    -0.349 OA
BRANCH  13  14
HETATM   14  C2  UNL     1      21.532   3.991  52.226  1.00  0.00     0.171 C 
HETATM   15  C1  UNL     1      20.748   4.489  51.042  1.00  0.00     0.034 C 
ENDBRANCH  13  14
ENDBRANCH  10  13
BRANCH  11  16
HETATM   16  N3  UNL     1      23.986   4.235  49.542  1.00  0.00    -0.321 N 
HETATM   17  C12 UNL     1      24.564   5.495  49.322  1.00  0.00     0.245 C 
HETATM   18  O2  UNL     1      25.483   5.875  50.092  1.00  0.00    -0.268 OA
HETATM   19  H11 UNL     1      23.222   3.852  48.948  1.00  0.00     0.169 HD
BRANCH  17  20
HETATM   20  C13 UNL     1      24.124   6.357  48.233  1.00  0.00     0.072 C 
HETATM   21  C14 UNL     1      22.934   6.284  47.712  1.00  0.00     0.008 C 
BRANCH  21  22
HETATM   22  C15 UNL     1      22.464   7.153  46.601  1.00  0.00     0.299 C 
BRANCH  22  23
HETATM   23  N4  UNL     1      22.757   6.511  45.349  1.00  0.00     0.083 N 
HETATM   24  C16 UNL     1      21.947   5.337  45.113  1.00  0.00     0.309 C 
HETATM   25  C17 UNL     1      22.784   7.432  44.244  1.00  0.00     0.309 C 
ENDBRANCH  22  23
ENDBRANCH  21  22
ENDBRANCH  17  20
ENDBRANCH  11  16
ENDBRANCH   1   6
TORSDOF 7
ENDMDL
MODEL 8
REMARK VINA RESULT:      -6.1      3.492      9.064
REMARK  7 active torsions:
REMARK  status: ('A' for Active; 'I' for Inactive)
REMARK    1  A    between atoms: C2_2  and  O1_3 
REMARK    2  A    between atoms: O1_3  and  C3_4 
REMARK    3  A    between atoms: N1_7  and  C6_8 
REMARK    4  A    between atoms: C11_15  and  N3_16 
REMARK       I    between atoms: N3_16  and  C12_17 
REMARK    5  A    between atoms: C12_17  and  C13_19 
REMARK    6  A    between atoms: C14_20  and  C15_21 
REMARK    7  A    between atoms: C15_21  and  N4_22 
ROOT
HETATM    1  C6  UNL     1      25.721   4.357  50.126  1.00  0.00     0.170 C 
HETATM    2  C7  UNL     1      26.527   4.810  49.210  1.00  0.00     0.213 C 
HETATM    3  F1  UNL     1      27.488   4.008  48.725  1.00  0.00    -0.193 F 
HETATM    4  C8  UNL     1      26.309   6.163  48.790  1.00  0.00     0.132 C 
HETATM    5  N2  UNL     1      26.147   7.265  48.436  1.00  0.00    -0.189 NA
ENDROOT
BRANCH   1   6
HETATM    6  N1  UNL     1      25.659   3.092  50.751  1.00  0.00    -0.261 NA
HETATM    7  C5  UNL     1      24.581   2.618  51.280  1.00  0.00     0.040 A 
HETATM    8  C4  UNL     1      24.585   1.301  51.912  1.00  0.00     0.066 A 
HETATM    9  C9  UNL     1      23.359   3.473  51.209  1.00  0.00     0.088 A 
HETATM   10  C3  UNL     1      23.447   0.869  52.437  1.00  0.00     0.097 A 
HETATM   11  C11 UNL     1      22.206   1.646  52.410  1.00  0.00     0.065 A 
HETATM   12  C10 UNL     1      22.196   2.841  51.838  1.00  0.00     0.012 A 
BRANCH  10  13
HETATM   13  O1  UNL     1      23.446  -0.372  53.034  1.00  0.00    -0.349 OA
BRANCH  13  14
HETATM   14  C2  UNL     1      23.943  -0.608  54.331  1.00  0.00     0.171 C 
HETATM   15  C1  UNL     1      22.827  -1.208  55.143  1.00  0.00     0.034 C 
ENDBRANCH  13  14
ENDBRANCH  10  13
BRANCH  11  16
HETATM   16  N3  UNL     1      21.023   1.091  53.007  1.00  0.00    -0.321 N 
HETATM   17  C12 UNL     1      20.298   0.291  52.111  1.00  0.00     0.245 C 
HETATM   18  O2  UNL     1      20.738   0.151  50.940  1.00  0.00    -0.268 OA
HETATM   19  H11 UNL     1      20.723   1.253  53.990  1.00  0.00     0.169 HD
BRANCH  17  20
HETATM   20  C13 UNL     1      19.062  -0.372  52.506  1.00  0.00     0.072 C 
HETATM   21  C14 UNL     1      17.891   0.014  52.090  1.00  0.00     0.008 C 
BRANCH  21  22
HETATM   22  C15 UNL     1      16.617  -0.646  52.480  1.00  0.00     0.299 C 
BRANCH  22  23
HETATM   23  N4  UNL     1      15.518   0.088  51.915  1.00  0.00     0.083 N 
HETATM   24  C16 UNL     1      14.719  -0.703  51.008  1.00  0.00     0.309 C 
HETATM   25  C17 UNL     1      14.749   0.791  52.907  1.00  0.00     0.309 C 
ENDBRANCH  22  23
ENDBRANCH  21  22
ENDBRANCH  17  20
ENDBRANCH  11  16
ENDBRANCH   1   6
TORSDOF 7
ENDMDL
MODEL 9
REMARK VINA RESULT:      -6.1      3.856      6.753
REMARK  7 active torsions:
REMARK  status: ('A' for Active; 'I' for Inactive)
REMARK    1  A    between atoms: C2_2  and  O1_3 
REMARK    2  A    between atoms: O1_3  and  C3_4 
REMARK    3  A    between atoms: N1_7  and  C6_8 
REMARK    4  A    between atoms: C11_15  and  N3_16 
REMARK       I    between atoms: N3_16  and  C12_17 
REMARK    5  A    between atoms: C12_17  and  C13_19 
REMARK    6  A    between atoms: C14_20  and  C15_21 
REMARK    7  A    between atoms: C15_21  and  N4_22 
ROOT
HETATM    1  C6  UNL     1      24.249   4.669  50.664  1.00  0.00     0.170 C 
HETATM    2  C7  UNL     1      23.601   4.257  51.715  1.00  0.00     0.213 C 
HETATM    3  F1  UNL     1      23.405   5.102  52.740  1.00  0.00    -0.193 F 
HETATM    4  C8  UNL     1      23.141   2.900  51.682  1.00  0.00     0.132 C 
HETATM    5  N2  UNL     1      22.759   1.796  51.673  1.00  0.00    -0.189 NA
ENDROOT
BRANCH   1   6
HETATM    6  N1  UNL     1      24.827   5.924  50.375  1.00  0.00    -0.261 NA
HETATM    7  C5  UNL     1      25.911   6.060  49.689  1.00  0.00     0.040 A 
HETATM    8  C4  UNL     1      26.458   7.390  49.425  1.00  0.00     0.066 A 
HETATM    9  C9  UNL     1      26.561   4.811  49.191  1.00  0.00     0.088 A 
HETATM   10  C3  UNL     1      27.574   7.465  48.714  1.00  0.00     0.097 A 
HETATM   11  C11 UNL     1      28.271   6.289  48.191  1.00  0.00     0.065 A 
HETATM   12  C10 UNL     1      27.781   5.080  48.426  1.00  0.00     0.012 A 
BRANCH  10  13
HETATM   13  O1  UNL     1      28.092   8.716  48.463  1.00  0.00    -0.349 OA
BRANCH  13  14
HETATM   14  C2  UNL     1      28.606   9.557  49.469  1.00  0.00     0.171 C 
HETATM   15  C1  UNL     1      30.104   9.411  49.461  1.00  0.00     0.034 C 
ENDBRANCH  13  14
ENDBRANCH  10  13
BRANCH  11  16
HETATM   16  N3  UNL     1      29.476   6.473  47.430  1.00  0.00    -0.321 N 
HETATM   17  C12 UNL     1      30.621   6.076  48.136  1.00  0.00     0.245 C 
HETATM   18  O2  UNL     1      30.479   5.625  49.303  1.00  0.00    -0.268 OA
HETATM   19  H11 UNL     1      29.513   6.855  46.462  1.00  0.00     0.169 HD
BRANCH  17  20
HETATM   20  C13 UNL     1      31.952   6.176  47.553  1.00  0.00     0.072 C 
HETATM   21  C14 UNL     1      32.274   5.604  46.429  1.00  0.00     0.008 C 
BRANCH  21  22
HETATM   22  C15 UNL     1      33.625   5.692  45.815  1.00  0.00     0.299 C 
BRANCH  22  23
HETATM   23  N4  UNL     1      33.826   4.551  44.964  1.00  0.00     0.083 N 
HETATM   24  C16 UNL     1      33.318   4.747  43.626  1.00  0.00     0.309 C 
HETATM   25  C17 UNL     1      35.176   4.055  45.008  1.00  0.00     0.309 C 
ENDBRANCH  22  23
ENDBRANCH  21  22
ENDBRANCH  17  20
ENDBRANCH  11  16
ENDBRANCH   1   6
TORSDOF 7
ENDMDL
