MODEL 1
REMARK VINA RESULT:      -7.7      0.000      0.000
REMARK  6 active torsions:
REMARK  status: ('A' for Active; 'I' for Inactive)
REMARK    1  A    between atoms: C3_3  and  N1_4 
REMARK    2  A    between atoms: N1_4  and  C4_5 
REMARK    3  A    between atoms: C4_5  and  C5_6 
REMARK    4  A    between atoms: C8_10  and  N3_11 
REMARK    5  A    between atoms: N3_11  and  C9_12 
REMARK    6  A    between atoms: C9_12  and  C10_13 
ROOT
HETATM    1  C5  UNL     1      23.527  -0.699  54.348  1.00  0.00     0.095 C 
HETATM    2  C6  UNL     1      23.615   0.012  53.052  1.00  0.00     0.147 C 
HETATM    3  N2  UNL     1      24.656   1.014  53.175  1.00  0.00    -0.382 N 
HETATM    4  C7  UNL     1      25.996   0.882  53.628  1.00  0.00     0.128 A 
HETATM    5  C8  UNL     1      26.792   1.878  53.101  1.00  0.00     0.156 A 
HETATM    6  N4  UNL     1      28.064   1.824  53.488  1.00  0.00    -0.222 NA
HETATM    7  C13 UNL     1      28.571   0.907  54.313  1.00  0.00     0.238 A 
HETATM    8  N5  UNL     1      27.769  -0.056  54.814  1.00  0.00    -0.216 NA
HETATM    9  C14 UNL     1      26.447  -0.104  54.488  1.00  0.00     0.196 A 
HETATM   10  O1  UNL     1      25.729  -1.147  55.071  1.00  0.00    -0.331 OA
HETATM   11  C15 UNL     1      24.344  -1.180  55.448  1.00  0.00     0.204 C 
HETATM   12  H8  UNL     1      24.414   1.991  52.899  1.00  0.00     0.160 HD
ENDROOT
BRANCH   5  13
HETATM   13  N3  UNL     1      26.353   2.889  52.209  1.00  0.00    -0.368 N 
HETATM   14  H9  UNL     1      25.841   3.783  52.313  1.00  0.00     0.161 HD
BRANCH  13  15
HETATM   15  C9  UNL     1      26.643   2.700  50.809  1.00  0.00     0.167 C 
BRANCH  15  16
HETATM   16  C10 UNL     1      25.814   3.591  49.952  1.00  0.00     0.002 C 
HETATM   17 BR1  UNL     1      23.938   3.412  50.107  1.00  0.00    -0.054 Br
HETATM   18  C11 UNL     1      26.300   4.479  49.107  1.00  0.00    -0.015 C 
HETATM   19  C12 UNL     1      27.662   4.911  48.705  1.00  0.00     0.037 C 
ENDBRANCH  15  16
ENDBRANCH  13  15
ENDBRANCH   5  13
BRANCH   1  20
HETATM   20  C4  UNL     1      22.282  -1.041  54.654  1.00  0.00    -0.029 C 
BRANCH  20  21
HETATM   21  N1  UNL     1      21.132  -1.587  54.791  1.00  0.00    -0.222 NA
BRANCH  21  22
HETATM   22  C3  UNL     1      20.127  -1.158  53.879  1.00  0.00     0.122 C 
HETATM   23  C2  UNL     1      19.794  -0.203  53.024  1.00  0.00    -0.011 C 
HETATM   24  C1  UNL     1      18.492  -0.312  52.293  1.00  0.00     0.037 C 
ENDBRANCH  21  22
ENDBRANCH  20  21
ENDBRANCH   1  20
TORSDOF 6
ENDMDL
MODEL 2
REMARK VINA RESULT:      -7.0      2.990      5.466
REMARK  6 active torsions:
REMARK  status: ('A' for Active; 'I' for Inactive)
REMARK    1  A    between atoms: C3_3  and  N1_4 
REMARK    2  A    between atoms: N1_4  and  C4_5 
REMARK    3  A    between atoms: C4_5  and  C5_6 
REMARK    4  A    between atoms: C8_10  and  N3_11 
REMARK    5  A    between atoms: N3_11  and  C9_12 
REMARK    6  A    between atoms: C9_12  and  C10_13 
ROOT
HETATM    1  C5  UNL     1      25.330   1.119  53.470  1.00  0.00     0.095 C 
HETATM    2  C6  UNL     1      25.817   2.516  53.442  1.00  0.00     0.147 C 
HETATM    3  N2  UNL     1      25.808   2.954  52.059  1.00  0.00    -0.382 N 
HETATM    4  C7  UNL     1      24.767   2.894  51.094  1.00  0.00     0.128 A 
HETATM    5  C8  UNL     1      24.943   3.859  50.123  1.00  0.00     0.156 A 
HETATM    6  N4  UNL     1      24.008   3.860  49.177  1.00  0.00    -0.222 NA
HETATM    7  C13 UNL     1      22.972   3.021  49.129  1.00  0.00     0.238 A 
HETATM    8  N5  UNL     1      22.824   2.088  50.092  1.00  0.00    -0.216 NA
HETATM    9  C14 UNL     1      23.720   1.990  51.113  1.00  0.00     0.196 A 
HETATM   10  O1  UNL     1      23.454   0.985  52.043  1.00  0.00    -0.331 OA
HETATM   11  C15 UNL     1      24.383   0.224  52.829  1.00  0.00     0.204 C 
HETATM   12  H8  UNL     1      26.686   3.378  51.686  1.00  0.00     0.160 HD
ENDROOT
BRANCH   5  13
HETATM   13  N3  UNL     1      26.001   4.803  50.091  1.00  0.00    -0.368 N 
HETATM   14  H9  UNL     1      26.254   5.636  50.652  1.00  0.00     0.161 HD
BRANCH  13  15
HETATM   15  C9  UNL     1      26.997   4.637  49.061  1.00  0.00     0.167 C 
BRANCH  15  16
HETATM   16  C10 UNL     1      27.367   5.939  48.441  1.00  0.00     0.002 C 
HETATM   17 BR1  UNL     1      25.977   7.204  48.231  1.00  0.00    -0.054 Br
HETATM   18  C11 UNL     1      28.582   6.257  48.038  1.00  0.00    -0.015 C 
HETATM   19  C12 UNL     1      29.897   5.571  48.027  1.00  0.00     0.037 C 
ENDBRANCH  15  16
ENDBRANCH  13  15
ENDBRANCH   5  13
BRANCH   1  20
HETATM   20  C4  UNL     1      25.942   0.388  54.393  1.00  0.00    -0.029 C 
BRANCH  20  21
HETATM   21  N1  UNL     1      26.742  -0.312  55.107  1.00  0.00    -0.222 NA
BRANCH  21  22
HETATM   22  C3  UNL     1      28.069  -0.442  54.608  1.00  0.00     0.122 C 
HETATM   23  C2  UNL     1      28.882  -0.089  53.624  1.00  0.00    -0.011 C 
HETATM   24  C1  UNL     1      30.296  -0.580  53.646  1.00  0.00     0.037 C 
ENDBRANCH  21  22
ENDBRANCH  20  21
ENDBRANCH   1  20
TORSDOF 6
ENDMDL
MODEL 3
REMARK VINA RESULT:      -6.9      2.818      5.475
REMARK  6 active torsions:
REMARK  status: ('A' for Active; 'I' for Inactive)
REMARK    1  A    between atoms: C3_3  and  N1_4 
REMARK    2  A    between atoms: N1_4  and  C4_5 
REMARK    3  A    between atoms: C4_5  and  C5_6 
REMARK    4  A    between atoms: C8_10  and  N3_11 
REMARK    5  A    between atoms: N3_11  and  C9_12 
REMARK    6  A    between atoms: C9_12  and  C10_13 
ROOT
HETATM    1  C5  UNL     1      24.841   0.758  53.313  1.00  0.00     0.095 C 
HETATM    2  C6  UNL     1      25.605   2.024  53.378  1.00  0.00     0.147 C 
HETATM    3  N2  UNL     1      25.033   2.929  52.400  1.00  0.00    -0.382 N 
HETATM    4  C7  UNL     1      23.680   3.311  52.197  1.00  0.00     0.128 A 
HETATM    5  C8  UNL     1      23.605   4.542  51.577  1.00  0.00     0.156 A 
HETATM    6  N4  UNL     1      22.365   4.964  51.346  1.00  0.00    -0.222 NA
HETATM    7  C13 UNL     1      21.260   4.291  51.667  1.00  0.00     0.238 A 
HETATM    8  N5  UNL     1      21.361   3.090  52.273  1.00  0.00    -0.216 NA
HETATM    9  C14 UNL     1      22.581   2.554  52.561  1.00  0.00     0.196 A 
HETATM   10  O1  UNL     1      22.549   1.309  53.187  1.00  0.00    -0.331 OA
HETATM   11  C15 UNL     1      23.502   0.239  53.101  1.00  0.00     0.204 C 
HETATM   12  H8  UNL     1      25.690   3.382  51.727  1.00  0.00     0.160 HD
ENDROOT
BRANCH   5  13
HETATM   13  N3  UNL     1      24.719   5.339  51.207  1.00  0.00    -0.368 N 
HETATM   14  H9  UNL     1      25.546   5.713  51.704  1.00  0.00     0.161 HD
BRANCH  13  15
HETATM   15  C9  UNL     1      24.783   5.779  49.835  1.00  0.00     0.167 C 
BRANCH  15  16
HETATM   16  C10 UNL     1      26.168   5.693  49.296  1.00  0.00     0.002 C 
HETATM   17 BR1  UNL     1      26.983   7.322  48.790  1.00  0.00    -0.054 Br
HETATM   18  C11 UNL     1      26.847   4.571  49.154  1.00  0.00    -0.015 C 
HETATM   19  C12 UNL     1      26.574   3.138  49.423  1.00  0.00     0.037 C 
ENDBRANCH  15  16
ENDBRANCH  13  15
ENDBRANCH   5  13
BRANCH   1  20
HETATM   20  C4  UNL     1      25.607  -0.306  53.518  1.00  0.00    -0.029 C 
BRANCH  20  21
HETATM   21  N1  UNL     1      26.414  -1.298  53.453  1.00  0.00    -0.222 NA
BRANCH  21  22
HETATM   22  C3  UNL     1      27.800  -0.971  53.430  1.00  0.00     0.122 C 
HETATM   23  C2  UNL     1      28.715  -0.155  53.929  1.00  0.00    -0.011 C 
HETATM   24  C1  UNL     1      30.137  -0.310  53.486  1.00  0.00     0.037 C 
ENDBRANCH  21  22
ENDBRANCH  20  21
ENDBRANCH   1  20
TORSDOF 6
ENDMDL
MODEL 4
REMARK VINA RESULT:      -6.6      2.606      5.526
REMARK  6 active torsions:
REMARK  status: ('A' for Active; 'I' for Inactive)
REMARK    1  A    between atoms: C3_3  and  N1_4 
REMARK    2  A    between atoms: N1_4  and  C4_5 
REMARK    3  A    between atoms: C4_5  and  C5_6 
REMARK    4  A    between atoms: C8_10  and  N3_11 
REMARK    5  A    between atoms: N3_11  and  C9_12 
REMARK    6  A    between atoms: C9_12  and  C10_13 
ROOT
HETATM    1  C5  UNL     1      24.672   0.478  53.420  1.00  0.00     0.095 C 
HETATM    2  C6  UNL     1      25.050   1.752  52.768  1.00  0.00     0.147 C 
HETATM    3  N2  UNL     1      24.453   1.759  51.446  1.00  0.00    -0.382 N 
HETATM    4  C7  UNL     1      23.110   1.514  51.054  1.00  0.00     0.128 A 
HETATM    5  C8  UNL     1      22.832   2.126  49.849  1.00  0.00     0.156 A 
HETATM    6  N4  UNL     1      21.590   1.935  49.411  1.00  0.00    -0.222 NA
HETATM    7  C13 UNL     1      20.661   1.220  50.047  1.00  0.00     0.238 A 
HETATM    8  N5  UNL     1      20.960   0.632  51.224  1.00  0.00    -0.216 NA
HETATM    9  C14 UNL     1      22.201   0.758  51.772  1.00  0.00     0.196 A 
HETATM   10  O1  UNL     1      22.381   0.103  52.990  1.00  0.00    -0.331 OA
HETATM   11  C15 UNL     1      23.581  -0.475  53.526  1.00  0.00     0.204 C 
HETATM   12  H8  UNL     1      25.082   1.969  50.640  1.00  0.00     0.160 HD
ENDROOT
BRANCH   5  13
HETATM   13  N3  UNL     1      23.745   2.915  49.103  1.00  0.00    -0.368 N 
HETATM   14  H9  UNL     1      24.598   2.719  48.551  1.00  0.00     0.161 HD
BRANCH  13  15
HETATM   15  C9  UNL     1      23.500   4.336  49.059  1.00  0.00     0.167 C 
BRANCH  15  16
HETATM   16  C10 UNL     1      24.295   5.061  50.089  1.00  0.00     0.002 C 
HETATM   17 BR1  UNL     1      23.400   5.503  51.695  1.00  0.00    -0.054 Br
HETATM   18  C11 UNL     1      25.560   5.406  49.950  1.00  0.00    -0.015 C 
HETATM   19  C12 UNL     1      26.580   5.251  48.883  1.00  0.00     0.037 C 
ENDBRANCH  15  16
ENDBRANCH  13  15
ENDBRANCH   5  13
BRANCH   1  20
HETATM   20  C4  UNL     1      25.639  -0.001  54.193  1.00  0.00    -0.029 C 
BRANCH  20  21
HETATM   21  N1  UNL     1      26.588  -0.206  55.027  1.00  0.00    -0.222 NA
BRANCH  21  22
HETATM   22  C3  UNL     1      27.907  -0.161  54.492  1.00  0.00     0.122 C 
HETATM   23  C2  UNL     1      28.732  -0.736  53.632  1.00  0.00    -0.011 C 
HETATM   24  C1  UNL     1      30.122  -0.197  53.497  1.00  0.00     0.037 C 
ENDBRANCH  21  22
ENDBRANCH  20  21
ENDBRANCH   1  20
TORSDOF 6
ENDMDL
MODEL 5
REMARK VINA RESULT:      -6.6      3.608      8.821
REMARK  6 active torsions:
REMARK  status: ('A' for Active; 'I' for Inactive)
REMARK    1  A    between atoms: C3_3  and  N1_4 
REMARK    2  A    between atoms: N1_4  and  C4_5 
REMARK    3  A    between atoms: C4_5  and  C5_6 
REMARK    4  A    between atoms: C8_10  and  N3_11 
REMARK    5  A    between atoms: N3_11  and  C9_12 
REMARK    6  A    between atoms: C9_12  and  C10_13 
ROOT
HETATM    1  C5  UNL     1      26.950   5.086  48.954  1.00  0.00     0.095 C 
HETATM    2  C6  UNL     1      26.743   3.755  49.569  1.00  0.00     0.147 C 
HETATM    3  N2  UNL     1      25.872   3.934  50.714  1.00  0.00    -0.382 N 
HETATM    4  C7  UNL     1      24.619   4.596  50.809  1.00  0.00     0.128 A 
HETATM    5  C8  UNL     1      23.881   4.101  51.864  1.00  0.00     0.156 A 
HETATM    6  N4  UNL     1      22.693   4.679  52.021  1.00  0.00    -0.222 NA
HETATM    7  C13 UNL     1      22.215   5.658  51.252  1.00  0.00     0.238 A 
HETATM    8  N5  UNL     1      22.958   6.124  50.226  1.00  0.00    -0.216 NA
HETATM    9  C14 UNL     1      24.192   5.608  49.967  1.00  0.00     0.196 A 
HETATM   10  O1  UNL     1      24.857   6.175  48.880  1.00  0.00    -0.331 OA
HETATM   11  C15 UNL     1      26.269   6.339  48.680  1.00  0.00     0.204 C 
HETATM   12  H8  UNL     1      26.189   3.530  51.623  1.00  0.00     0.160 HD
ENDROOT
BRANCH   5  13
HETATM   13  N3  UNL     1      24.294   3.057  52.732  1.00  0.00    -0.368 N 
HETATM   14  H9  UNL     1      25.110   2.900  53.348  1.00  0.00     0.161 HD
BRANCH  13  15
HETATM   15  C9  UNL     1      23.432   1.904  52.827  1.00  0.00     0.167 C 
BRANCH  15  16
HETATM   16  C10 UNL     1      24.212   0.650  53.011  1.00  0.00     0.002 C 
HETATM   17 BR1  UNL     1      25.953   0.618  52.274  1.00  0.00    -0.054 Br
HETATM   18  C11 UNL     1      23.770  -0.419  53.645  1.00  0.00    -0.015 C 
HETATM   19  C12 UNL     1      22.510  -0.783  54.338  1.00  0.00     0.037 C 
ENDBRANCH  15  16
ENDBRANCH  13  15
ENDBRANCH   5  13
BRANCH   1  20
HETATM   20  C4  UNL     1      28.175   5.232  48.464  1.00  0.00    -0.029 C 
BRANCH  20  21
HETATM   21  N1  UNL     1      29.396   5.123  48.096  1.00  0.00    -0.222 NA
BRANCH  21  22
HETATM   22  C3  UNL     1      30.267   6.167  48.519  1.00  0.00     0.122 C 
HETATM   23  C2  UNL     1      30.372   7.478  48.673  1.00  0.00    -0.011 C 
HETATM   24  C1  UNL     1      31.650   8.041  49.209  1.00  0.00     0.037 C 
ENDBRANCH  21  22
ENDBRANCH  20  21
ENDBRANCH   1  20
TORSDOF 6
ENDMDL
MODEL 6
REMARK VINA RESULT:      -6.6      2.767      5.606
REMARK  6 active torsions:
REMARK  status: ('A' for Active; 'I' for Inactive)
REMARK    1  A    between atoms: C3_3  and  N1_4 
REMARK    2  A    between atoms: N1_4  and  C4_5 
REMARK    3  A    between atoms: C4_5  and  C5_6 
REMARK    4  A    between atoms: C8_10  and  N3_11 
REMARK    5  A    between atoms: N3_11  and  C9_12 
REMARK    6  A    between atoms: C9_12  and  C10_13 
ROOT
HETATM    1  C5  UNL     1      24.625   0.099  53.400  1.00  0.00     0.095 C 
HETATM    2  C6  UNL     1      25.138   1.486  53.467  1.00  0.00     0.147 C 
HETATM    3  N2  UNL     1      24.297   2.303  52.613  1.00  0.00    -0.382 N 
HETATM    4  C7  UNL     1      22.882   2.422  52.576  1.00  0.00     0.128 A 
HETATM    5  C8  UNL     1      22.506   3.640  52.047  1.00  0.00     0.156 A 
HETATM    6  N4  UNL     1      21.190   3.822  51.973  1.00  0.00    -0.222 NA
HETATM    7  C13 UNL     1      20.275   2.933  52.363  1.00  0.00     0.238 A 
HETATM    8  N5  UNL     1      20.671   1.750  52.877  1.00  0.00    -0.216 NA
HETATM    9  C14 UNL     1      21.994   1.450  53.002  1.00  0.00     0.196 A 
HETATM   10  O1  UNL     1      22.270   0.197  53.548  1.00  0.00    -0.331 OA
HETATM   11  C15 UNL     1      23.393  -0.662  53.295  1.00  0.00     0.204 C 
HETATM   12  H8  UNL     1      24.775   2.904  51.905  1.00  0.00     0.160 HD
ENDROOT
BRANCH   5  13
HETATM   13  N3  UNL     1      23.399   4.655  51.615  1.00  0.00    -0.368 N 
HETATM   14  H9  UNL     1      24.089   5.267  52.084  1.00  0.00     0.161 HD
BRANCH  13  15
HETATM   15  C9  UNL     1      23.400   4.971  50.208  1.00  0.00     0.167 C 
BRANCH  15  16
HETATM   16  C10 UNL     1      24.176   3.971  49.423  1.00  0.00     0.002 C 
HETATM   17 BR1  UNL     1      26.060   4.101  49.511  1.00  0.00    -0.054 Br
HETATM   18  C11 UNL     1      23.638   3.020  48.685  1.00  0.00    -0.015 C 
HETATM   19  C12 UNL     1      22.252   2.597  48.364  1.00  0.00     0.037 C 
ENDBRANCH  15  16
ENDBRANCH  13  15
ENDBRANCH   5  13
BRANCH   1  20
HETATM   20  C4  UNL     1      25.597  -0.803  53.456  1.00  0.00    -0.029 C 
BRANCH  20  21
HETATM   21  N1  UNL     1      26.590  -1.586  53.257  1.00  0.00    -0.222 NA
BRANCH  21  22
HETATM   22  C3  UNL     1      27.880  -0.989  53.344  1.00  0.00     0.122 C 
HETATM   23  C2  UNL     1      29.177  -1.246  53.389  1.00  0.00    -0.011 C 
HETATM   24  C1  UNL     1      30.136  -0.101  53.490  1.00  0.00     0.037 C 
ENDBRANCH  21  22
ENDBRANCH  20  21
ENDBRANCH   1  20
TORSDOF 6
ENDMDL
MODEL 7
REMARK VINA RESULT:      -6.6      3.598      5.777
REMARK  6 active torsions:
REMARK  status: ('A' for Active; 'I' for Inactive)
REMARK    1  A    between atoms: C3_3  and  N1_4 
REMARK    2  A    between atoms: N1_4  and  C4_5 
REMARK    3  A    between atoms: C4_5  and  C5_6 
REMARK    4  A    between atoms: C8_10  and  N3_11 
REMARK    5  A    between atoms: N3_11  and  C9_12 
REMARK    6  A    between atoms: C9_12  and  C10_13 
ROOT
HETATM    1  C5  UNL     1      23.220   2.515  52.674  1.00  0.00     0.095 C 
HETATM    2  C6  UNL     1      24.526   3.207  52.755  1.00  0.00     0.147 C 
HETATM    3  N2  UNL     1      24.558   4.204  51.702  1.00  0.00    -0.382 N 
HETATM    4  C7  UNL     1      23.613   5.213  51.376  1.00  0.00     0.128 A 
HETATM    5  C8  UNL     1      24.219   6.256  50.708  1.00  0.00     0.156 A 
HETATM    6  N4  UNL     1      23.393   7.240  50.362  1.00  0.00    -0.222 NA
HETATM    7  C13 UNL     1      22.084   7.259  50.616  1.00  0.00     0.238 A 
HETATM    8  N5  UNL     1      21.516   6.225  51.271  1.00  0.00    -0.216 NA
HETATM    9  C14 UNL     1      22.263   5.160  51.676  1.00  0.00     0.196 A 
HETATM   10  O1  UNL     1      21.557   4.159  52.343  1.00  0.00    -0.331 OA
HETATM   11  C15 UNL     1      21.818   2.747  52.372  1.00  0.00     0.204 C 
HETATM   12  H8  UNL     1      25.387   4.202  51.068  1.00  0.00     0.160 HD
ENDROOT
BRANCH   5  13
HETATM   13  N3  UNL     1      25.603   6.336  50.402  1.00  0.00    -0.368 N 
HETATM   14  H9  UNL     1      26.474   6.358  50.959  1.00  0.00     0.161 HD
BRANCH  13  15
HETATM   15  C9  UNL     1      25.961   6.415  49.007  1.00  0.00     0.167 C 
BRANCH  15  16
HETATM   16  C10 UNL     1      27.219   5.672  48.721  1.00  0.00     0.002 C 
HETATM   17 BR1  UNL     1      28.662   6.682  48.034  1.00  0.00    -0.054 Br
HETATM   18  C11 UNL     1      27.383   4.378  48.914  1.00  0.00    -0.015 C 
HETATM   19  C12 UNL     1      26.528   3.275  49.418  1.00  0.00     0.037 C 
ENDBRANCH  15  16
ENDBRANCH  13  15
ENDBRANCH   5  13
BRANCH   1  20
HETATM   20  C4  UNL     1      23.310   1.227  52.978  1.00  0.00    -0.029 C 
BRANCH  20  21
HETATM   21  N1  UNL     1      23.656   0.012  53.190  1.00  0.00    -0.222 NA
BRANCH  21  22
HETATM   22  C3  UNL     1      25.037  -0.281  53.006  1.00  0.00     0.122 C 
HETATM   23  C2  UNL     1      26.143  -0.662  53.627  1.00  0.00    -0.011 C 
HETATM   24  C1  UNL     1      27.402  -0.811  52.831  1.00  0.00     0.037 C 
ENDBRANCH  21  22
ENDBRANCH  20  21
ENDBRANCH   1  20
TORSDOF 6
ENDMDL
MODEL 8
REMARK VINA RESULT:      -6.5      7.678     11.069
REMARK  6 active torsions:
REMARK  status: ('A' for Active; 'I' for Inactive)
REMARK    1  A    between atoms: C3_3  and  N1_4 
REMARK    2  A    between atoms: N1_4  and  C4_5 
REMARK    3  A    between atoms: C4_5  and  C5_6 
REMARK    4  A    between atoms: C8_10  and  N3_11 
REMARK    5  A    between atoms: N3_11  and  C9_12 
REMARK    6  A    between atoms: C9_12  and  C10_13 
ROOT
HETATM    1  C5  UNL     1      31.604   7.322  48.141  1.00  0.00     0.095 C 
HETATM    2  C6  UNL     1      30.303   6.628  48.271  1.00  0.00     0.147 C 
HETATM    3  N2  UNL     1      29.445   7.459  49.093  1.00  0.00    -0.382 N 
HETATM    4  C7  UNL     1      29.130   8.839  48.973  1.00  0.00     0.128 A 
HETATM    5  C8  UNL     1      27.918   9.119  49.568  1.00  0.00     0.156 A 
HETATM    6  N4  UNL     1      27.557  10.398  49.502  1.00  0.00    -0.222 NA
HETATM    7  C13 UNL     1      28.274  11.362  48.922  1.00  0.00     0.238 A 
HETATM    8  N5  UNL     1      29.457  11.060  48.347  1.00  0.00    -0.216 NA
HETATM    9  C14 UNL     1      29.929   9.782  48.352  1.00  0.00     0.196 A 
HETATM   10  O1  UNL     1      31.162   9.604  47.724  1.00  0.00    -0.331 OA
HETATM   11  C15 UNL     1      32.189   8.646  48.025  1.00  0.00     0.204 C 
HETATM   12  H8  UNL     1      28.977   7.004  49.907  1.00  0.00     0.160 HD
ENDROOT
BRANCH   5  13
HETATM   13  N3  UNL     1      27.077   8.166  50.199  1.00  0.00    -0.368 N 
HETATM   14  H9  UNL     1      27.071   7.695  51.120  1.00  0.00     0.161 HD
BRANCH  13  15
HETATM   15  C9  UNL     1      25.947   7.686  49.442  1.00  0.00     0.167 C 
BRANCH  15  16
HETATM   16  C10 UNL     1      25.460   6.376  49.956  1.00  0.00     0.002 C 
HETATM   17 BR1  UNL     1      23.968   6.422  51.115  1.00  0.00    -0.054 Br
HETATM   18  C11 UNL     1      25.997   5.209  49.655  1.00  0.00    -0.015 C 
HETATM   19  C12 UNL     1      27.134   4.762  48.814  1.00  0.00     0.037 C 
ENDBRANCH  15  16
ENDBRANCH  13  15
ENDBRANCH   5  13
BRANCH   1  20
HETATM   20  C4  UNL     1      32.627   6.477  48.115  1.00  0.00    -0.029 C 
BRANCH  20  21
HETATM   21  N1  UNL     1      33.550   5.622  48.352  1.00  0.00    -0.222 NA
BRANCH  21  22
HETATM   22  C3  UNL     1      33.317   4.305  47.862  1.00  0.00     0.122 C 
HETATM   23  C2  UNL     1      32.425   3.525  47.273  1.00  0.00    -0.011 C 
HETATM   24  C1  UNL     1      32.788   2.101  46.988  1.00  0.00     0.037 C 
ENDBRANCH  21  22
ENDBRANCH  20  21
ENDBRANCH   1  20
TORSDOF 6
ENDMDL
MODEL 9
REMARK VINA RESULT:      -6.5      2.834      6.211
REMARK  6 active torsions:
REMARK  status: ('A' for Active; 'I' for Inactive)
REMARK    1  A    between atoms: C3_3  and  N1_4 
REMARK    2  A    between atoms: N1_4  and  C4_5 
REMARK    3  A    between atoms: C4_5  and  C5_6 
REMARK    4  A    between atoms: C8_10  and  N3_11 
REMARK    5  A    between atoms: N3_11  and  C9_12 
REMARK    6  A    between atoms: C9_12  and  C10_13 
ROOT
HETATM    1  C5  UNL     1      23.662  -0.151  53.761  1.00  0.00     0.095 C 
HETATM    2  C6  UNL     1      23.547   0.887  52.712  1.00  0.00     0.147 C 
HETATM    3  N2  UNL     1      22.445   0.513  51.847  1.00  0.00    -0.382 N 
HETATM    4  C7  UNL     1      21.110   0.158  52.177  1.00  0.00     0.128 A 
HETATM    5  C8  UNL     1      20.261   0.400  51.117  1.00  0.00     0.156 A 
HETATM    6  N4  UNL     1      18.990   0.083  51.349  1.00  0.00    -0.222 NA
HETATM    7  C13 UNL     1      18.530  -0.427  52.492  1.00  0.00     0.238 A 
HETATM    8  N5  UNL     1      19.382  -0.654  53.513  1.00  0.00    -0.216 NA
HETATM    9  C14 UNL     1      20.709  -0.368  53.392  1.00  0.00     0.196 A 
HETATM   10  O1  UNL     1      21.481  -0.648  54.519  1.00  0.00    -0.331 OA
HETATM   11  C15 UNL     1      22.861  -1.041  54.583  1.00  0.00     0.204 C 
HETATM   12  H8  UNL     1      22.631   0.489  50.820  1.00  0.00     0.160 HD
ENDROOT
BRANCH   5  13
HETATM   13  N3  UNL     1      20.649   0.949  49.868  1.00  0.00    -0.368 N 
HETATM   14  H9  UNL     1      21.190   0.606  49.056  1.00  0.00     0.161 HD
BRANCH  13  15
HETATM   15  C9  UNL     1      20.238   2.304  49.592  1.00  0.00     0.167 C 
BRANCH  15  16
HETATM   16  C10 UNL     1      21.386   3.250  49.659  1.00  0.00     0.002 C 
HETATM   17 BR1  UNL     1      22.353   3.524  48.058  1.00  0.00    -0.054 Br
HETATM   18  C11 UNL     1      21.760   3.895  50.747  1.00  0.00    -0.015 C 
HETATM   19  C12 UNL     1      21.282   3.953  52.150  1.00  0.00     0.037 C 
ENDBRANCH  15  16
ENDBRANCH  13  15
ENDBRANCH   5  13
BRANCH   1  20
HETATM   20  C4  UNL     1      24.921  -0.383  54.107  1.00  0.00    -0.029 C 
BRANCH  20  21
HETATM   21  N1  UNL     1      26.061  -0.499  54.680  1.00  0.00    -0.222 NA
BRANCH  21  22
HETATM   22  C3  UNL     1      27.030   0.488  54.340  1.00  0.00     0.122 C 
HETATM   23  C2  UNL     1      27.210   1.638  53.710  1.00  0.00    -0.011 C 
HETATM   24  C1  UNL     1      28.580   2.243  53.692  1.00  0.00     0.037 C 
ENDBRANCH  21  22
ENDBRANCH  20  21
ENDBRANCH   1  20
TORSDOF 6
ENDMDL
