MODEL 1
REMARK VINA RESULT:      -7.0      0.000      0.000
REMARK  5 active torsions:
REMARK  status: ('A' for Active; 'I' for Inactive)
REMARK    1  A    between atoms: N1_8  and  N2_9 
REMARK    2  A    between atoms: N2_9  and  C6_10 
REMARK    3  A    between atoms: C9_13  and  N3_14 
REMARK    4  A    between atoms: N3_14  and  C10_15 
REMARK    5  A    between atoms: N3_14  and  C11_17 
ROOT
HETATM    1  C6  UNL     1      24.548  -0.242  53.384  1.00  0.00     0.048 A 
HETATM    2  C7  UNL     1      23.273  -0.638  53.722  1.00  0.00     0.033 A 
HETATM    3  C8  UNL     1      22.188  -0.054  53.113  1.00  0.00     0.031 A 
HETATM    4  C9  UNL     1      22.313   0.940  52.151  1.00  0.00     0.032 A 
HETATM    5  C12 UNL     1      23.604   1.310  51.841  1.00  0.00     0.031 A 
HETATM    6  C13 UNL     1      24.715   0.741  52.436  1.00  0.00     0.033 A 
ENDROOT
BRANCH   1   7
HETATM    7  N2  UNL     1      25.695  -0.820  53.962  1.00  0.00    -0.292 N 
HETATM    8  H4  UNL     1      25.508  -1.528  54.736  1.00  0.00     0.187 HD
BRANCH   7   9
HETATM    9  N1  UNL     1      27.061  -0.717  53.814  1.00  0.00    -0.230 N 
HETATM   10  C1  UNL     1      27.642   0.384  54.320  1.00  0.00     0.287 A 
HETATM   11  O1  UNL     1      26.981   1.292  54.932  1.00  0.00    -0.264 OA
HETATM   12  C2  UNL     1      28.994   0.685  54.253  1.00  0.00     0.103 A 
HETATM   13 CL1  UNL     1      29.776   2.112  54.894  1.00  0.00    -0.078 Cl
HETATM   14  C3  UNL     1      29.773  -0.233  53.615  1.00  0.00     0.031 A 
HETATM   15  C4  UNL     1      29.236  -1.388  53.074  1.00  0.00     0.021 A 
HETATM   16  C5  UNL     1      27.876  -1.571  53.205  1.00  0.00     0.120 A 
ENDBRANCH   7   9
ENDBRANCH   1   7
BRANCH   4  17
HETATM   17  N3  UNL     1      21.167   1.510  51.479  1.00  0.00    -0.355 N 
BRANCH  17  18
HETATM   18  C10 UNL     1      21.375   2.176  50.210  1.00  0.00     0.239 C 
HETATM   19 CL2  UNL     1      21.408   0.857  48.976  1.00  0.00    -0.109 Cl
ENDBRANCH  17  18
BRANCH  17  20
HETATM   20  C11 UNL     1      19.884   1.346  52.177  1.00  0.00     0.239 C 
HETATM   21 CL3  UNL     1      18.983   0.032  51.397  1.00  0.00    -0.109 Cl
ENDBRANCH  17  20
ENDBRANCH   4  17
TORSDOF 5
ENDMDL
MODEL 2
REMARK VINA RESULT:      -6.9      1.886      2.815
REMARK  5 active torsions:
REMARK  status: ('A' for Active; 'I' for Inactive)
REMARK    1  A    between atoms: N1_8  and  N2_9 
REMARK    2  A    between atoms: N2_9  and  C6_10 
REMARK    3  A    between atoms: C9_13  and  N3_14 
REMARK    4  A    between atoms: N3_14  and  C10_15 
REMARK    5  A    between atoms: N3_14  and  C11_17 
ROOT
HETATM    1  C6  UNL     1      23.761  -0.191  53.593  1.00  0.00     0.048 A 
HETATM    2  C7  UNL     1      23.400   0.583  52.513  1.00  0.00     0.033 A 
HETATM    3  C8  UNL     1      22.088   0.622  52.105  1.00  0.00     0.031 A 
HETATM    4  C9  UNL     1      21.083  -0.095  52.740  1.00  0.00     0.032 A 
HETATM    5  C12 UNL     1      21.485  -0.858  53.815  1.00  0.00     0.031 A 
HETATM    6  C13 UNL     1      22.796  -0.918  54.250  1.00  0.00     0.033 A 
ENDROOT
BRANCH   1   7
HETATM    7  N2  UNL     1      25.087  -0.253  54.066  1.00  0.00    -0.292 N 
HETATM    8  H4  UNL     1      25.282  -1.020  54.779  1.00  0.00     0.187 HD
BRANCH   7   9
HETATM    9  N1  UNL     1      26.263   0.438  53.868  1.00  0.00    -0.230 N 
HETATM   10  C1  UNL     1      27.372  -0.299  53.683  1.00  0.00     0.287 A 
HETATM   11  O1  UNL     1      27.354  -1.578  53.666  1.00  0.00    -0.264 OA
HETATM   12  C2  UNL     1      28.650   0.204  53.493  1.00  0.00     0.103 A 
HETATM   13 CL1  UNL     1      30.112  -0.728  53.259  1.00  0.00    -0.078 Cl
HETATM   14  C3  UNL     1      28.758   1.562  53.497  1.00  0.00     0.031 A 
HETATM   15  C4  UNL     1      27.654   2.376  53.681  1.00  0.00     0.021 A 
HETATM   16  C5  UNL     1      26.437   1.755  53.861  1.00  0.00     0.120 A 
ENDBRANCH   7   9
ENDBRANCH   1   7
BRANCH   4  17
HETATM   17  N3  UNL     1      19.698  -0.005  52.335  1.00  0.00    -0.355 N 
BRANCH  17  18
HETATM   18  C10 UNL     1      18.718  -0.786  53.060  1.00  0.00     0.239 C 
HETATM   19 CL2  UNL     1      17.141  -0.453  52.244  1.00  0.00    -0.109 Cl
ENDBRANCH  17  18
BRANCH  17  20
HETATM   20  C11 UNL     1      19.432   0.894  51.202  1.00  0.00     0.239 C 
HETATM   21 CL3  UNL     1      19.060   2.507  51.839  1.00  0.00    -0.109 Cl
ENDBRANCH  17  20
ENDBRANCH   4  17
TORSDOF 5
ENDMDL
MODEL 3
REMARK VINA RESULT:      -6.9      1.674      2.005
REMARK  5 active torsions:
REMARK  status: ('A' for Active; 'I' for Inactive)
REMARK    1  A    between atoms: N1_8  and  N2_9 
REMARK    2  A    between atoms: N2_9  and  C6_10 
REMARK    3  A    between atoms: C9_13  and  N3_14 
REMARK    4  A    between atoms: N3_14  and  C10_15 
REMARK    5  A    between atoms: N3_14  and  C11_17 
ROOT
HETATM    1  C6  UNL     1      23.292  -0.519  54.046  1.00  0.00     0.048 A 
HETATM    2  C7  UNL     1      22.234  -1.177  54.630  1.00  0.00     0.033 A 
HETATM    3  C8  UNL     1      20.973  -1.061  54.096  1.00  0.00     0.031 A 
HETATM    4  C9  UNL     1      20.704  -0.295  52.968  1.00  0.00     0.032 A 
HETATM    5  C12 UNL     1      21.789   0.349  52.414  1.00  0.00     0.031 A 
HETATM    6  C13 UNL     1      23.069   0.251  52.928  1.00  0.00     0.033 A 
ENDROOT
BRANCH   1   7
HETATM    7  N2  UNL     1      24.608  -0.618  54.541  1.00  0.00    -0.292 N 
HETATM    8  H4  UNL     1      24.699  -0.597  55.602  1.00  0.00     0.187 HD
BRANCH   7   9
HETATM    9  N1  UNL     1      25.878  -0.729  54.018  1.00  0.00    -0.230 N 
HETATM   10  C1  UNL     1      26.786   0.167  54.440  1.00  0.00     0.287 A 
HETATM   11  O1  UNL     1      26.510   1.072  55.303  1.00  0.00    -0.264 OA
HETATM   12  C2  UNL     1      28.104   0.240  54.018  1.00  0.00     0.103 A 
HETATM   13 CL1  UNL     1      29.304   1.398  54.543  1.00  0.00    -0.078 Cl
HETATM   14  C3  UNL     1      28.481  -0.690  53.097  1.00  0.00     0.031 A 
HETATM   15  C4  UNL     1      27.595  -1.641  52.622  1.00  0.00     0.021 A 
HETATM   16  C5  UNL     1      26.310  -1.608  53.119  1.00  0.00     0.120 A 
ENDBRANCH   7   9
ENDBRANCH   1   7
BRANCH   4  17
HETATM   17  N3  UNL     1      19.384  -0.222  52.383  1.00  0.00    -0.355 N 
BRANCH  17  18
HETATM   18  C10 UNL     1      19.213   0.546  51.169  1.00  0.00     0.239 C 
HETATM   19 CL2  UNL     1      18.687   2.187  51.709  1.00  0.00    -0.109 Cl
ENDBRANCH  17  18
BRANCH  17  20
HETATM   20  C11 UNL     1      18.335  -0.957  53.107  1.00  0.00     0.239 C 
HETATM   21 CL3  UNL     1      16.888  -1.022  52.083  1.00  0.00    -0.109 Cl
ENDBRANCH  17  20
ENDBRANCH   4  17
TORSDOF 5
ENDMDL
MODEL 4
REMARK VINA RESULT:      -6.7      4.481      8.658
REMARK  5 active torsions:
REMARK  status: ('A' for Active; 'I' for Inactive)
REMARK    1  A    between atoms: N1_8  and  N2_9 
REMARK    2  A    between atoms: N2_9  and  C6_10 
REMARK    3  A    between atoms: C9_13  and  N3_14 
REMARK    4  A    between atoms: N3_14  and  C10_15 
REMARK    5  A    between atoms: N3_14  and  C11_17 
ROOT
HETATM    1  C6  UNL     1      20.211  -0.685  53.600  1.00  0.00     0.048 A 
HETATM    2  C7  UNL     1      21.205  -1.287  54.338  1.00  0.00     0.033 A 
HETATM    3  C8  UNL     1      22.524  -1.016  54.065  1.00  0.00     0.031 A 
HETATM    4  C9  UNL     1      22.917  -0.144  53.057  1.00  0.00     0.032 A 
HETATM    5  C12 UNL     1      21.893   0.437  52.341  1.00  0.00     0.031 A 
HETATM    6  C13 UNL     1      20.557   0.185  52.593  1.00  0.00     0.033 A 
ENDROOT
BRANCH   1   7
HETATM    7  N2  UNL     1      18.843  -0.912  53.851  1.00  0.00    -0.292 N 
HETATM    8  H4  UNL     1      18.366  -0.188  54.469  1.00  0.00     0.187 HD
BRANCH   7   9
HETATM    9  N1  UNL     1      17.899  -1.859  53.517  1.00  0.00    -0.230 N 
HETATM   10  C1  UNL     1      16.848  -1.437  52.794  1.00  0.00     0.287 A 
HETATM   11  O1  UNL     1      16.724  -0.224  52.405  1.00  0.00    -0.264 OA
HETATM   12  C2  UNL     1      15.786  -2.224  52.380  1.00  0.00     0.103 A 
HETATM   13 CL1  UNL     1      14.402  -1.701  51.447  1.00  0.00    -0.078 Cl
HETATM   14  C3  UNL     1      15.840  -3.534  52.753  1.00  0.00     0.031 A 
HETATM   15  C4  UNL     1      16.895  -4.032  53.498  1.00  0.00     0.021 A 
HETATM   16  C5  UNL     1      17.892  -3.146  53.849  1.00  0.00     0.120 A 
ENDBRANCH   7   9
ENDBRANCH   1   7
BRANCH   4  17
HETATM   17  N3  UNL     1      24.305   0.175  52.812  1.00  0.00    -0.355 N 
BRANCH  17  18
HETATM   18  C10 UNL     1      25.317  -0.725  53.324  1.00  0.00     0.239 C 
HETATM   19 CL2  UNL     1      25.974   0.081  54.801  1.00  0.00    -0.109 Cl
ENDBRANCH  17  18
BRANCH  17  20
HETATM   20  C11 UNL     1      24.542   1.410  52.050  1.00  0.00     0.239 C 
HETATM   21 CL3  UNL     1      24.385   2.790  53.154  1.00  0.00    -0.109 Cl
ENDBRANCH  17  20
ENDBRANCH   4  17
TORSDOF 5
ENDMDL
MODEL 5
REMARK VINA RESULT:      -6.7      2.322      2.720
REMARK  5 active torsions:
REMARK  status: ('A' for Active; 'I' for Inactive)
REMARK    1  A    between atoms: N1_8  and  N2_9 
REMARK    2  A    between atoms: N2_9  and  C6_10 
REMARK    3  A    between atoms: C9_13  and  N3_14 
REMARK    4  A    between atoms: N3_14  and  C10_15 
REMARK    5  A    between atoms: N3_14  and  C11_17 
ROOT
HETATM    1  C6  UNL     1      24.818   1.743  53.061  1.00  0.00     0.048 A 
HETATM    2  C7  UNL     1      24.179   1.050  52.058  1.00  0.00     0.033 A 
HETATM    3  C8  UNL     1      23.234   1.679  51.282  1.00  0.00     0.031 A 
HETATM    4  C9  UNL     1      22.882   3.010  51.463  1.00  0.00     0.032 A 
HETATM    5  C12 UNL     1      23.542   3.668  52.478  1.00  0.00     0.031 A 
HETATM    6  C13 UNL     1      24.496   3.063  53.274  1.00  0.00     0.033 A 
ENDROOT
BRANCH   1   7
HETATM    7  N2  UNL     1      25.807   1.153  53.873  1.00  0.00    -0.292 N 
HETATM    8  H4  UNL     1      25.493   0.890  54.857  1.00  0.00     0.187 HD
BRANCH   7   9
HETATM    9  N1  UNL     1      27.137   0.811  53.757  1.00  0.00    -0.230 N 
HETATM   10  C1  UNL     1      27.412  -0.492  53.577  1.00  0.00     0.287 A 
HETATM   11  O1  UNL     1      26.498  -1.383  53.493  1.00  0.00    -0.264 OA
HETATM   12  C2  UNL     1      28.681  -1.039  53.462  1.00  0.00     0.103 A 
HETATM   13 CL1  UNL     1      29.070  -2.729  53.237  1.00  0.00    -0.078 Cl
HETATM   14  C3  UNL     1      29.715  -0.156  53.541  1.00  0.00     0.031 A 
HETATM   15  C4  UNL     1      29.498   1.199  53.724  1.00  0.00     0.021 A 
HETATM   16  C5  UNL     1      28.189   1.619  53.825  1.00  0.00     0.120 A 
ENDBRANCH   7   9
ENDBRANCH   1   7
BRANCH   4  17
HETATM   17  N3  UNL     1      21.925   3.676  50.608  1.00  0.00    -0.355 N 
BRANCH  17  18
HETATM   18  C10 UNL     1      22.371   4.817  49.836  1.00  0.00     0.239 C 
HETATM   19 CL2  UNL     1      23.804   4.235  48.903  1.00  0.00    -0.109 Cl
ENDBRANCH  17  18
BRANCH  17  20
HETATM   20  C11 UNL     1      20.570   3.106  50.617  1.00  0.00     0.239 C 
HETATM   21 CL3  UNL     1      20.065   2.886  52.303  1.00  0.00    -0.109 Cl
ENDBRANCH  17  20
ENDBRANCH   4  17
TORSDOF 5
ENDMDL
MODEL 6
REMARK VINA RESULT:      -6.6      2.855      7.814
REMARK  5 active torsions:
REMARK  status: ('A' for Active; 'I' for Inactive)
REMARK    1  A    between atoms: N1_8  and  N2_9 
REMARK    2  A    between atoms: N2_9  and  C6_10 
REMARK    3  A    between atoms: C9_13  and  N3_14 
REMARK    4  A    between atoms: N3_14  and  C10_15 
REMARK    5  A    between atoms: N3_14  and  C11_17 
ROOT
HETATM    1  C6  UNL     1      22.024   0.760  53.333  1.00  0.00     0.048 A 
HETATM    2  C7  UNL     1      22.492  -0.400  53.908  1.00  0.00     0.033 A 
HETATM    3  C8  UNL     1      23.844  -0.639  53.972  1.00  0.00     0.031 A 
HETATM    4  C9  UNL     1      24.787   0.252  53.474  1.00  0.00     0.032 A 
HETATM    5  C12 UNL     1      24.279   1.399  52.905  1.00  0.00     0.031 A 
HETATM    6  C13 UNL     1      22.925   1.668  52.826  1.00  0.00     0.033 A 
ENDROOT
BRANCH   1   7
HETATM    7  N2  UNL     1      20.650   1.064  53.258  1.00  0.00    -0.292 N 
HETATM    8  H4  UNL     1      20.183   1.294  54.187  1.00  0.00     0.187 HD
BRANCH   7   9
HETATM    9  N1  UNL     1      19.685   1.141  52.277  1.00  0.00    -0.230 N 
HETATM   10  C1  UNL     1      19.270   2.372  51.933  1.00  0.00     0.287 A 
HETATM   11  O1  UNL     1      19.752   3.433  52.462  1.00  0.00    -0.264 OA
HETATM   12  C2  UNL     1      18.296   2.660  50.990  1.00  0.00     0.103 A 
HETATM   13 CL1  UNL     1      17.730   4.248  50.528  1.00  0.00    -0.078 Cl
HETATM   14  C3  UNL     1      17.730   1.582  50.378  1.00  0.00     0.031 A 
HETATM   15  C4  UNL     1      18.113   0.289  50.687  1.00  0.00     0.021 A 
HETATM   16  C5  UNL     1      19.093   0.134  51.643  1.00  0.00     0.120 A 
ENDBRANCH   7   9
ENDBRANCH   1   7
BRANCH   4  17
HETATM   17  N3  UNL     1      26.208   0.015  53.594  1.00  0.00    -0.355 N 
BRANCH  17  18
HETATM   18  C10 UNL     1      26.836   0.241  54.878  1.00  0.00     0.239 C 
HETATM   19 CL2  UNL     1      28.598  -0.055  54.609  1.00  0.00    -0.109 Cl
ENDBRANCH  17  18
BRANCH  17  20
HETATM   20  C11 UNL     1      26.875  -0.441  52.365  1.00  0.00     0.239 C 
HETATM   21 CL3  UNL     1      26.847  -2.214  52.336  1.00  0.00    -0.109 Cl
ENDBRANCH  17  20
ENDBRANCH   4  17
TORSDOF 5
ENDMDL
MODEL 7
REMARK VINA RESULT:      -6.6      1.913      2.683
REMARK  5 active torsions:
REMARK  status: ('A' for Active; 'I' for Inactive)
REMARK    1  A    between atoms: N1_8  and  N2_9 
REMARK    2  A    between atoms: N2_9  and  C6_10 
REMARK    3  A    between atoms: C9_13  and  N3_14 
REMARK    4  A    between atoms: N3_14  and  C10_15 
REMARK    5  A    between atoms: N3_14  and  C11_17 
ROOT
HETATM    1  C6  UNL     1      24.166   1.259  52.778  1.00  0.00     0.048 A 
HETATM    2  C7  UNL     1      23.129   0.393  52.511  1.00  0.00     0.033 A 
HETATM    3  C8  UNL     1      22.136   0.760  51.634  1.00  0.00     0.031 A 
HETATM    4  C9  UNL     1      22.123   1.990  50.988  1.00  0.00     0.032 A 
HETATM    5  C12 UNL     1      23.177   2.828  51.283  1.00  0.00     0.031 A 
HETATM    6  C13 UNL     1      24.190   2.487  52.159  1.00  0.00     0.033 A 
ENDROOT
BRANCH   1   7
HETATM    7  N2  UNL     1      25.220   0.926  53.652  1.00  0.00    -0.292 N 
HETATM    8  H4  UNL     1      24.922   0.569  54.611  1.00  0.00     0.187 HD
BRANCH   7   9
HETATM    9  N1  UNL     1      26.597   0.942  53.625  1.00  0.00    -0.230 N 
HETATM   10  C1  UNL     1      27.214  -0.248  53.531  1.00  0.00     0.287 A 
HETATM   11  O1  UNL     1      26.571  -1.351  53.446  1.00  0.00    -0.264 OA
HETATM   12  C2  UNL     1      28.586  -0.446  53.513  1.00  0.00     0.103 A 
HETATM   13 CL1  UNL     1      29.416  -1.982  53.400  1.00  0.00    -0.078 Cl
HETATM   14  C3  UNL     1      29.346   0.681  53.600  1.00  0.00     0.031 A 
HETATM   15  C4  UNL     1      28.773   1.936  53.699  1.00  0.00     0.021 A 
HETATM   16  C5  UNL     1      27.396   2.001  53.707  1.00  0.00     0.120 A 
ENDBRANCH   7   9
ENDBRANCH   1   7
BRANCH   4  17
HETATM   17  N3  UNL     1      21.102   2.345  50.028  1.00  0.00    -0.355 N 
BRANCH  17  18
HETATM   18  C10 UNL     1      20.289   3.512  50.291  1.00  0.00     0.239 C 
HETATM   19 CL2  UNL     1      19.453   3.173  51.856  1.00  0.00    -0.109 Cl
ENDBRANCH  17  18
BRANCH  17  20
HETATM   20  C11 UNL     1      21.001   1.456  48.861  1.00  0.00     0.239 C 
HETATM   21 CL3  UNL     1      22.362   1.798  47.775  1.00  0.00    -0.109 Cl
ENDBRANCH  17  20
ENDBRANCH   4  17
TORSDOF 5
ENDMDL
MODEL 8
REMARK VINA RESULT:      -6.5      2.456      7.637
REMARK  5 active torsions:
REMARK  status: ('A' for Active; 'I' for Inactive)
REMARK    1  A    between atoms: N1_8  and  N2_9 
REMARK    2  A    between atoms: N2_9  and  C6_10 
REMARK    3  A    between atoms: C9_13  and  N3_14 
REMARK    4  A    between atoms: N3_14  and  C10_15 
REMARK    5  A    between atoms: N3_14  and  C11_17 
ROOT
HETATM    1  C6  UNL     1      23.282   1.014  53.108  1.00  0.00     0.048 A 
HETATM    2  C7  UNL     1      23.593  -0.243  53.577  1.00  0.00     0.033 A 
HETATM    3  C8  UNL     1      24.908  -0.612  53.733  1.00  0.00     0.031 A 
HETATM    4  C9  UNL     1      25.966   0.237  53.433  1.00  0.00     0.032 A 
HETATM    5  C12 UNL     1      25.613   1.484  52.965  1.00  0.00     0.031 A 
HETATM    6  C13 UNL     1      24.301   1.885  52.799  1.00  0.00     0.033 A 
ENDROOT
BRANCH   1   7
HETATM    7  N2  UNL     1      21.952   1.451  52.948  1.00  0.00    -0.292 N 
HETATM    8  H4  UNL     1      21.698   2.341  53.475  1.00  0.00     0.187 HD
BRANCH   7   9
HETATM    9  N1  UNL     1      20.824   1.027  52.281  1.00  0.00    -0.230 N 
HETATM   10  C1  UNL     1      19.977   0.239  52.965  1.00  0.00     0.287 A 
HETATM   11  O1  UNL     1      20.179  -0.093  54.184  1.00  0.00    -0.264 OA
HETATM   12  C2  UNL     1      18.805  -0.309  52.468  1.00  0.00     0.103 A 
HETATM   13 CL1  UNL     1      17.689  -1.343  53.331  1.00  0.00    -0.078 Cl
HETATM   14  C3  UNL     1      18.514  -0.003  51.172  1.00  0.00     0.031 A 
HETATM   15  C4  UNL     1      19.344   0.803  50.413  1.00  0.00     0.021 A 
HETATM   16  C5  UNL     1      20.482   1.285  51.023  1.00  0.00     0.120 A 
ENDBRANCH   7   9
ENDBRANCH   1   7
BRANCH   4  17
HETATM   17  N3  UNL     1      27.344  -0.143  53.650  1.00  0.00    -0.355 N 
BRANCH  17  18
HETATM   18  C10 UNL     1      27.883  -1.241  52.877  1.00  0.00     0.239 C 
HETATM   19 CL2  UNL     1      29.584  -1.443  53.452  1.00  0.00    -0.109 Cl
ENDBRANCH  17  18
BRANCH  17  20
HETATM   20  C11 UNL     1      28.063   0.650  54.658  1.00  0.00     0.239 C 
HETATM   21 CL3  UNL     1      28.865   2.005  53.840  1.00  0.00    -0.109 Cl
ENDBRANCH  17  20
ENDBRANCH   4  17
TORSDOF 5
ENDMDL
MODEL 9
REMARK VINA RESULT:      -6.3      3.066      3.710
REMARK  5 active torsions:
REMARK  status: ('A' for Active; 'I' for Inactive)
REMARK    1  A    between atoms: N1_8  and  N2_9 
REMARK    2  A    between atoms: N2_9  and  C6_10 
REMARK    3  A    between atoms: C9_13  and  N3_14 
REMARK    4  A    between atoms: N3_14  and  C10_15 
REMARK    5  A    between atoms: N3_14  and  C11_17 
ROOT
HETATM    1  C6  UNL     1      24.844   2.072  52.588  1.00  0.00     0.048 A 
HETATM    2  C7  UNL     1      24.348   3.187  53.225  1.00  0.00     0.033 A 
HETATM    3  C8  UNL     1      23.608   4.107  52.522  1.00  0.00     0.031 A 
HETATM    4  C9  UNL     1      23.327   3.967  51.168  1.00  0.00     0.032 A 
HETATM    5  C12 UNL     1      23.843   2.839  50.567  1.00  0.00     0.031 A 
HETATM    6  C13 UNL     1      24.590   1.896  51.248  1.00  0.00     0.033 A 
ENDROOT
BRANCH   1   7
HETATM    7  N2  UNL     1      25.592   1.088  53.265  1.00  0.00    -0.292 N 
HETATM    8  H4  UNL     1      25.021   0.385  53.825  1.00  0.00     0.187 HD
BRANCH   7   9
HETATM    9  N1  UNL     1      26.922   0.765  53.427  1.00  0.00    -0.230 N 
HETATM   10  C1  UNL     1      27.259  -0.523  53.239  1.00  0.00     0.287 A 
HETATM   11  O1  UNL     1      26.405  -1.414  52.903  1.00  0.00    -0.264 OA
HETATM   12  C2  UNL     1      28.532  -1.051  53.377  1.00  0.00     0.103 A 
HETATM   13 CL1  UNL     1      28.998  -2.721  53.148  1.00  0.00    -0.078 Cl
HETATM   14  C3  UNL     1      29.504  -0.166  53.735  1.00  0.00     0.031 A 
HETATM   15  C4  UNL     1      29.223   1.173  53.942  1.00  0.00     0.021 A 
HETATM   16  C5  UNL     1      27.916   1.576  53.774  1.00  0.00     0.120 A 
ENDBRANCH   7   9
ENDBRANCH   1   7
BRANCH   4  17
HETATM   17  N3  UNL     1      22.504   4.914  50.451  1.00  0.00    -0.355 N 
BRANCH  17  18
HETATM   18  C10 UNL     1      21.385   5.516  51.144  1.00  0.00     0.239 C 
HETATM   19 CL2  UNL     1      21.560   7.295  50.884  1.00  0.00    -0.109 Cl
ENDBRANCH  17  18
BRANCH  17  20
HETATM   20  C11 UNL     1      22.905   5.167  49.058  1.00  0.00     0.239 C 
HETATM   21 CL3  UNL     1      21.497   4.904  48.012  1.00  0.00    -0.109 Cl
ENDBRANCH  17  20
ENDBRANCH   4  17
TORSDOF 5
ENDMDL
