MODEL 1
REMARK VINA RESULT:      -7.9      0.000      0.000
REMARK  5 active torsions:
REMARK  status: ('A' for Active; 'I' for Inactive)
REMARK    1  A    between atoms: C2_2  and  N1_3 
REMARK    2  A    between atoms: N1_3  and  C3_4 
REMARK    3  A    between atoms: C6_7  and  N2_8 
REMARK    4  A    between atoms: N2_8  and  C7_9 
REMARK    5  A    between atoms: C7_9  and  C8_10 
ROOT
HETATM    1  C3  UNL     1      24.362   2.691  50.163  1.00  0.00     0.045 C 
HETATM    2  C4  UNL     1      23.091   2.613  49.844  1.00  0.00    -0.031 C 
HETATM    3  C5  UNL     1      23.056   3.368  48.536  1.00  0.00     0.048 C 
HETATM    4  C6  UNL     1      21.757   2.097  50.329  1.00  0.00     0.131 C 
HETATM    5  C12 UNL     1      21.059   3.319  50.835  1.00  0.00     0.003 C 
HETATM    6  C13 UNL     1      21.194   4.395  51.643  1.00  0.00     0.170 C 
HETATM    7  C14 UNL     1      22.513   4.577  52.417  1.00  0.00     0.286 A 
HETATM    8  O2  UNL     1      23.519   4.975  53.160  1.00  0.00    -0.153 OA
HETATM    9  N4  UNL     1      23.610   3.703  52.484  1.00  0.00     0.112 N 
HETATM   10  C15 UNL     1      24.743   2.803  52.554  1.00  0.00     0.182 A 
HETATM   11  C16 UNL     1      25.310   2.545  53.753  1.00  0.00     0.044 A 
HETATM   12  C17 UNL     1      26.402   1.725  53.817  1.00  0.00     0.044 A 
HETATM   13  C18 UNL     1      26.816   1.237  52.615  1.00  0.00     0.117 A 
HETATM   14  F1  UNL     1      27.892   0.415  52.589  1.00  0.00    -0.206 F 
HETATM   15  C19 UNL     1      26.281   1.463  51.377  1.00  0.00     0.058 A 
HETATM   16  C20 UNL     1      25.204   2.269  51.307  1.00  0.00     0.031 A 
HETATM   17  H22 UNL     1      23.172   2.862  52.147  1.00  0.00     0.329 HD
ENDROOT
BRANCH   4  18
HETATM   18  N2  UNL     1      21.746   1.015  51.173  1.00  0.00    -0.408 N 
HETATM   19  H11 UNL     1      22.439   0.299  51.010  1.00  0.00     0.154 HD
BRANCH  18  20
HETATM   20  C7  UNL     1      20.696   0.667  52.002  1.00  0.00     0.158 C 
BRANCH  20  21
HETATM   21  C8  UNL     1      21.000   0.325  53.439  1.00  0.00     0.306 C 
HETATM   22  N3  UNL     1      20.144  -0.700  53.969  1.00  0.00     0.097 N 
HETATM   23  C9  UNL     1      20.998  -1.700  54.608  1.00  0.00     0.278 C 
HETATM   24  H15 UNL     1      19.527  -0.329  54.748  1.00  0.00     0.317 HD
HETATM   25  C10 UNL     1      22.268  -0.871  54.826  1.00  0.00     0.110 C 
HETATM   26  C11 UNL     1      22.394  -0.257  53.470  1.00  0.00     0.163 C 
HETATM   27  O1  UNL     1      23.432  -0.352  52.806  1.00  0.00    -0.296 OA
ENDBRANCH  20  21
ENDBRANCH  18  20
ENDBRANCH   4  18
BRANCH   1  28
HETATM   28  N1  UNL     1      25.357   3.335  49.400  1.00  0.00    -0.389 N 
HETATM   29  H6  UNL     1      25.633   2.774  48.539  1.00  0.00     0.159 HD
BRANCH  28  30
HETATM   30  C2  UNL     1      25.970   4.635  49.724  1.00  0.00     0.115 C 
HETATM   31  C1  UNL     1      27.189   4.894  48.895  1.00  0.00     0.026 C 
ENDBRANCH  28  30
ENDBRANCH   1  28
TORSDOF 5
ENDMDL
MODEL 2
REMARK VINA RESULT:      -7.4      2.512      4.326
REMARK  5 active torsions:
REMARK  status: ('A' for Active; 'I' for Inactive)
REMARK    1  A    between atoms: C2_2  and  N1_3 
REMARK    2  A    between atoms: N1_3  and  C3_4 
REMARK    3  A    between atoms: C6_7  and  N2_8 
REMARK    4  A    between atoms: N2_8  and  C7_9 
REMARK    5  A    between atoms: C7_9  and  C8_10 
ROOT
HETATM    1  C3  UNL     1      23.004   2.381  49.721  1.00  0.00     0.045 C 
HETATM    2  C4  UNL     1      22.464   1.618  50.643  1.00  0.00    -0.031 C 
HETATM    3  C5  UNL     1      21.543   0.748  49.820  1.00  0.00     0.048 C 
HETATM    4  C6  UNL     1      22.430   1.369  52.132  1.00  0.00     0.131 C 
HETATM    5  C12 UNL     1      21.142   1.987  52.573  1.00  0.00     0.003 C 
HETATM    6  C13 UNL     1      20.398   3.115  52.514  1.00  0.00     0.170 C 
HETATM    7  C14 UNL     1      20.950   4.324  51.736  1.00  0.00     0.286 A 
HETATM    8  O2  UNL     1      21.170   5.471  51.136  1.00  0.00    -0.153 OA
HETATM    9  N4  UNL     1      22.208   4.469  51.131  1.00  0.00     0.112 N 
HETATM   10  C15 UNL     1      23.507   4.619  50.505  1.00  0.00     0.182 A 
HETATM   11  C16 UNL     1      24.199   5.765  50.684  1.00  0.00     0.044 A 
HETATM   12  C17 UNL     1      25.408   5.924  50.065  1.00  0.00     0.044 A 
HETATM   13  C18 UNL     1      25.798   4.866  49.304  1.00  0.00     0.117 A 
HETATM   14  F1  UNL     1      26.985   4.940  48.656  1.00  0.00    -0.206 F 
HETATM   15  C19 UNL     1      25.140   3.686  49.089  1.00  0.00     0.058 A 
HETATM   16  C20 UNL     1      23.950   3.522  49.697  1.00  0.00     0.031 A 
HETATM   17  H22 UNL     1      22.700   3.720  51.591  1.00  0.00     0.329 HD
ENDROOT
BRANCH   4  18
HETATM   18  N2  UNL     1      23.535   1.708  52.873  1.00  0.00    -0.408 N 
HETATM   19  H11 UNL     1      23.512   2.596  53.352  1.00  0.00     0.154 HD
BRANCH  18  20
HETATM   20  C7  UNL     1      24.776   1.109  52.764  1.00  0.00     0.158 C 
BRANCH  20  21
HETATM   21  C8  UNL     1      25.921   1.685  53.557  1.00  0.00     0.306 C 
HETATM   22  N3  UNL     1      26.552   0.724  54.419  1.00  0.00     0.097 N 
HETATM   23  C9  UNL     1      27.993   0.806  54.192  1.00  0.00     0.278 C 
HETATM   24  H15 UNL     1      26.421   0.972  55.442  1.00  0.00     0.317 HD
HETATM   25  C10 UNL     1      28.089   2.201  53.566  1.00  0.00     0.110 C 
HETATM   26  C11 UNL     1      26.985   2.095  52.565  1.00  0.00     0.163 C 
HETATM   27  O1  UNL     1      27.169   2.329  51.366  1.00  0.00    -0.296 OA
ENDBRANCH  20  21
ENDBRANCH  18  20
ENDBRANCH   4  18
BRANCH   1  28
HETATM   28  N1  UNL     1      22.727   2.314  48.340  1.00  0.00    -0.389 N 
HETATM   29  H6  UNL     1      23.001   1.376  47.918  1.00  0.00     0.159 HD
BRANCH  28  30
HETATM   30  C2  UNL     1      22.129   3.396  47.538  1.00  0.00     0.115 C 
HETATM   31  C1  UNL     1      20.703   3.642  47.918  1.00  0.00     0.026 C 
ENDBRANCH  28  30
ENDBRANCH   1  28
TORSDOF 5
ENDMDL
MODEL 3
REMARK VINA RESULT:      -7.4      2.408      5.924
REMARK  5 active torsions:
REMARK  status: ('A' for Active; 'I' for Inactive)
REMARK    1  A    between atoms: C2_2  and  N1_3 
REMARK    2  A    between atoms: N1_3  and  C3_4 
REMARK    3  A    between atoms: C6_7  and  N2_8 
REMARK    4  A    between atoms: N2_8  and  C7_9 
REMARK    5  A    between atoms: C7_9  and  C8_10 
ROOT
HETATM    1  C3  UNL     1      22.721   3.292  52.178  1.00  0.00     0.045 C 
HETATM    2  C4  UNL     1      22.098   4.385  51.805  1.00  0.00    -0.031 C 
HETATM    3  C5  UNL     1      20.651   3.985  51.972  1.00  0.00     0.048 C 
HETATM    4  C6  UNL     1      22.327   5.779  51.272  1.00  0.00     0.131 C 
HETATM    5  C12 UNL     1      21.992   5.671  49.819  1.00  0.00     0.003 C 
HETATM    6  C13 UNL     1      22.232   4.956  48.696  1.00  0.00     0.170 C 
HETATM    7  C14 UNL     1      23.205   3.765  48.772  1.00  0.00     0.286 A 
HETATM    8  O2  UNL     1      23.961   2.711  48.567  1.00  0.00    -0.153 OA
HETATM    9  N4  UNL     1      23.988   3.350  49.860  1.00  0.00     0.112 N 
HETATM   10  C15 UNL     1      24.798   2.920  50.983  1.00  0.00     0.182 A 
HETATM   11  C16 UNL     1      26.094   2.599  50.780  1.00  0.00     0.044 A 
HETATM   12  C17 UNL     1      26.850   2.158  51.831  1.00  0.00     0.044 A 
HETATM   13  C18 UNL     1      26.185   2.087  53.017  1.00  0.00     0.117 A 
HETATM   14  F1  UNL     1      26.860   1.660  54.110  1.00  0.00    -0.206 F 
HETATM   15  C19 UNL     1      24.879   2.398  53.278  1.00  0.00     0.058 A 
HETATM   16  C20 UNL     1      24.130   2.835  52.248  1.00  0.00     0.031 A 
HETATM   17  H22 UNL     1      23.947   4.185  50.422  1.00  0.00     0.329 HD
ENDROOT
BRANCH   4  18
HETATM   18  N2  UNL     1      23.517   6.399  51.562  1.00  0.00    -0.408 N 
HETATM   19  H11 UNL     1      23.984   6.121  52.413  1.00  0.00     0.154 HD
BRANCH  18  20
HETATM   20  C7  UNL     1      23.963   7.571  50.980  1.00  0.00     0.158 C 
BRANCH  20  21
HETATM   21  C8  UNL     1      25.262   7.544  50.217  1.00  0.00     0.306 C 
HETATM   22  N3  UNL     1      25.965   6.297  50.343  1.00  0.00     0.097 N 
HETATM   23  C9  UNL     1      26.334   5.861  48.998  1.00  0.00     0.278 C 
HETATM   24  H15 UNL     1      26.887   6.419  50.854  1.00  0.00     0.317 HD
HETATM   25  C10 UNL     1      26.242   7.193  48.247  1.00  0.00     0.110 C 
HETATM   26  C11 UNL     1      24.916   7.665  48.750  1.00  0.00     0.163 C 
HETATM   27  O1  UNL     1      24.006   7.990  47.981  1.00  0.00    -0.296 OA
ENDBRANCH  20  21
ENDBRANCH  18  20
ENDBRANCH   4  18
BRANCH   1  28
HETATM   28  N1  UNL     1      22.098   2.104  52.612  1.00  0.00    -0.389 N 
HETATM   29  H6  UNL     1      21.516   2.252  53.491  1.00  0.00     0.159 HD
BRANCH  28  30
HETATM   30  C2  UNL     1      22.214   0.791  51.954  1.00  0.00     0.115 C 
HETATM   31  C1  UNL     1      21.503   0.768  50.638  1.00  0.00     0.026 C 
ENDBRANCH  28  30
ENDBRANCH   1  28
TORSDOF 5
ENDMDL
MODEL 4
REMARK VINA RESULT:      -7.3      7.534     10.256
REMARK  5 active torsions:
REMARK  status: ('A' for Active; 'I' for Inactive)
REMARK    1  A    between atoms: C2_2  and  N1_3 
REMARK    2  A    between atoms: N1_3  and  C3_4 
REMARK    3  A    between atoms: C6_7  and  N2_8 
REMARK    4  A    between atoms: N2_8  and  C7_9 
REMARK    5  A    between atoms: C7_9  and  C8_10 
ROOT
HETATM    1  C3  UNL     1      28.926   9.603  49.302  1.00  0.00     0.045 C 
HETATM    2  C4  UNL     1      30.233   9.506  49.220  1.00  0.00    -0.031 C 
HETATM    3  C5  UNL     1      30.645  10.958  49.158  1.00  0.00     0.048 C 
HETATM    4  C6  UNL     1      31.363   8.509  49.133  1.00  0.00     0.131 C 
HETATM    5  C12 UNL     1      31.757   8.532  47.691  1.00  0.00     0.003 C 
HETATM    6  C13 UNL     1      31.279   8.443  46.429  1.00  0.00     0.170 C 
HETATM    7  C14 UNL     1      29.768   8.230  46.225  1.00  0.00     0.286 A 
HETATM    8  O2  UNL     1      28.543   8.071  45.778  1.00  0.00    -0.153 OA
HETATM    9  N4  UNL     1      28.781   8.010  47.200  1.00  0.00     0.112 N 
HETATM   10  C15 UNL     1      27.761   7.783  48.204  1.00  0.00     0.182 A 
HETATM   11  C16 UNL     1      26.847   6.806  48.011  1.00  0.00     0.044 A 
HETATM   12  C17 UNL     1      25.862   6.615  48.940  1.00  0.00     0.044 A 
HETATM   13  C18 UNL     1      25.912   7.464  50.002  1.00  0.00     0.117 A 
HETATM   14  F1  UNL     1      24.973   7.342  50.970  1.00  0.00    -0.206 F 
HETATM   15  C19 UNL     1      26.811   8.465  50.248  1.00  0.00     0.058 A 
HETATM   16  C20 UNL     1      27.784   8.658  49.338  1.00  0.00     0.031 A 
HETATM   17  H22 UNL     1      29.369   7.752  47.975  1.00  0.00     0.329 HD
ENDROOT
BRANCH   4  18
HETATM   18  N2  UNL     1      31.173   7.262  49.676  1.00  0.00    -0.408 N 
HETATM   19  H11 UNL     1      30.391   7.149  50.304  1.00  0.00     0.154 HD
BRANCH  18  20
HETATM   20  C7  UNL     1      32.120   6.255  49.699  1.00  0.00     0.158 C 
BRANCH  20  21
HETATM   21  C8  UNL     1      32.475   5.576  48.401  1.00  0.00     0.306 C 
HETATM   22  N3  UNL     1      33.370   4.464  48.571  1.00  0.00     0.097 N 
HETATM   23  C9  UNL     1      32.807   3.330  47.841  1.00  0.00     0.278 C 
HETATM   24  H15 UNL     1      34.309   4.646  48.113  1.00  0.00     0.317 HD
HETATM   25  C10 UNL     1      31.870   4.066  46.878  1.00  0.00     0.110 C 
HETATM   26  C11 UNL     1      31.199   4.986  47.847  1.00  0.00     0.163 C 
HETATM   27  O1  UNL     1      29.969   5.039  47.949  1.00  0.00    -0.296 OA
ENDBRANCH  20  21
ENDBRANCH  18  20
ENDBRANCH   4  18
BRANCH   1  28
HETATM   28  N1  UNL     1      28.197  10.809  49.326  1.00  0.00    -0.389 N 
HETATM   29  H6  UNL     1      28.126  11.219  50.306  1.00  0.00     0.159 HD
BRANCH  28  30
HETATM   30  C2  UNL     1      27.588  11.460  48.152  1.00  0.00     0.115 C 
HETATM   31  C1  UNL     1      26.098  11.536  48.273  1.00  0.00     0.026 C 
ENDBRANCH  28  30
ENDBRANCH   1  28
TORSDOF 5
ENDMDL
MODEL 5
REMARK VINA RESULT:      -7.2      1.487      1.786
REMARK  5 active torsions:
REMARK  status: ('A' for Active; 'I' for Inactive)
REMARK    1  A    between atoms: C2_2  and  N1_3 
REMARK    2  A    between atoms: N1_3  and  C3_4 
REMARK    3  A    between atoms: C6_7  and  N2_8 
REMARK    4  A    between atoms: N2_8  and  C7_9 
REMARK    5  A    between atoms: C7_9  and  C8_10 
ROOT
HETATM    1  C3  UNL     1      25.076   3.744  50.216  1.00  0.00     0.045 C 
HETATM    2  C4  UNL     1      23.928   3.769  49.581  1.00  0.00    -0.031 C 
HETATM    3  C5  UNL     1      24.121   4.938  48.643  1.00  0.00     0.048 C 
HETATM    4  C6  UNL     1      22.576   3.100  49.510  1.00  0.00     0.131 C 
HETATM    5  C12 UNL     1      21.662   4.056  50.208  1.00  0.00     0.003 C 
HETATM    6  C13 UNL     1      21.499   4.777  51.340  1.00  0.00     0.170 C 
HETATM    7  C14 UNL     1      22.578   4.690  52.434  1.00  0.00     0.286 A 
HETATM    8  O2  UNL     1      23.341   4.810  53.497  1.00  0.00    -0.153 OA
HETATM    9  N4  UNL     1      23.711   3.861  52.474  1.00  0.00     0.112 N 
HETATM   10  C15 UNL     1      24.881   3.007  52.517  1.00  0.00     0.182 A 
HETATM   11  C16 UNL     1      25.179   2.348  53.658  1.00  0.00     0.044 A 
HETATM   12  C17 UNL     1      26.302   1.571  53.712  1.00  0.00     0.044 A 
HETATM   13  C18 UNL     1      27.029   1.545  52.562  1.00  0.00     0.117 A 
HETATM   14  F1  UNL     1      28.158   0.798  52.528  1.00  0.00    -0.206 F 
HETATM   15  C19 UNL     1      26.775   2.188  51.382  1.00  0.00     0.058 A 
HETATM   16  C20 UNL     1      25.669   2.954  51.322  1.00  0.00     0.031 A 
HETATM   17  H22 UNL     1      23.449   3.188  51.773  1.00  0.00     0.329 HD
ENDROOT
BRANCH   4  18
HETATM   18  N2  UNL     1      22.478   1.789  49.905  1.00  0.00    -0.408 N 
HETATM   19  H11 UNL     1      23.310   1.223  49.828  1.00  0.00     0.154 HD
BRANCH  18  20
HETATM   20  C7  UNL     1      21.292   1.103  50.087  1.00  0.00     0.158 C 
BRANCH  20  21
HETATM   21  C8  UNL     1      21.084   0.362  51.383  1.00  0.00     0.306 C 
HETATM   22  N3  UNL     1      22.286   0.235  52.160  1.00  0.00     0.097 N 
HETATM   23  C9  UNL     1      21.976   0.659  53.524  1.00  0.00     0.278 C 
HETATM   24  H15 UNL     1      22.587  -0.778  52.250  1.00  0.00     0.317 HD
HETATM   25  C10 UNL     1      20.452   0.507  53.514  1.00  0.00     0.110 C 
HETATM   26  C11 UNL     1      20.146   1.196  52.225  1.00  0.00     0.163 C 
HETATM   27  O1  UNL     1      19.336   2.127  52.160  1.00  0.00    -0.296 OA
ENDBRANCH  20  21
ENDBRANCH  18  20
ENDBRANCH   4  18
BRANCH   1  28
HETATM   28  N1  UNL     1      26.152   4.628  49.993  1.00  0.00    -0.389 N 
HETATM   29  H6  UNL     1      26.109   5.484  50.624  1.00  0.00     0.159 HD
BRANCH  28  30
HETATM   30  C2  UNL     1      27.232   4.425  49.011  1.00  0.00     0.115 C 
HETATM   31  C1  UNL     1      27.733   5.724  48.464  1.00  0.00     0.026 C 
ENDBRANCH  28  30
ENDBRANCH   1  28
TORSDOF 5
ENDMDL
MODEL 6
REMARK VINA RESULT:      -7.1      2.544      5.123
REMARK  5 active torsions:
REMARK  status: ('A' for Active; 'I' for Inactive)
REMARK    1  A    between atoms: C2_2  and  N1_3 
REMARK    2  A    between atoms: N1_3  and  C3_4 
REMARK    3  A    between atoms: C6_7  and  N2_8 
REMARK    4  A    between atoms: N2_8  and  C7_9 
REMARK    5  A    between atoms: C7_9  and  C8_10 
ROOT
HETATM    1  C3  UNL     1      21.294   3.212  51.938  1.00  0.00     0.045 C 
HETATM    2  C4  UNL     1      22.124   4.016  51.314  1.00  0.00    -0.031 C 
HETATM    3  C5  UNL     1      21.232   5.194  51.002  1.00  0.00     0.048 C 
HETATM    4  C6  UNL     1      23.543   4.128  50.811  1.00  0.00     0.131 C 
HETATM    5  C12 UNL     1      23.425   3.891  49.339  1.00  0.00     0.003 C 
HETATM    6  C13 UNL     1      22.920   3.051  48.408  1.00  0.00     0.170 C 
HETATM    7  C14 UNL     1      22.143   1.807  48.878  1.00  0.00     0.286 A 
HETATM    8  O2  UNL     1      21.438   0.707  49.003  1.00  0.00    -0.153 OA
HETATM    9  N4  UNL     1      21.954   1.344  50.190  1.00  0.00     0.112 N 
HETATM   10  C15 UNL     1      21.757   0.865  51.543  1.00  0.00     0.182 A 
HETATM   11  C16 UNL     1      21.926  -0.448  51.812  1.00  0.00     0.044 A 
HETATM   12  C17 UNL     1      21.705  -0.908  53.080  1.00  0.00     0.044 A 
HETATM   13  C18 UNL     1      21.323   0.047  53.972  1.00  0.00     0.117 A 
HETATM   14  F1  UNL     1      21.085  -0.324  55.252  1.00  0.00    -0.206 F 
HETATM   15  C19 UNL     1      21.139   1.385  53.755  1.00  0.00     0.058 A 
HETATM   16  C20 UNL     1      21.357   1.845  52.509  1.00  0.00     0.031 A 
HETATM   17  H22 UNL     1      22.680   1.864  50.655  1.00  0.00     0.329 HD
ENDROOT
BRANCH   4  18
HETATM   18  N2  UNL     1      24.519   3.405  51.452  1.00  0.00    -0.408 N 
HETATM   19  H11 UNL     1      25.047   2.751  50.893  1.00  0.00     0.154 HD
BRANCH  18  20
HETATM   20  C7  UNL     1      24.623   3.255  52.822  1.00  0.00     0.158 C 
BRANCH  20  21
HETATM   21  C8  UNL     1      25.520   2.169  53.358  1.00  0.00     0.306 C 
HETATM   22  N3  UNL     1      24.899   0.873  53.362  1.00  0.00     0.097 N 
HETATM   23  C9  UNL     1      25.830  -0.064  52.737  1.00  0.00     0.278 C 
HETATM   24  H15 UNL     1      24.765   0.508  54.349  1.00  0.00     0.317 HD
HETATM   25  C10 UNL     1      27.141   0.713  52.892  1.00  0.00     0.110 C 
HETATM   26  C11 UNL     1      26.690   2.053  52.408  1.00  0.00     0.163 C 
HETATM   27  O1  UNL     1      27.279   2.649  51.501  1.00  0.00    -0.296 OA
ENDBRANCH  20  21
ENDBRANCH  18  20
ENDBRANCH   4  18
BRANCH   1  28
HETATM   28  N1  UNL     1      19.937   3.484  52.203  1.00  0.00    -0.389 N 
HETATM   29  H6  UNL     1      19.811   4.320  52.849  1.00  0.00     0.159 HD
BRANCH  28  30
HETATM   30  C2  UNL     1      18.795   2.723  51.665  1.00  0.00     0.115 C 
HETATM   31  C1  UNL     1      18.679   2.875  50.181  1.00  0.00     0.026 C 
ENDBRANCH  28  30
ENDBRANCH   1  28
TORSDOF 5
ENDMDL
MODEL 7
REMARK VINA RESULT:      -6.8      2.482      4.398
REMARK  5 active torsions:
REMARK  status: ('A' for Active; 'I' for Inactive)
REMARK    1  A    between atoms: C2_2  and  N1_3 
REMARK    2  A    between atoms: N1_3  and  C3_4 
REMARK    3  A    between atoms: C6_7  and  N2_8 
REMARK    4  A    between atoms: N2_8  and  C7_9 
REMARK    5  A    between atoms: C7_9  and  C8_10 
ROOT
HETATM    1  C3  UNL     1      24.674   2.134  51.245  1.00  0.00     0.045 C 
HETATM    2  C4  UNL     1      24.852   2.864  50.169  1.00  0.00    -0.031 C 
HETATM    3  C5  UNL     1      26.336   3.140  50.229  1.00  0.00     0.048 C 
HETATM    4  C6  UNL     1      24.122   3.499  49.010  1.00  0.00     0.131 C 
HETATM    5  C12 UNL     1      24.030   4.943  49.388  1.00  0.00     0.003 C 
HETATM    6  C13 UNL     1      23.664   5.789  50.378  1.00  0.00     0.170 C 
HETATM    7  C14 UNL     1      23.102   5.199  51.684  1.00  0.00     0.286 A 
HETATM    8  O2  UNL     1      22.621   4.965  52.883  1.00  0.00    -0.153 OA
HETATM    9  N4  UNL     1      22.811   3.857  51.978  1.00  0.00     0.112 N 
HETATM   10  C15 UNL     1      22.509   2.473  52.284  1.00  0.00     0.182 A 
HETATM   11  C16 UNL     1      21.341   2.168  52.889  1.00  0.00     0.044 A 
HETATM   12  C17 UNL     1      21.071   0.867  53.212  1.00  0.00     0.044 A 
HETATM   13  C18 UNL     1      22.050  -0.016  52.873  1.00  0.00     0.117 A 
HETATM   14  F1  UNL     1      21.863  -1.327  53.155  1.00  0.00    -0.206 F 
HETATM   15  C19 UNL     1      23.246   0.237  52.260  1.00  0.00     0.058 A 
HETATM   16  C20 UNL     1      23.518   1.516  51.939  1.00  0.00     0.031 A 
HETATM   17  H22 UNL     1      22.797   3.483  51.044  1.00  0.00     0.329 HD
ENDROOT
BRANCH   4  18
HETATM   18  N2  UNL     1      22.951   2.921  48.584  1.00  0.00    -0.408 N 
HETATM   19  H11 UNL     1      22.984   1.941  48.342  1.00  0.00     0.154 HD
BRANCH  18  20
HETATM   20  C7  UNL     1      21.835   3.615  48.155  1.00  0.00     0.158 C 
BRANCH  20  21
HETATM   21  C8  UNL     1      20.479   2.992  48.365  1.00  0.00     0.306 C 
HETATM   22  N3  UNL     1      20.534   1.568  48.549  1.00  0.00     0.097 N 
HETATM   23  C9  UNL     1      19.747   1.247  49.738  1.00  0.00     0.278 C 
HETATM   24  H15 UNL     1      20.054   1.053  47.756  1.00  0.00     0.317 HD
HETATM   25  C10 UNL     1      18.877   2.504  49.834  1.00  0.00     0.110 C 
HETATM   26  C11 UNL     1      19.934   3.546  49.662  1.00  0.00     0.163 C 
HETATM   27  O1  UNL     1      20.087   4.460  50.478  1.00  0.00    -0.296 OA
ENDBRANCH  20  21
ENDBRANCH  18  20
ENDBRANCH   4  18
BRANCH   1  28
HETATM   28  N1  UNL     1      25.684   1.757  52.153  1.00  0.00    -0.389 N 
HETATM   29  H6  UNL     1      26.407   1.115  51.710  1.00  0.00     0.159 HD
BRANCH  28  30
HETATM   30  C2  UNL     1      25.766   2.183  53.562  1.00  0.00     0.115 C 
HETATM   31  C1  UNL     1      26.366   1.120  54.427  1.00  0.00     0.026 C 
ENDBRANCH  28  30
ENDBRANCH   1  28
TORSDOF 5
ENDMDL
MODEL 8
REMARK VINA RESULT:      -6.8      4.878      7.801
REMARK  5 active torsions:
REMARK  status: ('A' for Active; 'I' for Inactive)
REMARK    1  A    between atoms: C2_2  and  N1_3 
REMARK    2  A    between atoms: N1_3  and  C3_4 
REMARK    3  A    between atoms: C6_7  and  N2_8 
REMARK    4  A    between atoms: N2_8  and  C7_9 
REMARK    5  A    between atoms: C7_9  and  C8_10 
ROOT
HETATM    1  C3  UNL     1      29.338   7.400  46.936  1.00  0.00     0.045 C 
HETATM    2  C4  UNL     1      28.084   7.557  47.293  1.00  0.00    -0.031 C 
HETATM    3  C5  UNL     1      27.532   8.352  46.133  1.00  0.00     0.048 C 
HETATM    4  C6  UNL     1      27.103   7.265  48.403  1.00  0.00     0.131 C 
HETATM    5  C12 UNL     1      26.967   8.572  49.118  1.00  0.00     0.003 C 
HETATM    6  C13 UNL     1      27.666   9.578  49.691  1.00  0.00     0.170 C 
HETATM    7  C14 UNL     1      29.203   9.500  49.698  1.00  0.00     0.286 A 
HETATM    8  O2  UNL     1      30.497   9.689  49.822  1.00  0.00    -0.153 OA
HETATM    9  N4  UNL     1      30.023   8.446  49.263  1.00  0.00     0.112 N 
HETATM   10  C15 UNL     1      30.870   7.360  48.814  1.00  0.00     0.182 A 
HETATM   11  C16 UNL     1      31.905   6.964  49.586  1.00  0.00     0.044 A 
HETATM   12  C17 UNL     1      32.728   5.964  49.148  1.00  0.00     0.044 A 
HETATM   13  C18 UNL     1      32.401   5.454  47.929  1.00  0.00     0.117 A 
HETATM   14  F1  UNL     1      33.163   4.458  47.420  1.00  0.00    -0.206 F 
HETATM   15  C19 UNL     1      31.368   5.814  47.108  1.00  0.00     0.058 A 
HETATM   16  C20 UNL     1      30.553   6.797  47.535  1.00  0.00     0.031 A 
HETATM   17  H22 UNL     1      29.340   7.706  49.235  1.00  0.00     0.329 HD
ENDROOT
BRANCH   4  18
HETATM   18  N2  UNL     1      27.331   6.172  49.202  1.00  0.00    -0.408 N 
HETATM   19  H11 UNL     1      28.149   6.199  49.794  1.00  0.00     0.154 HD
BRANCH  18  20
HETATM   20  C7  UNL     1      26.742   4.933  49.037  1.00  0.00     0.158 C 
BRANCH  20  21
HETATM   21  C8  UNL     1      25.594   4.559  49.939  1.00  0.00     0.306 C 
HETATM   22  N3  UNL     1      24.393   4.235  49.221  1.00  0.00     0.097 N 
HETATM   23  C9  UNL     1      23.896   2.964  49.744  1.00  0.00     0.278 C 
HETATM   24  H15 UNL     1      23.620   4.934  49.418  1.00  0.00     0.317 HD
HETATM   25  C10 UNL     1      24.609   2.932  51.099  1.00  0.00     0.110 C 
HETATM   26  C11 UNL     1      25.990   3.289  50.657  1.00  0.00     0.163 C 
HETATM   27  O1  UNL     1      26.965   2.583  50.934  1.00  0.00    -0.296 OA
ENDBRANCH  20  21
ENDBRANCH  18  20
ENDBRANCH   4  18
BRANCH   1  28
HETATM   28  N1  UNL     1      29.914   7.887  45.745  1.00  0.00    -0.389 N 
HETATM   29  H6  UNL     1      29.474   7.456  44.877  1.00  0.00     0.159 HD
BRANCH  28  30
HETATM   30  C2  UNL     1      31.002   8.877  45.668  1.00  0.00     0.115 C 
HETATM   31  C1  UNL     1      30.557  10.225  46.141  1.00  0.00     0.026 C 
ENDBRANCH  28  30
ENDBRANCH   1  28
TORSDOF 5
ENDMDL
MODEL 9
REMARK VINA RESULT:      -6.7      3.119      6.909
REMARK  5 active torsions:
REMARK  status: ('A' for Active; 'I' for Inactive)
REMARK    1  A    between atoms: C2_2  and  N1_3 
REMARK    2  A    between atoms: N1_3  and  C3_4 
REMARK    3  A    between atoms: C6_7  and  N2_8 
REMARK    4  A    between atoms: N2_8  and  C7_9 
REMARK    5  A    between atoms: C7_9  and  C8_10 
ROOT
HETATM    1  C3  UNL     1      22.955   5.406  51.593  1.00  0.00     0.045 C 
HETATM    2  C4  UNL     1      23.109   6.482  50.858  1.00  0.00    -0.031 C 
HETATM    3  C5  UNL     1      21.773   7.166  51.031  1.00  0.00     0.048 C 
HETATM    4  C6  UNL     1      24.082   7.185  49.942  1.00  0.00     0.131 C 
HETATM    5  C12 UNL     1      23.551   6.910  48.571  1.00  0.00     0.003 C 
HETATM    6  C13 UNL     1      23.128   5.928  47.743  1.00  0.00     0.170 C 
HETATM    7  C14 UNL     1      23.139   4.476  48.253  1.00  0.00     0.286 A 
HETATM    8  O2  UNL     1      23.029   3.180  48.438  1.00  0.00    -0.153 OA
HETATM    9  N4  UNL     1      23.634   3.986  49.472  1.00  0.00     0.112 N 
HETATM   10  C15 UNL     1      24.144   3.478  50.730  1.00  0.00     0.182 A 
HETATM   11  C16 UNL     1      24.908   2.364  50.733  1.00  0.00     0.044 A 
HETATM   12  C17 UNL     1      25.360   1.862  51.922  1.00  0.00     0.044 A 
HETATM   13  C18 UNL     1      24.974   2.570  53.019  1.00  0.00     0.117 A 
HETATM   14  F1  UNL     1      25.380   2.142  54.238  1.00  0.00    -0.206 F 
HETATM   15  C19 UNL     1      24.206   3.700  53.073  1.00  0.00     0.058 A 
HETATM   16  C20 UNL     1      23.759   4.200  51.906  1.00  0.00     0.031 A 
HETATM   17  H22 UNL     1      24.205   4.768  49.745  1.00  0.00     0.329 HD
ENDROOT
BRANCH   4  18
HETATM   18  N2  UNL     1      25.424   6.951  50.116  1.00  0.00    -0.408 N 
HETATM   19  H11 UNL     1      25.686   6.075  50.542  1.00  0.00     0.154 HD
BRANCH  18  20
HETATM   20  C7  UNL     1      26.410   7.919  50.062  1.00  0.00     0.158 C 
BRANCH  20  21
HETATM   21  C8  UNL     1      27.319   7.949  48.860  1.00  0.00     0.306 C 
HETATM   22  N3  UNL     1      28.627   8.466  49.153  1.00  0.00     0.097 N 
HETATM   23  C9  UNL     1      29.605   7.528  48.606  1.00  0.00     0.278 C 
HETATM   24  H15 UNL     1      28.809   9.379  48.644  1.00  0.00     0.317 HD
HETATM   25  C10 UNL     1      28.733   6.795  47.582  1.00  0.00     0.110 C 
HETATM   26  C11 UNL     1      27.539   6.515  48.435  1.00  0.00     0.163 C 
HETATM   27  O1  UNL     1      27.087   5.373  48.568  1.00  0.00    -0.296 OA
ENDBRANCH  20  21
ENDBRANCH  18  20
ENDBRANCH   4  18
BRANCH   1  28
HETATM   28  N1  UNL     1      21.795   5.075  52.324  1.00  0.00    -0.389 N 
HETATM   29  H6  UNL     1      21.576   5.791  53.081  1.00  0.00     0.159 HD
BRANCH  28  30
HETATM   30  C2  UNL     1      20.955   3.886  52.096  1.00  0.00     0.115 C 
HETATM   31  C1  UNL     1      20.220   3.969  50.795  1.00  0.00     0.026 C 
ENDBRANCH  28  30
ENDBRANCH   1  28
TORSDOF 5
ENDMDL
