MODEL 1
REMARK VINA RESULT:      -8.4      0.000      0.000
REMARK  2 active torsions:
REMARK  status: ('A' for Active; 'I' for Inactive)
REMARK    1  A    between atoms: N1_1  and  C1_2 
REMARK    2  A    between atoms: C3_4  and  S1_5 
ROOT
HETATM    1  C1  UNL     1      25.052  -0.659  54.633  1.00  0.00     0.011 C 
HETATM    2  C2  UNL     1      23.829  -0.721  54.172  1.00  0.00     0.063 C 
HETATM    3  C3  UNL     1      22.564  -0.640  53.456  1.00  0.00     0.078 C 
HETATM    4  C4  UNL     1      21.785   0.573  53.719  1.00  0.00     0.001 C 
HETATM    5  C5  UNL     1      20.977   1.097  52.822  1.00  0.00    -0.029 C 
HETATM    6  C6  UNL     1      20.958   0.477  51.695  1.00  0.00     0.012 C 
HETATM    7  C7  UNL     1      22.334   0.831  51.338  1.00  0.00     0.002 C 
HETATM    8  C8  UNL     1      22.780   2.007  50.903  1.00  0.00     0.011 C 
HETATM    9  C9  UNL     1      24.027   2.652  50.484  1.00  0.00    -0.036 A 
HETATM   10  C10 UNL     1      24.215   3.480  49.422  1.00  0.00     0.011 A 
HETATM   11  C11 UNL     1      25.499   3.920  49.255  1.00  0.00     0.001 A 
HETATM   12  C12 UNL     1      26.550   3.585  50.063  1.00  0.00     0.009 A 
HETATM   13  C13 UNL     1      26.368   2.746  51.141  1.00  0.00    -0.033 A 
HETATM   14  C14 UNL     1      25.051   2.309  51.293  1.00  0.00     0.020 A 
HETATM   15  C15 UNL     1      27.362   2.226  52.161  1.00  0.00     0.213 C 
HETATM   16  O1  UNL     1      26.786   1.001  52.607  1.00  0.00    -0.358 OA
HETATM   17  C16 UNL     1      27.205   0.428  53.780  1.00  0.00     0.137 C 
HETATM   18  C17 UNL     1      26.435  -0.262  54.597  1.00  0.00     0.049 C 
ENDROOT
BRANCH   1  19
HETATM   19  N1  UNL     1      24.521  -1.442  55.696  1.00  0.00    -0.402 N 
HETATM   20  H1  UNL     1      23.683  -1.843  56.175  1.00  0.00     0.156 HD
HETATM   21  H2  UNL     1      24.733  -2.024  56.562  1.00  0.00     0.156 HD
ENDBRANCH   1  19
BRANCH   3  22
HETATM   22  S1  UNL     1      21.520  -1.829  54.494  1.00  0.00    -0.173 SA
HETATM   23  H5  UNL     1      22.044  -1.923  55.770  1.00  0.00     0.102 HD
ENDBRANCH   3  22
TORSDOF 2
ENDMDL
MODEL 2
REMARK VINA RESULT:      -7.9      2.411      4.801
REMARK  2 active torsions:
REMARK  status: ('A' for Active; 'I' for Inactive)
REMARK    1  A    between atoms: N1_1  and  C1_2 
REMARK    2  A    between atoms: C3_4  and  S1_5 
ROOT
HETATM    1  C1  UNL     1      25.895  -0.220  54.760  1.00  0.00     0.011 C 
HETATM    2  C2  UNL     1      26.334   0.738  53.984  1.00  0.00     0.063 C 
HETATM    3  C3  UNL     1      26.564   1.822  53.041  1.00  0.00     0.078 C 
HETATM    4  C4  UNL     1      26.753   1.399  51.651  1.00  0.00     0.001 C 
HETATM    5  C5  UNL     1      26.413   2.159  50.632  1.00  0.00    -0.029 C 
HETATM    6  C6  UNL     1      25.872   3.280  50.961  1.00  0.00     0.012 C 
HETATM    7  C7  UNL     1      24.658   2.672  51.509  1.00  0.00     0.002 C 
HETATM    8  C8  UNL     1      23.634   2.156  50.832  1.00  0.00     0.011 C 
HETATM    9  C9  UNL     1      22.343   1.507  51.069  1.00  0.00    -0.036 A 
HETATM   10  C10 UNL     1      21.169   1.737  50.422  1.00  0.00     0.011 A 
HETATM   11  C11 UNL     1      20.110   0.997  50.869  1.00  0.00     0.001 A 
HETATM   12  C12 UNL     1      20.169   0.083  51.885  1.00  0.00     0.009 A 
HETATM   13  C13 UNL     1      21.355  -0.156  52.546  1.00  0.00    -0.033 A 
HETATM   14  C14 UNL     1      22.422   0.609  52.073  1.00  0.00     0.020 A 
HETATM   15  C15 UNL     1      21.668  -1.095  53.694  1.00  0.00     0.213 C 
HETATM   16  O1  UNL     1      22.796  -0.498  54.328  1.00  0.00    -0.358 OA
HETATM   17  C16 UNL     1      23.584  -1.236  55.174  1.00  0.00     0.137 C 
HETATM   18  C17 UNL     1      24.884  -1.078  55.319  1.00  0.00     0.049 C 
ENDROOT
BRANCH   1  19
HETATM   19  N1  UNL     1      27.258  -0.304  55.158  1.00  0.00    -0.402 N 
HETATM   20  H1  UNL     1      28.037  -0.879  55.553  1.00  0.00     0.156 HD
HETATM   21  H2  UNL     1      28.190   0.204  55.254  1.00  0.00     0.156 HD
ENDBRANCH   1  19
BRANCH   3  22
HETATM   22  S1  UNL     1      28.375   2.215  53.425  1.00  0.00    -0.173 SA
HETATM   23  H5  UNL     1      28.979   1.120  54.013  1.00  0.00     0.102 HD
ENDBRANCH   3  22
TORSDOF 2
ENDMDL
MODEL 3
REMARK VINA RESULT:      -7.8      2.331      4.867
REMARK  2 active torsions:
REMARK  status: ('A' for Active; 'I' for Inactive)
REMARK    1  A    between atoms: N1_1  and  C1_2 
REMARK    2  A    between atoms: C3_4  and  S1_5 
ROOT
HETATM    1  C1  UNL     1      22.179   0.496  52.321  1.00  0.00     0.011 C 
HETATM    2  C2  UNL     1      22.646   1.290  51.392  1.00  0.00     0.063 C 
HETATM    3  C3  UNL     1      23.406   2.115  50.466  1.00  0.00     0.078 C 
HETATM    4  C4  UNL     1      23.737   3.454  50.962  1.00  0.00     0.001 C 
HETATM    5  C5  UNL     1      24.821   4.096  50.583  1.00  0.00    -0.029 C 
HETATM    6  C6  UNL     1      25.574   3.439  49.773  1.00  0.00     0.012 C 
HETATM    7  C7  UNL     1      25.959   2.428  50.760  1.00  0.00     0.002 C 
HETATM    8  C8  UNL     1      26.826   2.563  51.761  1.00  0.00     0.011 C 
HETATM    9  C9  UNL     1      27.400   1.789  52.864  1.00  0.00    -0.036 A 
HETATM   10  C10 UNL     1      28.699   1.753  53.263  1.00  0.00     0.011 A 
HETATM   11  C11 UNL     1      28.957   0.918  54.314  1.00  0.00     0.001 A 
HETATM   12  C12 UNL     1      28.018   0.155  54.953  1.00  0.00     0.009 A 
HETATM   13  C13 UNL     1      26.699   0.185  54.556  1.00  0.00    -0.033 A 
HETATM   14  C14 UNL     1      26.459   1.044  53.481  1.00  0.00     0.020 A 
HETATM   15  C15 UNL     1      25.494  -0.565  55.088  1.00  0.00     0.213 C 
HETATM   16  O1  UNL     1      24.605  -0.620  53.975  1.00  0.00    -0.358 OA
HETATM   17  C16 UNL     1      23.276  -0.896  54.166  1.00  0.00     0.137 C 
HETATM   18  C17 UNL     1      22.293  -0.401  53.441  1.00  0.00     0.049 C 
ENDROOT
BRANCH   1  19
HETATM   19  N1  UNL     1      20.920   0.826  51.747  1.00  0.00    -0.402 N 
HETATM   20  H1  UNL     1      20.375   1.134  50.910  1.00  0.00     0.156 HD
HETATM   21  H2  UNL     1      19.871   0.930  51.904  1.00  0.00     0.156 HD
ENDBRANCH   1  19
BRANCH   3  22
HETATM   22  S1  UNL     1      22.029   2.631  49.275  1.00  0.00    -0.173 SA
HETATM   23  H5  UNL     1      20.848   2.811  49.972  1.00  0.00     0.102 HD
ENDBRANCH   3  22
TORSDOF 2
ENDMDL
MODEL 4
REMARK VINA RESULT:      -7.7      2.928      5.213
REMARK  2 active torsions:
REMARK  status: ('A' for Active; 'I' for Inactive)
REMARK    1  A    between atoms: N1_1  and  C1_2 
REMARK    2  A    between atoms: C3_4  and  S1_5 
ROOT
HETATM    1  C1  UNL     1      26.211   2.820  51.161  1.00  0.00     0.011 C 
HETATM    2  C2  UNL     1      25.092   3.247  50.634  1.00  0.00     0.063 C 
HETATM    3  C3  UNL     1      23.730   3.569  50.236  1.00  0.00     0.078 C 
HETATM    4  C4  UNL     1      23.106   2.595  49.337  1.00  0.00     0.001 C 
HETATM    5  C5  UNL     1      21.807   2.382  49.323  1.00  0.00    -0.029 C 
HETATM    6  C6  UNL     1      21.146   3.073  50.184  1.00  0.00     0.012 C 
HETATM    7  C7  UNL     1      21.712   2.390  51.349  1.00  0.00     0.002 C 
HETATM    8  C8  UNL     1      21.408   1.176  51.802  1.00  0.00     0.011 C 
HETATM    9  C9  UNL     1      21.774   0.254  52.879  1.00  0.00    -0.036 A 
HETATM   10  C10 UNL     1      20.940  -0.507  53.637  1.00  0.00     0.011 A 
HETATM   11  C11 UNL     1      21.559  -1.263  54.594  1.00  0.00     0.001 A 
HETATM   12  C12 UNL     1      22.909  -1.291  54.814  1.00  0.00     0.009 A 
HETATM   13  C13 UNL     1      23.762  -0.524  54.050  1.00  0.00    -0.033 A 
HETATM   14  C14 UNL     1      23.108   0.240  53.080  1.00  0.00     0.020 A 
HETATM   15  C15 UNL     1      25.269  -0.375  54.107  1.00  0.00     0.213 C 
HETATM   16  O1  UNL     1      25.507   0.920  53.562  1.00  0.00    -0.358 OA
HETATM   17  C16 UNL     1      26.757   1.263  53.116  1.00  0.00     0.137 C 
HETATM   18  C17 UNL     1      27.000   2.067  52.102  1.00  0.00     0.049 C 
ENDROOT
BRANCH   1  19
HETATM   19  N1  UNL     1      26.809   3.630  50.156  1.00  0.00    -0.402 N 
HETATM   20  H1  UNL     1      27.355   4.486  49.910  1.00  0.00     0.156 HD
HETATM   21  H2  UNL     1      26.993   3.763  49.115  1.00  0.00     0.156 HD
ENDBRANCH   1  19
BRANCH   3  22
HETATM   22  S1  UNL     1      24.071   4.909  48.944  1.00  0.00    -0.173 SA
HETATM   23  H5  UNL     1      23.942   4.380  47.673  1.00  0.00     0.102 HD
ENDBRANCH   3  22
TORSDOF 2
ENDMDL
MODEL 5
REMARK VINA RESULT:      -7.7      2.198      3.827
REMARK  2 active torsions:
REMARK  status: ('A' for Active; 'I' for Inactive)
REMARK    1  A    between atoms: N1_1  and  C1_2 
REMARK    2  A    between atoms: C3_4  and  S1_5 
ROOT
HETATM    1  C1  UNL     1      21.270  -0.626  53.931  1.00  0.00     0.011 C 
HETATM    2  C2  UNL     1      21.169   0.094  52.843  1.00  0.00     0.063 C 
HETATM    3  C3  UNL     1      21.326   0.905  51.645  1.00  0.00     0.078 C 
HETATM    4  C4  UNL     1      21.458   2.344  51.889  1.00  0.00     0.001 C 
HETATM    5  C5  UNL     1      22.143   3.132  51.089  1.00  0.00    -0.029 C 
HETATM    6  C6  UNL     1      22.710   2.529  50.103  1.00  0.00     0.012 C 
HETATM    7  C7  UNL     1      23.655   1.789  50.942  1.00  0.00     0.002 C 
HETATM    8  C8  UNL     1      24.750   2.260  51.534  1.00  0.00     0.011 C 
HETATM    9  C9  UNL     1      25.847   1.806  52.393  1.00  0.00    -0.036 A 
HETATM   10  C10 UNL     1      27.168   2.108  52.279  1.00  0.00     0.011 A 
HETATM   11  C11 UNL     1      27.976   1.521  53.213  1.00  0.00     0.001 A 
HETATM   12  C12 UNL     1      27.542   0.687  54.208  1.00  0.00     0.009 A 
HETATM   13  C13 UNL     1      26.205   0.376  54.331  1.00  0.00    -0.033 A 
HETATM   14  C14 UNL     1      25.399   0.986  53.367  1.00  0.00     0.020 A 
HETATM   15  C15 UNL     1      25.491  -0.517  55.325  1.00  0.00     0.213 C 
HETATM   16  O1  UNL     1      24.317  -0.933  54.632  1.00  0.00    -0.358 OA
HETATM   17  C16 UNL     1      23.252  -1.448  55.324  1.00  0.00     0.137 C 
HETATM   18  C17 UNL     1      21.988  -1.291  54.986  1.00  0.00     0.049 C 
ENDROOT
BRANCH   1  19
HETATM   19  N1  UNL     1      19.850  -0.662  53.848  1.00  0.00    -0.402 N 
HETATM   20  H1  UNL     1      18.926  -0.494  54.307  1.00  0.00     0.156 HD
HETATM   21  H2  UNL     1      19.000  -0.893  53.249  1.00  0.00     0.156 HD
ENDBRANCH   1  19
BRANCH   3  22
HETATM   22  S1  UNL     1      19.539   0.926  51.023  1.00  0.00    -0.173 SA
HETATM   23  H5  UNL     1      19.515   0.722  49.655  1.00  0.00     0.102 HD
ENDBRANCH   3  22
TORSDOF 2
ENDMDL
MODEL 6
REMARK VINA RESULT:      -7.6      1.870      2.587
REMARK  2 active torsions:
REMARK  status: ('A' for Active; 'I' for Inactive)
REMARK    1  A    between atoms: N1_1  and  C1_2 
REMARK    2  A    between atoms: C3_4  and  S1_5 
ROOT
HETATM    1  C1  UNL     1      21.712  -0.706  53.822  1.00  0.00     0.011 C 
HETATM    2  C2  UNL     1      20.895  -0.236  52.913  1.00  0.00     0.063 C 
HETATM    3  C3  UNL     1      20.212   0.379  51.785  1.00  0.00     0.078 C 
HETATM    4  C4  UNL     1      19.942   1.811  51.937  1.00  0.00     0.001 C 
HETATM    5  C5  UNL     1      19.881   2.627  50.906  1.00  0.00    -0.029 C 
HETATM    6  C6  UNL     1      20.112   2.069  49.770  1.00  0.00     0.012 C 
HETATM    7  C7  UNL     1      21.521   1.791  50.055  1.00  0.00     0.002 C 
HETATM    8  C8  UNL     1      22.533   2.656  50.053  1.00  0.00     0.011 C 
HETATM    9  C9  UNL     1      23.979   2.695  50.284  1.00  0.00    -0.036 A 
HETATM   10  C10 UNL     1      24.917   3.354  49.553  1.00  0.00     0.011 A 
HETATM   11  C11 UNL     1      26.203   3.195  49.988  1.00  0.00     0.001 A 
HETATM   12  C12 UNL     1      26.574   2.443  51.069  1.00  0.00     0.009 A 
HETATM   13  C13 UNL     1      25.630   1.772  51.816  1.00  0.00    -0.033 A 
HETATM   14  C14 UNL     1      24.324   1.949  51.354  1.00  0.00     0.020 A 
HETATM   15  C15 UNL     1      25.789   0.880  53.031  1.00  0.00     0.213 C 
HETATM   16  O1  UNL     1      24.649   0.027  52.982  1.00  0.00    -0.358 OA
HETATM   17  C16 UNL     1      24.254  -0.663  54.099  1.00  0.00     0.137 C 
HETATM   18  C17 UNL     1      23.005  -0.947  54.406  1.00  0.00     0.049 C 
ENDROOT
BRANCH   1  19
HETATM   19  N1  UNL     1      20.513  -1.177  54.427  1.00  0.00    -0.402 N 
HETATM   20  H1  UNL     1      19.750  -1.029  55.126  1.00  0.00     0.156 HD
HETATM   21  H2  UNL     1      19.779  -1.948  54.464  1.00  0.00     0.156 HD
ENDBRANCH   1  19
BRANCH   3  22
HETATM   22  S1  UNL     1      18.448  -0.235  52.092  1.00  0.00    -0.173 SA
HETATM   23  H5  UNL     1      18.477  -1.546  52.529  1.00  0.00     0.102 HD
ENDBRANCH   3  22
TORSDOF 2
ENDMDL
MODEL 7
REMARK VINA RESULT:      -7.6      1.886      4.106
REMARK  2 active torsions:
REMARK  status: ('A' for Active; 'I' for Inactive)
REMARK    1  A    between atoms: N1_1  and  C1_2 
REMARK    2  A    between atoms: C3_4  and  S1_5 
ROOT
HETATM    1  C1  UNL     1      22.276   0.607  53.268  1.00  0.00     0.011 C 
HETATM    2  C2  UNL     1      23.496   0.266  53.595  1.00  0.00     0.063 C 
HETATM    3  C3  UNL     1      24.926   0.094  53.803  1.00  0.00     0.078 C 
HETATM    4  C4  UNL     1      25.612  -0.672  52.759  1.00  0.00     0.001 C 
HETATM    5  C5  UNL     1      26.874  -0.465  52.452  1.00  0.00    -0.029 C 
HETATM    6  C6  UNL     1      27.437   0.482  53.117  1.00  0.00     0.012 C 
HETATM    7  C7  UNL     1      26.635   1.547  52.513  1.00  0.00     0.002 C 
HETATM    8  C8  UNL     1      26.766   2.066  51.294  1.00  0.00     0.011 C 
HETATM    9  C9  UNL     1      26.157   3.083  50.434  1.00  0.00    -0.036 A 
HETATM   10  C10 UNL     1      26.792   3.983  49.637  1.00  0.00     0.011 A 
HETATM   11  C11 UNL     1      25.967   4.836  48.958  1.00  0.00     0.001 A 
HETATM   12  C12 UNL     1      24.602   4.829  49.036  1.00  0.00     0.009 A 
HETATM   13  C13 UNL     1      23.949   3.920  49.841  1.00  0.00    -0.033 A 
HETATM   14  C14 UNL     1      24.810   3.060  50.525  1.00  0.00     0.020 A 
HETATM   15  C15 UNL     1      22.469   3.723  50.103  1.00  0.00     0.213 C 
HETATM   16  O1  UNL     1      22.425   3.124  51.395  1.00  0.00    -0.358 OA
HETATM   17  C16 UNL     1      21.296   2.471  51.815  1.00  0.00     0.137 C 
HETATM   18  C17 UNL     1      21.287   1.416  52.605  1.00  0.00     0.049 C 
ENDROOT
BRANCH   1  19
HETATM   19  N1  UNL     1      21.916  -0.498  54.090  1.00  0.00    -0.402 N 
HETATM   20  H1  UNL     1      22.071  -1.496  54.358  1.00  0.00     0.156 HD
HETATM   21  H2  UNL     1      21.281  -0.860  54.864  1.00  0.00     0.156 HD
ENDBRANCH   1  19
BRANCH   3  22
HETATM   22  S1  UNL     1      24.907  -1.260  55.126  1.00  0.00    -0.173 SA
HETATM   23  H5  UNL     1      23.885  -2.155  54.868  1.00  0.00     0.102 HD
ENDBRANCH   3  22
TORSDOF 2
ENDMDL
MODEL 8
REMARK VINA RESULT:      -7.5      2.802      4.749
REMARK  2 active torsions:
REMARK  status: ('A' for Active; 'I' for Inactive)
REMARK    1  A    between atoms: N1_1  and  C1_2 
REMARK    2  A    between atoms: C3_4  and  S1_5 
ROOT
HETATM    1  C1  UNL     1      22.485   4.005  50.188  1.00  0.00     0.011 C 
HETATM    2  C2  UNL     1      21.634   3.336  50.923  1.00  0.00     0.063 C 
HETATM    3  C3  UNL     1      20.908   2.483  51.851  1.00  0.00     0.078 C 
HETATM    4  C4  UNL     1      20.704   1.106  51.392  1.00  0.00     0.001 C 
HETATM    5  C5  UNL     1      20.612   0.093  52.227  1.00  0.00    -0.029 C 
HETATM    6  C6  UNL     1      20.750   0.411  53.467  1.00  0.00     0.012 C 
HETATM    7  C7  UNL     1      22.162   0.778  53.342  1.00  0.00     0.002 C 
HETATM    8  C8  UNL     1      23.205  -0.042  53.237  1.00  0.00     0.011 C 
HETATM    9  C9  UNL     1      24.663   0.005  53.102  1.00  0.00    -0.036 A 
HETATM   10  C10 UNL     1      25.580  -0.766  53.745  1.00  0.00     0.011 A 
HETATM   11  C11 UNL     1      26.883  -0.486  53.442  1.00  0.00     0.001 A 
HETATM   12  C12 UNL     1      27.290   0.482  52.565  1.00  0.00     0.009 A 
HETATM   13  C13 UNL     1      26.368   1.268  51.908  1.00  0.00    -0.033 A 
HETATM   14  C14 UNL     1      25.044   0.966  52.234  1.00  0.00     0.020 A 
HETATM   15  C15 UNL     1      26.566   2.396  50.916  1.00  0.00     0.213 C 
HETATM   16  O1  UNL     1      25.392   3.191  51.059  1.00  0.00    -0.358 OA
HETATM   17  C16 UNL     1      25.040   4.086  50.083  1.00  0.00     0.137 C 
HETATM   18  C17 UNL     1      23.802   4.394  49.755  1.00  0.00     0.049 C 
ENDROOT
BRANCH   1  19
HETATM   19  N1  UNL     1      21.309   4.558  49.611  1.00  0.00    -0.402 N 
HETATM   20  H1  UNL     1      20.265   4.582  49.566  1.00  0.00     0.156 HD
HETATM   21  H2  UNL     1      20.903   5.248  48.907  1.00  0.00     0.156 HD
ENDBRANCH   1  19
BRANCH   3  22
HETATM   22  S1  UNL     1      19.143   3.100  51.556  1.00  0.00    -0.173 SA
HETATM   23  H5  UNL     1      19.132   4.015  50.519  1.00  0.00     0.102 HD
ENDBRANCH   3  22
TORSDOF 2
ENDMDL
MODEL 9
REMARK VINA RESULT:      -7.3      3.176      5.475
REMARK  2 active torsions:
REMARK  status: ('A' for Active; 'I' for Inactive)
REMARK    1  A    between atoms: N1_1  and  C1_2 
REMARK    2  A    between atoms: C3_4  and  S1_5 
ROOT
HETATM    1  C1  UNL     1      20.596   2.663  52.033  1.00  0.00     0.011 C 
HETATM    2  C2  UNL     1      21.306   3.405  51.222  1.00  0.00     0.063 C 
HETATM    3  C3  UNL     1      22.289   4.047  50.362  1.00  0.00     0.078 C 
HETATM    4  C4  UNL     1      23.243   4.914  51.059  1.00  0.00     0.001 C 
HETATM    5  C5  UNL     1      24.468   5.106  50.619  1.00  0.00    -0.029 C 
HETATM    6  C6  UNL     1      24.762   4.446  49.554  1.00  0.00     0.012 C 
HETATM    7  C7  UNL     1      24.706   3.136  50.205  1.00  0.00     0.002 C 
HETATM    8  C8  UNL     1      25.611   2.598  51.021  1.00  0.00     0.011 C 
HETATM    9  C9  UNL     1      25.841   1.377  51.796  1.00  0.00    -0.036 A 
HETATM   10  C10 UNL     1      27.000   0.676  51.913  1.00  0.00     0.011 A 
HETATM   11  C11 UNL     1      26.920  -0.446  52.690  1.00  0.00     0.001 A 
HETATM   12  C12 UNL     1      25.786  -0.877  53.323  1.00  0.00     0.009 A 
HETATM   13  C13 UNL     1      24.607  -0.173  53.211  1.00  0.00    -0.033 A 
HETATM   14  C14 UNL     1      24.713   0.969  52.414  1.00  0.00     0.020 A 
HETATM   15  C15 UNL     1      23.237  -0.448  53.797  1.00  0.00     0.213 C 
HETATM   16  O1  UNL     1      22.341   0.199  52.897  1.00  0.00    -0.358 OA
HETATM   17  C16 UNL     1      21.057   0.480  53.283  1.00  0.00     0.137 C 
HETATM   18  C17 UNL     1      20.365   1.530  52.890  1.00  0.00     0.049 C 
ENDROOT
BRANCH   1  19
HETATM   19  N1  UNL     1      19.596   3.649  51.804  1.00  0.00    -0.402 N 
HETATM   20  H1  UNL     1      18.622   3.986  51.974  1.00  0.00     0.156 HD
HETATM   21  H2  UNL     1      19.344   4.564  51.320  1.00  0.00     0.156 HD
ENDBRANCH   1  19
BRANCH   3  22
HETATM   22  S1  UNL     1      21.223   5.416  49.606  1.00  0.00    -0.173 SA
HETATM   23  H5  UNL     1      20.671   4.979  48.416  1.00  0.00     0.102 HD
ENDBRANCH   3  22
TORSDOF 2
ENDMDL
