MODEL 1
REMARK VINA RESULT:      -9.5      0.000      0.000
REMARK  8 active torsions:
REMARK  status: ('A' for Active; 'I' for Inactive)
REMARK    1  A    between atoms: O1_2  and  C2_3 
REMARK    2  A    between atoms: N1_7  and  C6_8 
REMARK    3  A    between atoms: N2_11  and  C8_12 
REMARK    4  A    between atoms: C8_12  and  C9_13 
REMARK    5  A    between atoms: C12_16  and  C13_17 
REMARK    6  A    between atoms: C15_20  and  O3_21 
REMARK    7  A    between atoms: O3_21  and  N4_22 
REMARK    8  A    between atoms: N4_22  and  C16_23 
ROOT
HETATM    1  C6  UNL     1      22.275   2.525  50.348  1.00  0.00     0.153 C 
HETATM    2  C7  UNL     1      22.444   3.824  49.615  1.00  0.00     0.232 C 
HETATM    3  O2  UNL     1      23.725   3.854  49.062  1.00  0.00    -0.274 OA
HETATM    4  N2  UNL     1      24.571   3.970  50.110  1.00  0.00    -0.239 N 
HETATM    5  C14 UNL     1      24.500   3.158  51.277  1.00  0.00     0.163 A 
HETATM    6  N3  UNL     1      25.504   3.124  52.180  1.00  0.00    -0.185 NA
HETATM    7  C15 UNL     1      25.313   2.306  53.255  1.00  0.00     0.292 A 
HETATM    8  N5  UNL     1      24.194   1.571  53.419  1.00  0.00    -0.217 NA
HETATM    9  C22 UNL     1      23.190   1.611  52.507  1.00  0.00     0.134 A 
HETATM   10  C23 UNL     1      23.313   2.423  51.382  1.00  0.00     0.033 A 
ENDROOT
BRANCH   1  11
HETATM   11  N1  UNL     1      20.937   2.333  50.847  1.00  0.00    -0.355 N 
HETATM   12  C5  UNL     1      20.457   0.986  50.782  1.00  0.00     0.091 C 
HETATM   13  C4  UNL     1      19.244   0.478  50.860  1.00  0.00     0.020 C 
HETATM   14  C3  UNL     1      17.979   1.212  51.050  1.00  0.00     0.038 C 
HETATM   15  C2  UNL     1      17.825   2.502  51.356  1.00  0.00     0.069 C 
HETATM   16  C25 UNL     1      18.862   3.496  51.575  1.00  0.00     0.054 C 
HETATM   17  C24 UNL     1      20.175   3.441  51.367  1.00  0.00     0.094 C 
BRANCH  15  18
HETATM   18  O1  UNL     1      16.537   2.953  51.480  1.00  0.00    -0.356 OA
HETATM   19  C1  UNL     1      16.249   4.198  52.039  1.00  0.00     0.210 C 
ENDBRANCH  15  18
ENDBRANCH   1  11
BRANCH   4  20
HETATM   20  C8  UNL     1      25.602   4.972  50.038  1.00  0.00     0.167 C 
BRANCH  20  21
HETATM   21  C9  UNL     1      26.666   4.422  48.919  1.00  0.00     0.036 A 
HETATM   22  C10 UNL     1      27.485   4.917  48.699  1.00  0.00    -0.085 A 
HETATM   23  C11 UNL     1      27.959   5.221  48.566  1.00  0.00    -0.008 A 
HETATM   24  C12 UNL     1      28.774   5.779  48.325  1.00  0.00     0.043 A 
HETATM   25  C13 UNL     1      26.780   6.452  48.221  1.00  0.00     0.028 A 
ENDBRANCH  20  21
ENDBRANCH   4  20
BRANCH   7  26
HETATM   26  O3  UNL     1      26.259   2.167  54.268  1.00  0.00    -0.196 OA
BRANCH  26  27
HETATM   27  N4  UNL     1      26.549   0.947  54.840  1.00  0.00    -0.258 N 
HETATM   28  H17 UNL     1      26.103   0.614  55.741  1.00  0.00     0.195 HD
BRANCH  27  29
HETATM   29  C16 UNL     1      27.480   0.021  54.261  1.00  0.00     0.055 A 
HETATM   30  C17 UNL     1      28.844   0.055  54.476  1.00  0.00     0.031 A 
HETATM   31  C18 UNL     1      29.695  -0.849  53.903  1.00  0.00     0.002 A 
HETATM   32  C19 UNL     1      29.219  -1.845  53.074  1.00  0.00     0.000 A 
HETATM   33  C20 UNL     1      27.849  -1.922  52.824  1.00  0.00     0.002 A 
HETATM   34  C21 UNL     1      27.005  -0.988  53.422  1.00  0.00     0.031 A 
ENDBRANCH  27  29
ENDBRANCH  26  27
ENDBRANCH   7  26
TORSDOF 8
ENDMDL
MODEL 2
REMARK VINA RESULT:      -9.3      1.679      5.882
REMARK  8 active torsions:
REMARK  status: ('A' for Active; 'I' for Inactive)
REMARK    1  A    between atoms: O1_2  and  C2_3 
REMARK    2  A    between atoms: N1_7  and  C6_8 
REMARK    3  A    between atoms: N2_11  and  C8_12 
REMARK    4  A    between atoms: C8_12  and  C9_13 
REMARK    5  A    between atoms: C12_16  and  C13_17 
REMARK    6  A    between atoms: C15_20  and  O3_21 
REMARK    7  A    between atoms: O3_21  and  N4_22 
REMARK    8  A    between atoms: N4_22  and  C16_23 
ROOT
HETATM    1  C6  UNL     1      22.988   1.062  52.889  1.00  0.00     0.153 C 
HETATM    2  C7  UNL     1      23.305  -0.397  53.039  1.00  0.00     0.232 C 
HETATM    3  O2  UNL     1      24.507  -0.516  53.738  1.00  0.00    -0.274 OA
HETATM    4  N2  UNL     1      25.465  -0.069  52.895  1.00  0.00    -0.239 N 
HETATM    5  C14 UNL     1      25.374   1.153  52.172  1.00  0.00     0.163 A 
HETATM    6  N3  UNL     1      26.444   1.689  51.547  1.00  0.00    -0.185 NA
HETATM    7  C15 UNL     1      26.225   2.864  50.888  1.00  0.00     0.292 A 
HETATM    8  N5  UNL     1      25.017   3.464  50.855  1.00  0.00    -0.217 NA
HETATM    9  C22 UNL     1      23.946   2.918  51.486  1.00  0.00     0.134 A 
HETATM   10  C23 UNL     1      24.093   1.720  52.180  1.00  0.00     0.033 A 
ENDROOT
BRANCH   1  11
HETATM   11  N1  UNL     1      21.696   1.296  52.294  1.00  0.00    -0.355 N 
HETATM   12  C5  UNL     1      21.386   0.454  51.178  1.00  0.00     0.091 C 
HETATM   13  C4  UNL     1      20.479   0.549  50.227  1.00  0.00     0.020 C 
HETATM   14  C3  UNL     1      19.477   1.617  50.052  1.00  0.00     0.038 C 
HETATM   15  C2  UNL     1      19.173   2.595  50.908  1.00  0.00     0.069 C 
HETATM   16  C25 UNL     1      19.752   2.847  52.217  1.00  0.00     0.054 C 
HETATM   17  C24 UNL     1      20.812   2.309  52.815  1.00  0.00     0.094 C 
BRANCH  15  18
HETATM   18  O1  UNL     1      18.199   3.473  50.514  1.00  0.00    -0.356 OA
HETATM   19  C1  UNL     1      18.502   4.623  49.786  1.00  0.00     0.210 C 
ENDBRANCH  15  18
ENDBRANCH   1  11
BRANCH   4  20
HETATM   20  C8  UNL     1      26.642  -0.879  52.722  1.00  0.00     0.167 C 
BRANCH  20  21
HETATM   21  C9  UNL     1      27.664  -0.423  53.920  1.00  0.00     0.036 A 
HETATM   22  C10 UNL     1      28.630  -0.329  53.767  1.00  0.00    -0.085 A 
HETATM   23  C11 UNL     1      29.199  -0.290  53.672  1.00  0.00    -0.008 A 
HETATM   24  C12 UNL     1      30.199  -0.249  53.496  1.00  0.00     0.043 A 
HETATM   25  C13 UNL     1      28.992  -1.947  53.188  1.00  0.00     0.028 A 
ENDBRANCH  20  21
ENDBRANCH   4  20
BRANCH   7  26
HETATM   26  O3  UNL     1      27.232   3.535  50.198  1.00  0.00    -0.196 OA
BRANCH  26  27
HETATM   27  N4  UNL     1      27.026   4.087  48.952  1.00  0.00    -0.258 N 
HETATM   28  H17 UNL     1      26.393   3.646  48.226  1.00  0.00     0.195 HD
BRANCH  27  29
HETATM   29  C16 UNL     1      27.652   5.308  48.531  1.00  0.00     0.055 A 
HETATM   30  C17 UNL     1      29.002   5.436  48.266  1.00  0.00     0.031 A 
HETATM   31  C18 UNL     1      29.556   6.621  47.867  1.00  0.00     0.002 A 
HETATM   32  C19 UNL     1      28.779   7.752  47.712  1.00  0.00     0.000 A 
HETATM   33  C20 UNL     1      27.410   7.674  47.968  1.00  0.00     0.002 A 
HETATM   34  C21 UNL     1      26.872   6.454  48.372  1.00  0.00     0.031 A 
ENDBRANCH  27  29
ENDBRANCH  26  27
ENDBRANCH   7  26
TORSDOF 8
ENDMDL
MODEL 3
REMARK VINA RESULT:      -9.2      2.184      6.327
REMARK  8 active torsions:
REMARK  status: ('A' for Active; 'I' for Inactive)
REMARK    1  A    between atoms: O1_2  and  C2_3 
REMARK    2  A    between atoms: N1_7  and  C6_8 
REMARK    3  A    between atoms: N2_11  and  C8_12 
REMARK    4  A    between atoms: C8_12  and  C9_13 
REMARK    5  A    between atoms: C12_16  and  C13_17 
REMARK    6  A    between atoms: C15_20  and  O3_21 
REMARK    7  A    between atoms: O3_21  and  N4_22 
REMARK    8  A    between atoms: N4_22  and  C16_23 
ROOT
HETATM    1  C6  UNL     1      22.297   4.277  52.070  1.00  0.00     0.153 C 
HETATM    2  C7  UNL     1      20.896   3.947  51.643  1.00  0.00     0.232 C 
HETATM    3  O2  UNL     1      20.273   3.250  52.681  1.00  0.00    -0.274 OA
HETATM    4  N2  UNL     1      20.882   2.045  52.728  1.00  0.00    -0.239 N 
HETATM    5  C14 UNL     1      22.295   1.872  52.727  1.00  0.00     0.163 A 
HETATM    6  N3  UNL     1      22.865   0.687  53.031  1.00  0.00    -0.185 NA
HETATM    7  C15 UNL     1      24.229   0.652  52.994  1.00  0.00     0.292 A 
HETATM    8  N5  UNL     1      24.974   1.730  52.674  1.00  0.00    -0.217 NA
HETATM    9  C22 UNL     1      24.393   2.918  52.369  1.00  0.00     0.134 A 
HETATM   10  C23 UNL     1      23.005   3.031  52.386  1.00  0.00     0.033 A 
ENDROOT
BRANCH   1  11
HETATM   11  N1  UNL     1      22.988   5.113  51.121  1.00  0.00    -0.355 N 
HETATM   12  C5  UNL     1      22.869   4.699  49.756  1.00  0.00     0.091 C 
HETATM   13  C4  UNL     1      23.559   5.009  48.677  1.00  0.00     0.020 C 
HETATM   14  C3  UNL     1      24.712   5.925  48.587  1.00  0.00     0.038 C 
HETATM   15  C2  UNL     1      25.170   6.751  49.531  1.00  0.00     0.069 C 
HETATM   16  C25 UNL     1      24.647   6.949  50.872  1.00  0.00     0.054 C 
HETATM   17  C24 UNL     1      23.730   6.270  51.555  1.00  0.00     0.094 C 
BRANCH  15  18
HETATM   18  O1  UNL     1      26.264   7.507  49.204  1.00  0.00    -0.356 OA
HETATM   19  C1  UNL     1      26.795   8.446  50.088  1.00  0.00     0.210 C 
ENDBRANCH  15  18
ENDBRANCH   1  11
BRANCH   4  20
HETATM   20  C8  UNL     1      20.052   0.871  52.781  1.00  0.00     0.167 C 
BRANCH  20  21
HETATM   21  C9  UNL     1      19.722   0.499  51.219  1.00  0.00     0.036 A 
HETATM   22  C10 UNL     1      18.804   0.502  50.870  1.00  0.00    -0.085 A 
HETATM   23  C11 UNL     1      18.259   0.493  50.677  1.00  0.00    -0.008 A 
HETATM   24  C12 UNL     1      17.295   0.457  50.357  1.00  0.00     0.043 A 
HETATM   25  C13 UNL     1      18.068  -0.646  51.977  1.00  0.00     0.028 A 
ENDBRANCH  20  21
ENDBRANCH   4  20
BRANCH   7  26
HETATM   26  O3  UNL     1      24.958  -0.499  53.284  1.00  0.00    -0.196 OA
BRANCH  26  27
HETATM   27  N4  UNL     1      25.984  -0.941  52.476  1.00  0.00    -0.258 N 
HETATM   28  H17 UNL     1      25.828  -1.298  51.492  1.00  0.00     0.195 HD
BRANCH  27  29
HETATM   29  C16 UNL     1      27.355  -0.954  52.903  1.00  0.00     0.055 A 
HETATM   30  C17 UNL     1      28.052   0.168  53.307  1.00  0.00     0.031 A 
HETATM   31  C18 UNL     1      29.359   0.109  53.705  1.00  0.00     0.002 A 
HETATM   32  C19 UNL     1      30.043  -1.090  53.721  1.00  0.00     0.000 A 
HETATM   33  C20 UNL     1      29.383  -2.253  53.322  1.00  0.00     0.002 A 
HETATM   34  C21 UNL     1      28.052  -2.162  52.921  1.00  0.00     0.031 A 
ENDBRANCH  27  29
ENDBRANCH  26  27
ENDBRANCH   7  26
TORSDOF 8
ENDMDL
MODEL 4
REMARK VINA RESULT:      -9.0      2.673      5.915
REMARK  8 active torsions:
REMARK  status: ('A' for Active; 'I' for Inactive)
REMARK    1  A    between atoms: O1_2  and  C2_3 
REMARK    2  A    between atoms: N1_7  and  C6_8 
REMARK    3  A    between atoms: N2_11  and  C8_12 
REMARK    4  A    between atoms: C8_12  and  C9_13 
REMARK    5  A    between atoms: C12_16  and  C13_17 
REMARK    6  A    between atoms: C15_20  and  O3_21 
REMARK    7  A    between atoms: O3_21  and  N4_22 
REMARK    8  A    between atoms: N4_22  and  C16_23 
ROOT
HETATM    1  C6  UNL     1      21.329   4.448  51.679  1.00  0.00     0.153 C 
HETATM    2  C7  UNL     1      20.050   3.664  51.623  1.00  0.00     0.232 C 
HETATM    3  O2  UNL     1      19.983   2.852  52.757  1.00  0.00    -0.274 OA
HETATM    4  N2  UNL     1      20.939   1.911  52.589  1.00  0.00    -0.239 N 
HETATM    5  C14 UNL     1      22.278   2.204  52.207  1.00  0.00     0.163 A 
HETATM    6  N3  UNL     1      23.260   1.282  52.298  1.00  0.00    -0.185 NA
HETATM    7  C15 UNL     1      24.501   1.688  51.901  1.00  0.00     0.292 A 
HETATM    8  N5  UNL     1      24.745   2.933  51.442  1.00  0.00    -0.217 NA
HETATM    9  C22 UNL     1      23.752   3.855  51.354  1.00  0.00     0.134 A 
HETATM   10  C23 UNL     1      22.459   3.513  51.742  1.00  0.00     0.033 A 
ENDROOT
BRANCH   1  11
HETATM   11  N1  UNL     1      21.436   5.418  50.618  1.00  0.00    -0.355 N 
HETATM   12  C5  UNL     1      21.204   4.901  49.304  1.00  0.00     0.091 C 
HETATM   13  C4  UNL     1      21.485   5.376  48.108  1.00  0.00     0.020 C 
HETATM   14  C3  UNL     1      22.156   6.650  47.787  1.00  0.00     0.038 C 
HETATM   15  C2  UNL     1      22.448   7.648  48.624  1.00  0.00     0.069 C 
HETATM   16  C25 UNL     1      22.180   7.723  50.050  1.00  0.00     0.054 C 
HETATM   17  C24 UNL     1      21.754   6.795  50.903  1.00  0.00     0.094 C 
BRANCH  15  18
HETATM   18  O1  UNL     1      23.079   8.737  48.082  1.00  0.00    -0.356 OA
HETATM   19  C1  UNL     1      23.779   8.653  46.879  1.00  0.00     0.210 C 
ENDBRANCH  15  18
ENDBRANCH   1  11
BRANCH   4  20
HETATM   20  C8  UNL     1      20.578   0.535  52.809  1.00  0.00     0.167 C 
BRANCH  20  21
HETATM   21  C9  UNL     1      20.759   0.290  54.419  1.00  0.00     0.036 A 
HETATM   22  C10 UNL     1      21.432  -0.331  54.774  1.00  0.00    -0.085 A 
HETATM   23  C11 UNL     1      21.822  -0.709  54.974  1.00  0.00    -0.008 A 
HETATM   24  C12 UNL     1      22.494  -1.394  55.309  1.00  0.00     0.043 A 
HETATM   25  C13 UNL     1      20.938  -1.800  53.947  1.00  0.00     0.028 A 
ENDBRANCH  20  21
ENDBRANCH   4  20
BRANCH   7  26
HETATM   26  O3  UNL     1      25.612   0.848  51.937  1.00  0.00    -0.196 OA
BRANCH  26  27
HETATM   27  N4  UNL     1      26.181   0.435  53.123  1.00  0.00    -0.258 N 
HETATM   28  H17 UNL     1      25.800   0.714  54.071  1.00  0.00     0.195 HD
BRANCH  27  29
HETATM   29  C16 UNL     1      27.339  -0.411  53.173  1.00  0.00     0.055 A 
HETATM   30  C17 UNL     1      28.605   0.027  53.511  1.00  0.00     0.031 A 
HETATM   31  C18 UNL     1      29.681  -0.816  53.546  1.00  0.00     0.002 A 
HETATM   32  C19 UNL     1      29.545  -2.155  53.240  1.00  0.00     0.000 A 
HETATM   33  C20 UNL     1      28.287  -2.647  52.892  1.00  0.00     0.002 A 
HETATM   34  C21 UNL     1      27.208  -1.765  52.865  1.00  0.00     0.031 A 
ENDBRANCH  27  29
ENDBRANCH  26  27
ENDBRANCH   7  26
TORSDOF 8
ENDMDL
MODEL 5
REMARK VINA RESULT:      -9.0      3.132      8.334
REMARK  8 active torsions:
REMARK  status: ('A' for Active; 'I' for Inactive)
REMARK    1  A    between atoms: O1_2  and  C2_3 
REMARK    2  A    between atoms: N1_7  and  C6_8 
REMARK    3  A    between atoms: N2_11  and  C8_12 
REMARK    4  A    between atoms: C8_12  and  C9_13 
REMARK    5  A    between atoms: C12_16  and  C13_17 
REMARK    6  A    between atoms: C15_20  and  O3_21 
REMARK    7  A    between atoms: O3_21  and  N4_22 
REMARK    8  A    between atoms: N4_22  and  C16_23 
ROOT
HETATM    1  C6  UNL     1      24.022   1.972  52.814  1.00  0.00     0.153 C 
HETATM    2  C7  UNL     1      23.769   2.609  51.478  1.00  0.00     0.232 C 
HETATM    3  O2  UNL     1      22.529   3.250  51.525  1.00  0.00    -0.274 OA
HETATM    4  N2  UNL     1      21.609   2.261  51.583  1.00  0.00    -0.239 N 
HETATM    5  C14 UNL     1      21.688   1.160  52.482  1.00  0.00     0.163 A 
HETATM    6  N3  UNL     1      20.638   0.338  52.692  1.00  0.00    -0.185 NA
HETATM    7  C15 UNL     1      20.842  -0.680  53.577  1.00  0.00     0.292 A 
HETATM    8  N5  UNL     1      22.017  -0.865  54.212  1.00  0.00    -0.217 NA
HETATM    9  C22 UNL     1      23.069  -0.034  53.996  1.00  0.00     0.134 A 
HETATM   10  C23 UNL     1      22.936   1.028  53.105  1.00  0.00     0.033 A 
ENDROOT
BRANCH   1  11
HETATM   11  N1  UNL     1      25.338   1.394  52.917  1.00  0.00    -0.355 N 
HETATM   12  C5  UNL     1      25.651   0.427  51.909  1.00  0.00     0.091 C 
HETATM   13  C4  UNL     1      26.588  -0.496  51.833  1.00  0.00     0.020 C 
HETATM   14  C3  UNL     1      27.631  -0.794  52.832  1.00  0.00     0.038 C 
HETATM   15  C2  UNL     1      27.943  -0.083  53.918  1.00  0.00     0.069 C 
HETATM   16  C25 UNL     1      27.335   1.153  54.381  1.00  0.00     0.054 C 
HETATM   17  C24 UNL     1      26.240   1.787  53.970  1.00  0.00     0.094 C 
BRANCH  15  18
HETATM   18  O1  UNL     1      28.958  -0.571  54.698  1.00  0.00    -0.356 OA
HETATM   19  C1  UNL     1      30.095  -1.154  54.139  1.00  0.00     0.210 C 
ENDBRANCH  15  18
ENDBRANCH   1  11
BRANCH   4  20
HETATM   20  C8  UNL     1      20.489   2.327  50.683  1.00  0.00     0.167 C 
BRANCH  20  21
HETATM   21  C9  UNL     1      20.837   1.274  49.476  1.00  0.00     0.036 A 
HETATM   22  C10 UNL     1      21.465   1.503  48.756  1.00  0.00    -0.085 A 
HETATM   23  C11 UNL     1      21.826   1.652  48.329  1.00  0.00    -0.008 A 
HETATM   24  C12 UNL     1      22.442   1.935  47.572  1.00  0.00     0.043 A 
HETATM   25  C13 UNL     1      20.690   2.956  48.144  1.00  0.00     0.028 A 
ENDBRANCH  20  21
ENDBRANCH   4  20
BRANCH   7  26
HETATM   26  O3  UNL     1      19.852  -1.607  53.895  1.00  0.00    -0.196 OA
BRANCH  26  27
HETATM   27  N4  UNL     1      18.512  -1.283  53.883  1.00  0.00    -0.258 N 
HETATM   28  H17 UNL     1      18.144  -0.347  54.216  1.00  0.00     0.195 HD
BRANCH  27  29
HETATM   29  C16 UNL     1      17.500  -2.188  53.418  1.00  0.00     0.055 A 
HETATM   30  C17 UNL     1      16.416  -1.811  52.648  1.00  0.00     0.031 A 
HETATM   31  C18 UNL     1      15.475  -2.709  52.227  1.00  0.00     0.002 A 
HETATM   32  C19 UNL     1      15.570  -4.046  52.558  1.00  0.00     0.000 A 
HETATM   33  C20 UNL     1      16.646  -4.477  53.334  1.00  0.00     0.002 A 
HETATM   34  C21 UNL     1      17.590  -3.540  53.749  1.00  0.00     0.031 A 
ENDBRANCH  27  29
ENDBRANCH  26  27
ENDBRANCH   7  26
TORSDOF 8
ENDMDL
MODEL 6
REMARK VINA RESULT:      -8.8      2.730      7.092
REMARK  8 active torsions:
REMARK  status: ('A' for Active; 'I' for Inactive)
REMARK    1  A    between atoms: O1_2  and  C2_3 
REMARK    2  A    between atoms: N1_7  and  C6_8 
REMARK    3  A    between atoms: N2_11  and  C8_12 
REMARK    4  A    between atoms: C8_12  and  C9_13 
REMARK    5  A    between atoms: C12_16  and  C13_17 
REMARK    6  A    between atoms: C15_20  and  O3_21 
REMARK    7  A    between atoms: O3_21  and  N4_22 
REMARK    8  A    between atoms: N4_22  and  C16_23 
ROOT
HETATM    1  C6  UNL     1      24.383   2.638  50.703  1.00  0.00     0.153 C 
HETATM    2  C7  UNL     1      25.795   2.563  51.207  1.00  0.00     0.232 C 
HETATM    3  O2  UNL     1      26.137   1.218  51.356  1.00  0.00    -0.274 OA
HETATM    4  N2  UNL     1      25.405   0.768  52.398  1.00  0.00    -0.239 N 
HETATM    5  C14 UNL     1      24.006   0.993  52.537  1.00  0.00     0.163 A 
HETATM    6  N3  UNL     1      23.266   0.320  53.444  1.00  0.00    -0.185 NA
HETATM    7  C15 UNL     1      21.937   0.627  53.478  1.00  0.00     0.292 A 
HETATM    8  N5  UNL     1      21.383   1.545  52.660  1.00  0.00    -0.217 NA
HETATM    9  C22 UNL     1      22.134   2.217  51.750  1.00  0.00     0.134 A 
HETATM   10  C23 UNL     1      23.498   1.957  51.657  1.00  0.00     0.033 A 
ENDROOT
BRANCH   1  11
HETATM   11  N1  UNL     1      23.971   3.983  50.389  1.00  0.00    -0.355 N 
HETATM   12  C5  UNL     1      23.428   4.155  49.075  1.00  0.00     0.091 C 
HETATM   13  C4  UNL     1      23.223   5.229  48.340  1.00  0.00     0.020 C 
HETATM   14  C3  UNL     1      23.517   6.628  48.701  1.00  0.00     0.038 C 
HETATM   15  C2  UNL     1      23.879   7.101  49.896  1.00  0.00     0.069 C 
HETATM   16  C25 UNL     1      24.071   6.356  51.129  1.00  0.00     0.054 C 
HETATM   17  C24 UNL     1      24.112   5.046  51.353  1.00  0.00     0.094 C 
BRANCH  15  18
HETATM   18  O1  UNL     1      24.098   8.451  49.980  1.00  0.00    -0.356 OA
HETATM   19  C1  UNL     1      25.383   8.989  49.903  1.00  0.00     0.210 C 
ENDBRANCH  15  18
ENDBRANCH   1  11
BRANCH   4  20
HETATM   20  C8  UNL     1      26.081   0.021  53.425  1.00  0.00     0.167 C 
BRANCH  20  21
HETATM   21  C9  UNL     1      27.331  -0.723  52.670  1.00  0.00     0.036 A 
HETATM   22  C10 UNL     1      28.186  -0.886  53.126  1.00  0.00    -0.085 A 
HETATM   23  C11 UNL     1      28.691  -0.966  53.398  1.00  0.00    -0.008 A 
HETATM   24  C12 UNL     1      29.579  -1.078  53.879  1.00  0.00     0.043 A 
HETATM   25  C13 UNL     1      28.592   0.760  53.583  1.00  0.00     0.028 A 
ENDBRANCH  20  21
ENDBRANCH   4  20
BRANCH   7  26
HETATM   26  O3  UNL     1      21.048   0.016  54.360  1.00  0.00    -0.196 OA
BRANCH  26  27
HETATM   27  N4  UNL     1      20.432  -1.182  54.068  1.00  0.00    -0.258 N 
HETATM   28  H17 UNL     1      20.876  -2.121  54.275  1.00  0.00     0.195 HD
BRANCH  27  29
HETATM   29  C16 UNL     1      19.134  -1.258  53.460  1.00  0.00     0.055 A 
HETATM   30  C17 UNL     1      18.642  -0.329  52.564  1.00  0.00     0.031 A 
HETATM   31  C18 UNL     1      17.398  -0.442  52.008  1.00  0.00     0.002 A 
HETATM   32  C19 UNL     1      16.572  -1.502  52.324  1.00  0.00     0.000 A 
HETATM   33  C20 UNL     1      17.023  -2.468  53.225  1.00  0.00     0.002 A 
HETATM   34  C21 UNL     1      18.295  -2.327  53.775  1.00  0.00     0.031 A 
ENDBRANCH  27  29
ENDBRANCH  26  27
ENDBRANCH   7  26
TORSDOF 8
ENDMDL
MODEL 7
REMARK VINA RESULT:      -8.7      4.954      9.678
REMARK  8 active torsions:
REMARK  status: ('A' for Active; 'I' for Inactive)
REMARK    1  A    between atoms: O1_2  and  C2_3 
REMARK    2  A    between atoms: N1_7  and  C6_8 
REMARK    3  A    between atoms: N2_11  and  C8_12 
REMARK    4  A    between atoms: C8_12  and  C9_13 
REMARK    5  A    between atoms: C12_16  and  C13_17 
REMARK    6  A    between atoms: C15_20  and  O3_21 
REMARK    7  A    between atoms: O3_21  and  N4_22 
REMARK    8  A    between atoms: N4_22  and  C16_23 
ROOT
HETATM    1  C6  UNL     1      30.325   8.465  46.817  1.00  0.00     0.153 C 
HETATM    2  C7  UNL     1      31.788   8.231  47.053  1.00  0.00     0.232 C 
HETATM    3  O2  UNL     1      32.133   7.000  46.491  1.00  0.00    -0.274 OA
HETATM    4  N2  UNL     1      31.535   6.066  47.263  1.00  0.00    -0.239 N 
HETATM    5  C14 UNL     1      30.168   6.122  47.655  1.00  0.00     0.163 A 
HETATM    6  N3  UNL     1      29.543   5.057  48.202  1.00  0.00    -0.185 NA
HETATM    7  C15 UNL     1      28.232   5.240  48.535  1.00  0.00     0.292 A 
HETATM    8  N5  UNL     1      27.588   6.408  48.335  1.00  0.00    -0.217 NA
HETATM    9  C22 UNL     1      28.223   7.473  47.783  1.00  0.00     0.134 A 
HETATM   10  C23 UNL     1      29.562   7.362  47.418  1.00  0.00     0.033 A 
ENDROOT
BRANCH   1  11
HETATM   11  N1  UNL     1      29.891   9.771  47.244  1.00  0.00    -0.355 N 
HETATM   12  C5  UNL     1      30.693  10.367  48.268  1.00  0.00     0.091 C 
HETATM   13  C4  UNL     1      30.469  11.370  49.092  1.00  0.00     0.020 C 
HETATM   14  C3  UNL     1      29.252  12.198  49.180  1.00  0.00     0.038 C 
HETATM   15  C2  UNL     1      28.217  12.215  48.337  1.00  0.00     0.069 C 
HETATM   16  C25 UNL     1      28.037  11.426  47.130  1.00  0.00     0.054 C 
HETATM   17  C24 UNL     1      28.731  10.395  46.656  1.00  0.00     0.094 C 
BRANCH  15  18
HETATM   18  O1  UNL     1      27.196  13.078  48.637  1.00  0.00    -0.356 OA
HETATM   19  C1  UNL     1      25.977  13.033  47.962  1.00  0.00     0.210 C 
ENDBRANCH  15  18
ENDBRANCH   1  11
BRANCH   4  20
HETATM   20  C8  UNL     1      32.329   4.953  47.713  1.00  0.00     0.167 C 
BRANCH  20  21
HETATM   21  C9  UNL     1      32.364   3.906  46.452  1.00  0.00     0.036 A 
HETATM   22  C10 UNL     1      32.318   2.934  46.587  1.00  0.00    -0.085 A 
HETATM   23  C11 UNL     1      32.303   2.363  46.676  1.00  0.00    -0.008 A 
HETATM   24  C12 UNL     1      32.303   1.361  46.849  1.00  0.00     0.043 A 
HETATM   25  C13 UNL     1      33.703   2.720  47.645  1.00  0.00     0.028 A 
ENDBRANCH  20  21
ENDBRANCH   4  20
BRANCH   7  26
HETATM   26  O3  UNL     1      27.457   4.234  49.107  1.00  0.00    -0.196 OA
BRANCH  26  27
HETATM   27  N4  UNL     1      26.505   4.498  50.069  1.00  0.00    -0.258 N 
HETATM   28  H17 UNL     1      26.552   5.341  50.707  1.00  0.00     0.195 HD
BRANCH  27  29
HETATM   29  C16 UNL     1      25.367   3.651  50.286  1.00  0.00     0.055 A 
HETATM   30  C17 UNL     1      25.190   2.861  51.405  1.00  0.00     0.031 A 
HETATM   31  C18 UNL     1      24.088   2.068  51.570  1.00  0.00     0.002 A 
HETATM   32  C19 UNL     1      23.095   2.023  50.612  1.00  0.00     0.000 A 
HETATM   33  C20 UNL     1      23.227   2.803  49.462  1.00  0.00     0.002 A 
HETATM   34  C21 UNL     1      24.360   3.601  49.321  1.00  0.00     0.031 A 
ENDBRANCH  27  29
ENDBRANCH  26  27
ENDBRANCH   7  26
TORSDOF 8
ENDMDL
MODEL 8
REMARK VINA RESULT:      -8.5      2.875      7.088
REMARK  8 active torsions:
REMARK  status: ('A' for Active; 'I' for Inactive)
REMARK    1  A    between atoms: O1_2  and  C2_3 
REMARK    2  A    between atoms: N1_7  and  C6_8 
REMARK    3  A    between atoms: N2_11  and  C8_12 
REMARK    4  A    between atoms: C8_12  and  C9_13 
REMARK    5  A    between atoms: C12_16  and  C13_17 
REMARK    6  A    between atoms: C15_20  and  O3_21 
REMARK    7  A    between atoms: O3_21  and  N4_22 
REMARK    8  A    between atoms: N4_22  and  C16_23 
ROOT
HETATM    1  C6  UNL     1      25.599   5.160  49.054  1.00  0.00     0.153 C 
HETATM    2  C7  UNL     1      26.944   4.634  49.465  1.00  0.00     0.232 C 
HETATM    3  O2  UNL     1      26.919   3.241  49.370  1.00  0.00    -0.274 OA
HETATM    4  N2  UNL     1      26.099   2.823  50.360  1.00  0.00    -0.239 N 
HETATM    5  C14 UNL     1      24.811   3.375  50.607  1.00  0.00     0.163 A 
HETATM    6  N3  UNL     1      23.925   2.771  51.427  1.00  0.00    -0.185 NA
HETATM    7  C15 UNL     1      22.724   3.402  51.580  1.00  0.00     0.292 A 
HETATM    8  N5  UNL     1      22.429   4.561  50.956  1.00  0.00    -0.217 NA
HETATM    9  C22 UNL     1      23.325   5.162  50.132  1.00  0.00     0.134 A 
HETATM   10  C23 UNL     1      24.572   4.577  49.927  1.00  0.00     0.033 A 
ENDROOT
BRANCH   1  11
HETATM   11  N1  UNL     1      25.557   6.599  48.990  1.00  0.00    -0.355 N 
HETATM   12  C5  UNL     1      25.048   7.132  47.763  1.00  0.00     0.091 C 
HETATM   13  C4  UNL     1      25.121   8.333  47.226  1.00  0.00     0.020 C 
HETATM   14  C3  UNL     1      25.790   9.522  47.786  1.00  0.00     0.038 C 
HETATM   15  C2  UNL     1      26.294   9.670  49.013  1.00  0.00     0.069 C 
HETATM   16  C25 UNL     1      26.309   8.698  50.093  1.00  0.00     0.054 C 
HETATM   17  C24 UNL     1      26.002   7.404  50.100  1.00  0.00     0.094 C 
BRANCH  15  18
HETATM   18  O1  UNL     1      26.871  10.879  49.297  1.00  0.00    -0.356 OA
HETATM   19  C1  UNL     1      27.931  11.380  48.542  1.00  0.00     0.210 C 
ENDBRANCH  15  18
ENDBRANCH   1  11
BRANCH   4  20
HETATM   20  C8  UNL     1      26.559   1.758  51.212  1.00  0.00     0.167 C 
BRANCH  20  21
HETATM   21  C9  UNL     1      27.306   2.499  52.469  1.00  0.00     0.036 A 
HETATM   22  C10 UNL     1      27.964   2.030  53.028  1.00  0.00    -0.085 A 
HETATM   23  C11 UNL     1      28.340   1.742  53.360  1.00  0.00    -0.008 A 
HETATM   24  C12 UNL     1      28.979   1.216  53.951  1.00  0.00     0.043 A 
HETATM   25  C13 UNL     1      26.978   0.679  53.566  1.00  0.00     0.028 A 
ENDBRANCH  20  21
ENDBRANCH   4  20
BRANCH   7  26
HETATM   26  O3  UNL     1      21.711   2.900  52.393  1.00  0.00    -0.196 OA
BRANCH  26  27
HETATM   27  N4  UNL     1      21.155   1.655  52.188  1.00  0.00    -0.258 N 
HETATM   28  H17 UNL     1      20.475   1.452  51.402  1.00  0.00     0.195 HD
BRANCH  27  29
HETATM   29  C16 UNL     1      21.453   0.526  53.023  1.00  0.00     0.055 A 
HETATM   30  C17 UNL     1      22.712   0.233  53.510  1.00  0.00     0.031 A 
HETATM   31  C18 UNL     1      22.949  -0.856  54.304  1.00  0.00     0.002 A 
HETATM   32  C19 UNL     1      21.928  -1.716  54.655  1.00  0.00     0.000 A 
HETATM   33  C20 UNL     1      20.638  -1.463  54.187  1.00  0.00     0.002 A 
HETATM   34  C21 UNL     1      20.425  -0.347  53.381  1.00  0.00     0.031 A 
ENDBRANCH  27  29
ENDBRANCH  26  27
ENDBRANCH   7  26
TORSDOF 8
ENDMDL
MODEL 9
REMARK VINA RESULT:      -8.5      3.223      5.868
REMARK  8 active torsions:
REMARK  status: ('A' for Active; 'I' for Inactive)
REMARK    1  A    between atoms: O1_2  and  C2_3 
REMARK    2  A    between atoms: N1_7  and  C6_8 
REMARK    3  A    between atoms: N2_11  and  C8_12 
REMARK    4  A    between atoms: C8_12  and  C9_13 
REMARK    5  A    between atoms: C12_16  and  C13_17 
REMARK    6  A    between atoms: C15_20  and  O3_21 
REMARK    7  A    between atoms: O3_21  and  N4_22 
REMARK    8  A    between atoms: N4_22  and  C16_23 
ROOT
HETATM    1  C6  UNL     1      21.303   5.347  50.937  1.00  0.00     0.153 C 
HETATM    2  C7  UNL     1      20.324   4.209  50.890  1.00  0.00     0.232 C 
HETATM    3  O2  UNL     1      20.605   3.344  51.949  1.00  0.00    -0.274 OA
HETATM    4  N2  UNL     1      21.784   2.760  51.640  1.00  0.00    -0.239 N 
HETATM    5  C14 UNL     1      22.933   3.480  51.206  1.00  0.00     0.163 A 
HETATM    6  N3  UNL     1      24.153   2.905  51.156  1.00  0.00    -0.185 NA
HETATM    7  C15 UNL     1      25.173   3.702  50.721  1.00  0.00     0.292 A 
HETATM    8  N5  UNL     1      24.986   4.988  50.361  1.00  0.00    -0.217 NA
HETATM    9  C22 UNL     1      23.755   5.559  50.416  1.00  0.00     0.134 A 
HETATM   10  C23 UNL     1      22.666   4.808  50.849  1.00  0.00     0.033 A 
ENDROOT
BRANCH   1  11
HETATM   11  N1  UNL     1      21.019   6.370  49.963  1.00  0.00    -0.355 N 
HETATM   12  C5  UNL     1      20.709   5.883  48.652  1.00  0.00     0.091 C 
HETATM   13  C4  UNL     1      20.683   6.475  47.476  1.00  0.00     0.020 C 
HETATM   14  C3  UNL     1      20.986   7.888  47.180  1.00  0.00     0.038 C 
HETATM   15  C2  UNL     1      21.171   8.880  48.053  1.00  0.00     0.069 C 
HETATM   16  C25 UNL     1      21.118   8.813  49.504  1.00  0.00     0.054 C 
HETATM   17  C24 UNL     1      21.054   7.766  50.322  1.00  0.00     0.094 C 
BRANCH  15  18
HETATM   18  O1  UNL     1      21.443  10.116  47.528  1.00  0.00    -0.356 OA
HETATM   19  C1  UNL     1      21.024  11.287  48.158  1.00  0.00     0.210 C 
ENDBRANCH  15  18
ENDBRANCH   1  11
BRANCH   4  20
HETATM   20  C8  UNL     1      21.880   1.329  51.759  1.00  0.00     0.167 C 
BRANCH  20  21
HETATM   21  C9  UNL     1      22.584   1.059  53.214  1.00  0.00     0.036 A 
HETATM   22  C10 UNL     1      22.498   0.198  53.678  1.00  0.00    -0.085 A 
HETATM   23  C11 UNL     1      22.431  -0.309  53.950  1.00  0.00    -0.008 A 
HETATM   24  C12 UNL     1      22.284  -1.194  54.427  1.00  0.00     0.043 A 
HETATM   25  C13 UNL     1      20.748   0.093  53.776  1.00  0.00     0.028 A 
ENDBRANCH  20  21
ENDBRANCH   4  20
BRANCH   7  26
HETATM   26  O3  UNL     1      26.485   3.248  50.616  1.00  0.00    -0.196 OA
BRANCH  26  27
HETATM   27  N4  UNL     1      27.198   2.802  51.709  1.00  0.00    -0.258 N 
HETATM   28  H17 UNL     1      28.058   3.299  52.075  1.00  0.00     0.195 HD
BRANCH  27  29
HETATM   29  C16 UNL     1      26.833   1.624  52.443  1.00  0.00     0.055 A 
HETATM   30  C17 UNL     1      26.694   0.371  51.880  1.00  0.00     0.031 A 
HETATM   31  C18 UNL     1      26.343  -0.725  52.620  1.00  0.00     0.002 A 
HETATM   32  C19 UNL     1      26.112  -0.622  53.976  1.00  0.00     0.000 A 
HETATM   33  C20 UNL     1      26.240   0.623  54.593  1.00  0.00     0.002 A 
HETATM   34  C21 UNL     1      26.598   1.722  53.815  1.00  0.00     0.031 A 
ENDBRANCH  27  29
ENDBRANCH  26  27
ENDBRANCH   7  26
TORSDOF 8
ENDMDL
