MODEL 1
REMARK VINA RESULT:      -8.7      0.000      0.000
REMARK  9 active torsions:
REMARK  status: ('A' for Active; 'I' for Inactive)
REMARK    1  A    between atoms: C2_2  and  N1_3 
REMARK    2  A    between atoms: C2_2  and  C17_21 
REMARK    3  A    between atoms: N1_3  and  C3_4 
REMARK    4  A    between atoms: C8_10  and  C9_11 
REMARK    5  A    between atoms: C9_11  and  C10_12 
REMARK    6  A    between atoms: C9_11  and  C12_15 
REMARK    7  A    between atoms: C10_12  and  C11_13 
REMARK    8  A    between atoms: C11_13  and  N3_14 
REMARK    9  A    between atoms: C22_26  and  C23_27 
ROOT
HETATM    1  C3  UNL     1      23.927  -0.062  53.138  1.00  0.00     0.056 C 
HETATM    2  C4  UNL     1      24.098  -0.658  54.334  1.00  0.00     0.031 C 
HETATM    3  C5  UNL     1      23.076  -0.976  55.362  1.00  0.00    -0.000 C 
HETATM    4  C6  UNL     1      21.804  -1.176  54.999  1.00  0.00    -0.007 C 
HETATM    5  C7  UNL     1      20.930  -1.203  53.815  1.00  0.00     0.147 C 
HETATM    6  N2  UNL     1      21.427  -0.301  52.787  1.00  0.00    -0.384 N 
HETATM    7  C8  UNL     1      22.658   0.407  52.593  1.00  0.00     0.066 C 
HETATM    8  H11 UNL     1      20.731  -0.128  52.013  1.00  0.00     0.160 HD
ENDROOT
BRANCH   1   9
HETATM    9  N1  UNL     1      25.088   0.137  52.308  1.00  0.00    -0.380 N 
HETATM   10  H5  UNL     1      25.131  -0.350  51.389  1.00  0.00     0.160 HD
BRANCH   9  11
HETATM   11  C2  UNL     1      26.234   0.949  52.657  1.00  0.00     0.112 C 
HETATM   12  C1  UNL     1      26.680   1.713  51.400  1.00  0.00     0.037 C 
BRANCH  11  13
HETATM   13  C17 UNL     1      27.374   0.014  52.927  1.00  0.00    -0.023 A 
HETATM   14  C18 UNL     1      27.301  -1.318  52.594  1.00  0.00     0.010 A 
HETATM   15  C19 UNL     1      28.350  -2.204  52.834  1.00  0.00     0.001 A 
HETATM   16  C20 UNL     1      29.488  -1.690  53.429  1.00  0.00     0.001 A 
HETATM   17  C21 UNL     1      29.609  -0.362  53.781  1.00  0.00     0.015 A 
HETATM   18  C22 UNL     1      28.536   0.463  53.517  1.00  0.00     0.010 A 
BRANCH  18  19
HETATM   19  C23 UNL     1      28.704   1.859  53.905  1.00  0.00     0.270 C 
HETATM   20  O1  UNL     1      29.468   2.382  54.757  1.00  0.00    -0.301 OA
ENDBRANCH  18  19
ENDBRANCH  11  13
ENDBRANCH   9  11
ENDBRANCH   1   9
BRANCH   7  21
HETATM   21  C9  UNL     1      22.738   1.527  51.946  1.00  0.00     0.005 C 
BRANCH  21  22
HETATM   22  C10 UNL     1      22.913   2.653  52.832  1.00  0.00     0.031 C 
BRANCH  22  23
HETATM   23  C11 UNL     1      23.500   3.798  52.731  1.00  0.00     0.081 C 
BRANCH  23  24
HETATM   24  N3  UNL     1      23.839   5.148  52.544  1.00  0.00    -0.408 N 
HETATM   25  H14 UNL     1      24.805   5.446  52.242  1.00  0.00     0.155 HD
HETATM   26  H15 UNL     1      23.134   5.934  52.688  1.00  0.00     0.155 HD
ENDBRANCH  23  24
ENDBRANCH  22  23
ENDBRANCH  21  22
BRANCH  21  27
HETATM   27  C12 UNL     1      22.743   1.853  50.565  1.00  0.00    -0.006 A 
HETATM   28  C13 UNL     1      21.790   1.144  49.822  1.00  0.00     0.015 A 
HETATM   29  C14 UNL     1      21.646   1.354  48.451  1.00  0.00     0.020 A 
HETATM   30  C15 UNL     1      22.452   2.273  47.808  1.00  0.00     0.116 A 
HETATM   31  N4  UNL     1      23.362   2.941  48.553  1.00  0.00    -0.272 NA
HETATM   32  C16 UNL     1      23.507   2.750  49.854  1.00  0.00     0.128 A 
ENDBRANCH  21  27
ENDBRANCH   7  21
TORSDOF 9
ENDMDL
MODEL 2
REMARK VINA RESULT:      -8.6      2.195      3.910
REMARK  9 active torsions:
REMARK  status: ('A' for Active; 'I' for Inactive)
REMARK    1  A    between atoms: C2_2  and  N1_3 
REMARK    2  A    between atoms: C2_2  and  C17_21 
REMARK    3  A    between atoms: N1_3  and  C3_4 
REMARK    4  A    between atoms: C8_10  and  C9_11 
REMARK    5  A    between atoms: C9_11  and  C10_12 
REMARK    6  A    between atoms: C9_11  and  C12_15 
REMARK    7  A    between atoms: C10_12  and  C11_13 
REMARK    8  A    between atoms: C11_13  and  N3_14 
REMARK    9  A    between atoms: C22_26  and  C23_27 
ROOT
HETATM    1  C3  UNL     1      23.312   1.612  51.148  1.00  0.00     0.056 C 
HETATM    2  C4  UNL     1      22.274   0.875  51.589  1.00  0.00     0.031 C 
HETATM    3  C5  UNL     1      20.908   0.770  51.020  1.00  0.00    -0.000 C 
HETATM    4  C6  UNL     1      20.709   0.991  49.716  1.00  0.00    -0.007 C 
HETATM    5  C7  UNL     1      21.428   1.343  48.480  1.00  0.00     0.147 C 
HETATM    6  N2  UNL     1      22.597   2.158  48.778  1.00  0.00    -0.384 N 
HETATM    7  C8  UNL     1      23.301   2.487  49.982  1.00  0.00     0.066 C 
HETATM    8  H11 UNL     1      23.021   2.605  47.921  1.00  0.00     0.160 HD
ENDROOT
BRANCH   1   9
HETATM    9  N1  UNL     1      24.552   1.543  51.880  1.00  0.00    -0.380 N 
HETATM   10  H5  UNL     1      25.096   2.419  52.020  1.00  0.00     0.160 HD
BRANCH   9  11
HETATM   11  C2  UNL     1      25.131   0.335  52.428  1.00  0.00     0.112 C 
HETATM   12  C1  UNL     1      24.425   0.024  53.757  1.00  0.00     0.037 C 
BRANCH  11  13
HETATM   13  C17 UNL     1      26.534   0.664  52.839  1.00  0.00    -0.023 A 
HETATM   14  C18 UNL     1      26.911   1.954  53.127  1.00  0.00     0.010 A 
HETATM   15  C19 UNL     1      28.209   2.282  53.515  1.00  0.00     0.001 A 
HETATM   16  C20 UNL     1      29.123   1.247  53.602  1.00  0.00     0.001 A 
HETATM   17  C21 UNL     1      28.794  -0.063  53.324  1.00  0.00     0.015 A 
HETATM   18  C22 UNL     1      27.493  -0.321  52.946  1.00  0.00     0.010 A 
BRANCH  18  19
HETATM   19  C23 UNL     1      27.185  -1.718  52.661  1.00  0.00     0.270 C 
HETATM   20  O1  UNL     1      27.762  -2.772  53.033  1.00  0.00    -0.301 OA
ENDBRANCH  18  19
ENDBRANCH  11  13
ENDBRANCH   9  11
ENDBRANCH   1   9
BRANCH   7  21
HETATM   21  C9  UNL     1      23.958   3.593  50.139  1.00  0.00     0.005 C 
BRANCH  21  22
HETATM   22  C10 UNL     1      23.291   4.494  51.049  1.00  0.00     0.031 C 
BRANCH  22  23
HETATM   23  C11 UNL     1      23.481   4.839  52.278  1.00  0.00     0.081 C 
BRANCH  23  24
HETATM   24  N3  UNL     1      23.935   5.384  53.490  1.00  0.00    -0.408 N 
HETATM   25  H14 UNL     1      23.790   4.896  54.414  1.00  0.00     0.155 HD
HETATM   26  H15 UNL     1      24.455   6.313  53.532  1.00  0.00     0.155 HD
ENDBRANCH  23  24
ENDBRANCH  22  23
ENDBRANCH  21  22
BRANCH  21  27
HETATM   27  C12 UNL     1      25.204   4.061  49.647  1.00  0.00    -0.006 A 
HETATM   28  C13 UNL     1      25.151   5.369  49.148  1.00  0.00     0.015 A 
HETATM   29  C14 UNL     1      26.291   5.991  48.641  1.00  0.00     0.020 A 
HETATM   30  C15 UNL     1      27.495   5.315  48.627  1.00  0.00     0.116 A 
HETATM   31  N4  UNL     1      27.514   4.054  49.116  1.00  0.00    -0.272 NA
HETATM   32  C16 UNL     1      26.439   3.453  49.601  1.00  0.00     0.128 A 
ENDBRANCH  21  27
ENDBRANCH   7  21
TORSDOF 9
ENDMDL
MODEL 3
REMARK VINA RESULT:      -8.5      1.643      4.518
REMARK  9 active torsions:
REMARK  status: ('A' for Active; 'I' for Inactive)
REMARK    1  A    between atoms: C2_2  and  N1_3 
REMARK    2  A    between atoms: C2_2  and  C17_21 
REMARK    3  A    between atoms: N1_3  and  C3_4 
REMARK    4  A    between atoms: C8_10  and  C9_11 
REMARK    5  A    between atoms: C9_11  and  C10_12 
REMARK    6  A    between atoms: C9_11  and  C12_15 
REMARK    7  A    between atoms: C10_12  and  C11_13 
REMARK    8  A    between atoms: C11_13  and  N3_14 
REMARK    9  A    between atoms: C22_26  and  C23_27 
ROOT
HETATM    1  C3  UNL     1      24.211   3.678  51.593  1.00  0.00     0.056 C 
HETATM    2  C4  UNL     1      24.661   4.712  50.857  1.00  0.00     0.031 C 
HETATM    3  C5  UNL     1      23.874   5.724  50.108  1.00  0.00    -0.000 C 
HETATM    4  C6  UNL     1      22.634   6.030  50.502  1.00  0.00    -0.007 C 
HETATM    5  C7  UNL     1      21.630   5.697  51.528  1.00  0.00     0.147 C 
HETATM    6  N2  UNL     1      21.789   4.322  51.977  1.00  0.00    -0.384 N 
HETATM    7  C8  UNL     1      22.811   3.331  51.811  1.00  0.00     0.066 C 
HETATM    8  H11 UNL     1      20.974   3.976  52.550  1.00  0.00     0.160 HD
ENDROOT
BRANCH   1   9
HETATM    9  N1  UNL     1      25.184   2.827  52.231  1.00  0.00    -0.380 N 
HETATM   10  H5  UNL     1      24.916   2.339  53.111  1.00  0.00     0.160 HD
BRANCH   9  11
HETATM   11  C2  UNL     1      26.535   2.607  51.763  1.00  0.00     0.112 C 
HETATM   12  C1  UNL     1      26.488   2.408  50.240  1.00  0.00     0.037 C 
BRANCH  11  13
HETATM   13  C17 UNL     1      26.972   1.271  52.282  1.00  0.00    -0.023 A 
HETATM   14  C18 UNL     1      26.375   0.108  51.856  1.00  0.00     0.010 A 
HETATM   15  C19 UNL     1      26.768  -1.145  52.322  1.00  0.00     0.001 A 
HETATM   16  C20 UNL     1      27.796  -1.182  53.247  1.00  0.00     0.001 A 
HETATM   17  C21 UNL     1      28.426  -0.044  53.706  1.00  0.00     0.015 A 
HETATM   18  C22 UNL     1      27.991   1.165  53.204  1.00  0.00     0.010 A 
BRANCH  18  19
HETATM   19  C23 UNL     1      28.682   2.344  53.715  1.00  0.00     0.270 C 
HETATM   20  O1  UNL     1      29.485   2.466  54.675  1.00  0.00    -0.301 OA
ENDBRANCH  18  19
ENDBRANCH  11  13
ENDBRANCH   9  11
ENDBRANCH   1   9
BRANCH   7  21
HETATM   21  C9  UNL     1      22.572   2.057  51.814  1.00  0.00     0.005 C 
BRANCH  21  22
HETATM   22  C10 UNL     1      22.718   1.476  50.501  1.00  0.00     0.031 C 
BRANCH  22  23
HETATM   23  C11 UNL     1      21.979   1.442  49.443  1.00  0.00     0.081 C 
BRANCH  23  24
HETATM   24  N3  UNL     1      20.933   1.439  48.505  1.00  0.00    -0.408 N 
HETATM   25  H14 UNL     1      20.407   0.560  48.255  1.00  0.00     0.155 HD
HETATM   26  H15 UNL     1      20.616   2.328  48.010  1.00  0.00     0.155 HD
ENDBRANCH  23  24
ENDBRANCH  22  23
ENDBRANCH  21  22
BRANCH  21  27
HETATM   27  C12 UNL     1      22.256   1.132  52.841  1.00  0.00    -0.006 A 
HETATM   28  C13 UNL     1      23.302   0.249  53.139  1.00  0.00     0.015 A 
HETATM   29  C14 UNL     1      23.167  -0.716  54.136  1.00  0.00     0.020 A 
HETATM   30  C15 UNL     1      21.987  -0.809  54.847  1.00  0.00     0.116 A 
HETATM   31  N4  UNL     1      20.996   0.057  54.537  1.00  0.00    -0.272 NA
HETATM   32  C16 UNL     1      21.112   0.976  53.593  1.00  0.00     0.128 A 
ENDBRANCH  21  27
ENDBRANCH   7  21
TORSDOF 9
ENDMDL
MODEL 4
REMARK VINA RESULT:      -8.3      2.700      6.062
REMARK  9 active torsions:
REMARK  status: ('A' for Active; 'I' for Inactive)
REMARK    1  A    between atoms: C2_2  and  N1_3 
REMARK    2  A    between atoms: C2_2  and  C17_21 
REMARK    3  A    between atoms: N1_3  and  C3_4 
REMARK    4  A    between atoms: C8_10  and  C9_11 
REMARK    5  A    between atoms: C9_11  and  C10_12 
REMARK    6  A    between atoms: C9_11  and  C12_15 
REMARK    7  A    between atoms: C10_12  and  C11_13 
REMARK    8  A    between atoms: C11_13  and  N3_14 
REMARK    9  A    between atoms: C22_26  and  C23_27 
ROOT
HETATM    1  C3  UNL     1      24.053   0.327  52.924  1.00  0.00     0.056 C 
HETATM    2  C4  UNL     1      22.809  -0.096  52.622  1.00  0.00     0.031 C 
HETATM    3  C5  UNL     1      22.053  -1.232  53.205  1.00  0.00    -0.000 C 
HETATM    4  C6  UNL     1      22.318  -1.641  54.450  1.00  0.00    -0.007 C 
HETATM    5  C7  UNL     1      23.187  -1.350  55.603  1.00  0.00     0.147 C 
HETATM    6  N2  UNL     1      24.456  -0.791  55.163  1.00  0.00    -0.384 N 
HETATM    7  C8  UNL     1      24.937  -0.269  53.919  1.00  0.00     0.066 C 
HETATM    8  H11 UNL     1      25.184  -0.762  55.927  1.00  0.00     0.160 HD
ENDROOT
BRANCH   1   9
HETATM    9  N1  UNL     1      24.572   1.467  52.212  1.00  0.00    -0.380 N 
HETATM   10  H5  UNL     1      25.604   1.583  52.144  1.00  0.00     0.160 HD
BRANCH   9  11
HETATM   11  C2  UNL     1      23.770   2.500  51.591  1.00  0.00     0.112 C 
HETATM   12  C1  UNL     1      22.893   1.843  50.514  1.00  0.00     0.037 C 
BRANCH  11  13
HETATM   13  C17 UNL     1      24.702   3.373  50.807  1.00  0.00    -0.023 A 
HETATM   14  C18 UNL     1      25.792   2.850  50.153  1.00  0.00     0.010 A 
HETATM   15  C19 UNL     1      26.669   3.643  49.415  1.00  0.00     0.001 A 
HETATM   16  C20 UNL     1      26.403   4.999  49.363  1.00  0.00     0.001 A 
HETATM   17  C21 UNL     1      25.323   5.571  50.001  1.00  0.00     0.015 A 
HETATM   18  C22 UNL     1      24.492   4.732  50.714  1.00  0.00     0.010 A 
BRANCH  18  19
HETATM   19  C23 UNL     1      23.362   5.376  51.375  1.00  0.00     0.270 C 
HETATM   20  O1  UNL     1      22.286   5.821  50.899  1.00  0.00    -0.301 OA
ENDBRANCH  18  19
ENDBRANCH  11  13
ENDBRANCH   9  11
ENDBRANCH   1   9
BRANCH   7  21
HETATM   21  C9  UNL     1      26.184  -0.309  53.567  1.00  0.00     0.005 C 
BRANCH  21  22
HETATM   22  C10 UNL     1      26.454  -1.392  52.653  1.00  0.00     0.031 C 
BRANCH  22  23
HETATM   23  C11 UNL     1      27.227  -2.426  52.682  1.00  0.00     0.081 C 
BRANCH  23  24
HETATM   24  N3  UNL     1      28.284  -3.338  52.830  1.00  0.00    -0.408 N 
HETATM   25  H14 UNL     1      29.037  -3.210  53.558  1.00  0.00     0.155 HD
HETATM   26  H15 UNL     1      28.369  -4.208  52.221  1.00  0.00     0.155 HD
ENDBRANCH  23  24
ENDBRANCH  22  23
ENDBRANCH  21  22
BRANCH  21  27
HETATM   27  C12 UNL     1      27.300   0.519  53.854  1.00  0.00    -0.006 A 
HETATM   28  C13 UNL     1      27.486   1.549  52.924  1.00  0.00     0.015 A 
HETATM   29  C14 UNL     1      28.527   2.466  53.065  1.00  0.00     0.020 A 
HETATM   30  C15 UNL     1      29.393   2.363  54.135  1.00  0.00     0.116 A 
HETATM   31  N4  UNL     1      29.188   1.358  55.016  1.00  0.00    -0.272 NA
HETATM   32  C16 UNL     1      28.203   0.483  54.893  1.00  0.00     0.128 A 
ENDBRANCH  21  27
ENDBRANCH   7  21
TORSDOF 9
ENDMDL
MODEL 5
REMARK VINA RESULT:      -8.1      2.026      4.962
REMARK  9 active torsions:
REMARK  status: ('A' for Active; 'I' for Inactive)
REMARK    1  A    between atoms: C2_2  and  N1_3 
REMARK    2  A    between atoms: C2_2  and  C17_21 
REMARK    3  A    between atoms: N1_3  and  C3_4 
REMARK    4  A    between atoms: C8_10  and  C9_11 
REMARK    5  A    between atoms: C9_11  and  C10_12 
REMARK    6  A    between atoms: C9_11  and  C12_15 
REMARK    7  A    between atoms: C10_12  and  C11_13 
REMARK    8  A    between atoms: C11_13  and  N3_14 
REMARK    9  A    between atoms: C22_26  and  C23_27 
ROOT
HETATM    1  C3  UNL     1      25.056   2.713  50.636  1.00  0.00     0.056 C 
HETATM    2  C4  UNL     1      26.313   2.948  50.213  1.00  0.00     0.031 C 
HETATM    3  C5  UNL     1      26.811   4.065  49.371  1.00  0.00    -0.000 C 
HETATM    4  C6  UNL     1      26.167   5.237  49.369  1.00  0.00    -0.007 C 
HETATM    5  C7  UNL     1      25.006   5.920  49.964  1.00  0.00     0.147 C 
HETATM    6  N2  UNL     1      23.952   4.967  50.278  1.00  0.00    -0.384 N 
HETATM    7  C8  UNL     1      23.890   3.537  50.342  1.00  0.00     0.066 C 
HETATM    8  H11 UNL     1      23.031   5.427  50.509  1.00  0.00     0.160 HD
ENDROOT
BRANCH   1   9
HETATM    9  N1  UNL     1      24.824   1.550  51.455  1.00  0.00    -0.380 N 
HETATM   10  H5  UNL     1      23.922   1.041  51.351  1.00  0.00     0.160 HD
BRANCH   9  11
HETATM   11  C2  UNL     1      25.742   1.029  52.445  1.00  0.00     0.112 C 
HETATM   12  C1  UNL     1      26.638  -0.018  51.765  1.00  0.00     0.037 C 
BRANCH  11  13
HETATM   13  C17 UNL     1      24.934   0.226  53.419  1.00  0.00    -0.023 A 
HETATM   14  C18 UNL     1      23.641  -0.147  53.140  1.00  0.00     0.010 A 
HETATM   15  C19 UNL     1      22.873  -0.896  54.029  1.00  0.00     0.001 A 
HETATM   16  C20 UNL     1      23.465  -1.258  55.226  1.00  0.00     0.001 A 
HETATM   17  C21 UNL     1      24.759  -0.910  55.552  1.00  0.00     0.015 A 
HETATM   18  C22 UNL     1      25.466  -0.168  54.629  1.00  0.00     0.010 A 
BRANCH  18  19
HETATM   19  C23 UNL     1      26.830   0.181  55.011  1.00  0.00     0.270 C 
HETATM   20  O1  UNL     1      27.880  -0.512  55.009  1.00  0.00    -0.301 OA
ENDBRANCH  18  19
ENDBRANCH  11  13
ENDBRANCH   9  11
ENDBRANCH   1   9
BRANCH   7  21
HETATM   21  C9  UNL     1      22.805   2.863  50.120  1.00  0.00     0.005 C 
BRANCH  21  22
HETATM   22  C10 UNL     1      22.688   2.467  48.737  1.00  0.00     0.031 C 
BRANCH  22  23
HETATM   23  C11 UNL     1      22.340   3.073  47.651  1.00  0.00     0.081 C 
BRANCH  23  24
HETATM   24  N3  UNL     1      21.807   3.452  46.408  1.00  0.00    -0.408 N 
HETATM   25  H14 UNL     1      21.258   2.781  45.806  1.00  0.00     0.155 HD
HETATM   26  H15 UNL     1      21.923   4.437  46.020  1.00  0.00     0.155 HD
ENDBRANCH  23  24
ENDBRANCH  22  23
ENDBRANCH  21  22
BRANCH  21  27
HETATM   27  C12 UNL     1      21.759   2.402  50.960  1.00  0.00    -0.006 A 
HETATM   28  C13 UNL     1      21.338   1.099  50.664  1.00  0.00     0.015 A 
HETATM   29  C14 UNL     1      20.330   0.483  51.404  1.00  0.00     0.020 A 
HETATM   30  C15 UNL     1      19.731   1.161  52.447  1.00  0.00     0.116 A 
HETATM   31  N4  UNL     1      20.159   2.417  52.709  1.00  0.00    -0.272 NA
HETATM   32  C16 UNL     1      21.115   3.012  52.014  1.00  0.00     0.128 A 
ENDBRANCH  21  27
ENDBRANCH   7  21
TORSDOF 9
ENDMDL
MODEL 6
REMARK VINA RESULT:      -8.1      2.383      4.656
REMARK  9 active torsions:
REMARK  status: ('A' for Active; 'I' for Inactive)
REMARK    1  A    between atoms: C2_2  and  N1_3 
REMARK    2  A    between atoms: C2_2  and  C17_21 
REMARK    3  A    between atoms: N1_3  and  C3_4 
REMARK    4  A    between atoms: C8_10  and  C9_11 
REMARK    5  A    between atoms: C9_11  and  C10_12 
REMARK    6  A    between atoms: C9_11  and  C12_15 
REMARK    7  A    between atoms: C10_12  and  C11_13 
REMARK    8  A    between atoms: C11_13  and  N3_14 
REMARK    9  A    between atoms: C22_26  and  C23_27 
ROOT
HETATM    1  C3  UNL     1      25.843   3.697  50.703  1.00  0.00     0.056 C 
HETATM    2  C4  UNL     1      27.005   3.649  50.022  1.00  0.00     0.031 C 
HETATM    3  C5  UNL     1      27.400   4.415  48.814  1.00  0.00    -0.000 C 
HETATM    4  C6  UNL     1      26.850   5.609  48.572  1.00  0.00    -0.007 C 
HETATM    5  C7  UNL     1      25.878   6.569  49.123  1.00  0.00     0.147 C 
HETATM    6  N2  UNL     1      24.845   5.878  49.880  1.00  0.00    -0.384 N 
HETATM    7  C8  UNL     1      24.700   4.542  50.378  1.00  0.00     0.066 C 
HETATM    8  H11 UNL     1      24.021   6.493  50.115  1.00  0.00     0.160 HD
ENDROOT
BRANCH   1   9
HETATM    9  N1  UNL     1      25.700   2.848  51.858  1.00  0.00    -0.380 N 
HETATM   10  H5  UNL     1      25.506   3.290  52.780  1.00  0.00     0.160 HD
BRANCH   9  11
HETATM   11  C2  UNL     1      25.828   1.406  51.855  1.00  0.00     0.112 C 
HETATM   12  C1  UNL     1      24.698   0.823  52.719  1.00  0.00     0.037 C 
BRANCH  11  13
HETATM   13  C17 UNL     1      27.071   1.071  52.622  1.00  0.00    -0.023 A 
HETATM   14  C18 UNL     1      27.805   2.044  53.256  1.00  0.00     0.010 A 
HETATM   15  C19 UNL     1      28.962   1.754  53.978  1.00  0.00     0.001 A 
HETATM   16  C20 UNL     1      29.355   0.429  54.036  1.00  0.00     0.001 A 
HETATM   17  C21 UNL     1      28.652  -0.583  53.418  1.00  0.00     0.015 A 
HETATM   18  C22 UNL     1      27.516  -0.231  52.720  1.00  0.00     0.010 A 
BRANCH  18  19
HETATM   19  C23 UNL     1      26.802  -1.330  52.080  1.00  0.00     0.270 C 
HETATM   20  O1  UNL     1      26.986  -2.573  52.153  1.00  0.00    -0.301 OA
ENDBRANCH  18  19
ENDBRANCH  11  13
ENDBRANCH   9  11
ENDBRANCH   1   9
BRANCH   7  21
HETATM   21  C9  UNL     1      23.549   3.971  50.553  1.00  0.00     0.005 C 
BRANCH  21  22
HETATM   22  C10 UNL     1      22.832   4.532  51.672  1.00  0.00     0.031 C 
BRANCH  22  23
HETATM   23  C11 UNL     1      23.181   5.020  52.815  1.00  0.00     0.081 C 
BRANCH  23  24
HETATM   24  N3  UNL     1      23.855   5.438  53.974  1.00  0.00    -0.408 N 
HETATM   25  H14 UNL     1      24.392   6.345  54.014  1.00  0.00     0.155 HD
HETATM   26  H15 UNL     1      23.847   4.862  54.871  1.00  0.00     0.155 HD
ENDBRANCH  23  24
ENDBRANCH  22  23
ENDBRANCH  21  22
BRANCH  21  27
HETATM   27  C12 UNL     1      22.848   2.961  49.844  1.00  0.00    -0.006 A 
HETATM   28  C13 UNL     1      22.154   2.074  50.676  1.00  0.00     0.015 A 
HETATM   29  C14 UNL     1      21.397   1.032  50.143  1.00  0.00     0.020 A 
HETATM   30  C15 UNL     1      21.326   0.863  48.775  1.00  0.00     0.116 A 
HETATM   31  N4  UNL     1      22.007   1.736  47.998  1.00  0.00    -0.272 NA
HETATM   32  C16 UNL     1      22.728   2.729  48.492  1.00  0.00     0.128 A 
ENDBRANCH  21  27
ENDBRANCH   7  21
TORSDOF 9
ENDMDL
MODEL 7
REMARK VINA RESULT:      -8.1      2.812      5.662
REMARK  9 active torsions:
REMARK  status: ('A' for Active; 'I' for Inactive)
REMARK    1  A    between atoms: C2_2  and  N1_3 
REMARK    2  A    between atoms: C2_2  and  C17_21 
REMARK    3  A    between atoms: N1_3  and  C3_4 
REMARK    4  A    between atoms: C8_10  and  C9_11 
REMARK    5  A    between atoms: C9_11  and  C10_12 
REMARK    6  A    between atoms: C9_11  and  C12_15 
REMARK    7  A    between atoms: C10_12  and  C11_13 
REMARK    8  A    between atoms: C11_13  and  N3_14 
REMARK    9  A    between atoms: C22_26  and  C23_27 
ROOT
HETATM    1  C3  UNL     1      22.528   1.759  50.773  1.00  0.00     0.056 C 
HETATM    2  C4  UNL     1      21.614   1.031  50.103  1.00  0.00     0.031 C 
HETATM    3  C5  UNL     1      20.508   0.206  50.650  1.00  0.00    -0.000 C 
HETATM    4  C6  UNL     1      19.978   0.507  51.840  1.00  0.00    -0.007 C 
HETATM    5  C7  UNL     1      20.095   1.469  52.949  1.00  0.00     0.147 C 
HETATM    6  N2  UNL     1      21.460   1.961  53.063  1.00  0.00    -0.384 N 
HETATM    7  C8  UNL     1      22.618   1.889  52.222  1.00  0.00     0.066 C 
HETATM    8  H11 UNL     1      21.639   2.485  53.961  1.00  0.00     0.160 HD
ENDROOT
BRANCH   1   9
HETATM    9  N1  UNL     1      23.511   2.483  50.006  1.00  0.00    -0.380 N 
HETATM   10  H5  UNL     1      24.437   2.038  49.840  1.00  0.00     0.160 HD
BRANCH   9  11
HETATM   11  C2  UNL     1      23.331   3.809  49.458  1.00  0.00     0.112 C 
HETATM   12  C1  UNL     1      22.767   3.668  48.035  1.00  0.00     0.037 C 
BRANCH  11  13
HETATM   13  C17 UNL     1      24.696   4.389  49.242  1.00  0.00    -0.023 A 
HETATM   14  C18 UNL     1      25.822   3.602  49.286  1.00  0.00     0.010 A 
HETATM   15  C19 UNL     1      27.101   4.119  49.085  1.00  0.00     0.001 A 
HETATM   16  C20 UNL     1      27.202   5.475  48.836  1.00  0.00     0.001 A 
HETATM   17  C21 UNL     1      26.103   6.306  48.781  1.00  0.00     0.015 A 
HETATM   18  C22 UNL     1      24.866   5.733  48.988  1.00  0.00     0.010 A 
BRANCH  18  19
HETATM   19  C23 UNL     1      23.729   6.645  48.923  1.00  0.00     0.270 C 
HETATM   20  O1  UNL     1      23.165   7.310  49.829  1.00  0.00    -0.301 OA
ENDBRANCH  18  19
ENDBRANCH  11  13
ENDBRANCH   9  11
ENDBRANCH   1   9
BRANCH   7  21
HETATM   21  C9  UNL     1      23.830   1.906  52.681  1.00  0.00     0.005 C 
BRANCH  21  22
HETATM   22  C10 UNL     1      24.200   3.208  53.182  1.00  0.00     0.031 C 
BRANCH  22  23
HETATM   23  C11 UNL     1      23.852   4.417  52.895  1.00  0.00     0.081 C 
BRANCH  23  24
HETATM   24  N3  UNL     1      23.789   5.767  52.511  1.00  0.00    -0.408 N 
HETATM   25  H14 UNL     1      23.165   6.461  53.003  1.00  0.00     0.155 HD
HETATM   26  H15 UNL     1      24.376   6.156  51.712  1.00  0.00     0.155 HD
ENDBRANCH  23  24
ENDBRANCH  22  23
ENDBRANCH  21  22
BRANCH  21  27
HETATM   27  C12 UNL     1      24.825   0.906  52.835  1.00  0.00    -0.006 A 
HETATM   28  C13 UNL     1      25.991   1.161  52.102  1.00  0.00     0.015 A 
HETATM   29  C14 UNL     1      27.077   0.288  52.151  1.00  0.00     0.020 A 
HETATM   30  C15 UNL     1      27.010  -0.848  52.933  1.00  0.00     0.116 A 
HETATM   31  N4  UNL     1      25.871  -1.067  53.629  1.00  0.00    -0.272 NA
HETATM   32  C16 UNL     1      24.835  -0.245  53.590  1.00  0.00     0.128 A 
ENDBRANCH  21  27
ENDBRANCH   7  21
TORSDOF 9
ENDMDL
MODEL 8
REMARK VINA RESULT:      -8.1      2.225      4.803
REMARK  9 active torsions:
REMARK  status: ('A' for Active; 'I' for Inactive)
REMARK    1  A    between atoms: C2_2  and  N1_3 
REMARK    2  A    between atoms: C2_2  and  C17_21 
REMARK    3  A    between atoms: N1_3  and  C3_4 
REMARK    4  A    between atoms: C8_10  and  C9_11 
REMARK    5  A    between atoms: C9_11  and  C10_12 
REMARK    6  A    between atoms: C9_11  and  C12_15 
REMARK    7  A    between atoms: C10_12  and  C11_13 
REMARK    8  A    between atoms: C11_13  and  N3_14 
REMARK    9  A    between atoms: C22_26  and  C23_27 
ROOT
HETATM    1  C3  UNL     1      25.199   2.703  50.624  1.00  0.00     0.056 C 
HETATM    2  C4  UNL     1      26.420   2.988  50.131  1.00  0.00     0.031 C 
HETATM    3  C5  UNL     1      26.831   4.142  49.294  1.00  0.00    -0.000 C 
HETATM    4  C6  UNL     1      26.156   5.294  49.368  1.00  0.00    -0.007 C 
HETATM    5  C7  UNL     1      25.016   5.925  50.054  1.00  0.00     0.147 C 
HETATM    6  N2  UNL     1      24.011   4.931  50.403  1.00  0.00    -0.384 N 
HETATM    7  C8  UNL     1      23.993   3.499  50.428  1.00  0.00     0.066 C 
HETATM    8  H11 UNL     1      23.093   5.357  50.704  1.00  0.00     0.160 HD
ENDROOT
BRANCH   1   9
HETATM    9  N1  UNL     1      25.052   1.510  51.420  1.00  0.00    -0.380 N 
HETATM   10  H5  UNL     1      24.828   0.615  50.937  1.00  0.00     0.160 HD
BRANCH   9  11
HETATM   11  C2  UNL     1      25.166   1.448  52.861  1.00  0.00     0.112 C 
HETATM   12  C1  UNL     1      24.823   2.835  53.429  1.00  0.00     0.037 C 
BRANCH  11  13
HETATM   13  C17 UNL     1      26.619   1.281  53.184  1.00  0.00    -0.023 A 
HETATM   14  C18 UNL     1      27.419   2.363  53.464  1.00  0.00     0.010 A 
HETATM   15  C19 UNL     1      28.772   2.231  53.770  1.00  0.00     0.001 A 
HETATM   16  C20 UNL     1      29.294   0.950  53.783  1.00  0.00     0.001 A 
HETATM   17  C21 UNL     1      28.534  -0.167  53.509  1.00  0.00     0.015 A 
HETATM   18  C22 UNL     1      27.201   0.032  53.214  1.00  0.00     0.010 A 
BRANCH  18  19
HETATM   19  C23 UNL     1      26.432  -1.175  52.930  1.00  0.00     0.270 C 
HETATM   20  O1  UNL     1      26.716  -2.174  52.220  1.00  0.00    -0.301 OA
ENDBRANCH  18  19
ENDBRANCH  11  13
ENDBRANCH   9  11
ENDBRANCH   1   9
BRANCH   7  21
HETATM   21  C9  UNL     1      22.916   2.799  50.252  1.00  0.00     0.005 C 
BRANCH  21  22
HETATM   22  C10 UNL     1      22.770   2.365  48.884  1.00  0.00     0.031 C 
BRANCH  22  23
HETATM   23  C11 UNL     1      22.470   2.957  47.776  1.00  0.00     0.081 C 
BRANCH  23  24
HETATM   24  N3  UNL     1      21.990   3.321  46.508  1.00  0.00    -0.408 N 
HETATM   25  H14 UNL     1      22.580   3.860  45.819  1.00  0.00     0.155 HD
HETATM   26  H15 UNL     1      21.010   3.063  46.178  1.00  0.00     0.155 HD
ENDBRANCH  23  24
ENDBRANCH  22  23
ENDBRANCH  21  22
BRANCH  21  27
HETATM   27  C12 UNL     1      21.902   2.340  51.132  1.00  0.00    -0.006 A 
HETATM   28  C13 UNL     1      21.597   0.982  50.972  1.00  0.00     0.015 A 
HETATM   29  C14 UNL     1      20.635   0.363  51.769  1.00  0.00     0.020 A 
HETATM   30  C15 UNL     1      19.968   1.093  52.733  1.00  0.00     0.116 A 
HETATM   31  N4  UNL     1      20.285   2.401  52.864  1.00  0.00    -0.272 NA
HETATM   32  C16 UNL     1      21.196   2.999  52.114  1.00  0.00     0.128 A 
ENDBRANCH  21  27
ENDBRANCH   7  21
TORSDOF 9
ENDMDL
MODEL 9
REMARK VINA RESULT:      -8.0      2.759      5.008
REMARK  9 active torsions:
REMARK  status: ('A' for Active; 'I' for Inactive)
REMARK    1  A    between atoms: C2_2  and  N1_3 
REMARK    2  A    between atoms: C2_2  and  C17_21 
REMARK    3  A    between atoms: N1_3  and  C3_4 
REMARK    4  A    between atoms: C8_10  and  C9_11 
REMARK    5  A    between atoms: C9_11  and  C10_12 
REMARK    6  A    between atoms: C9_11  and  C12_15 
REMARK    7  A    between atoms: C10_12  and  C11_13 
REMARK    8  A    between atoms: C11_13  and  N3_14 
REMARK    9  A    between atoms: C22_26  and  C23_27 
ROOT
HETATM    1  C3  UNL     1      22.719   2.640  49.914  1.00  0.00     0.056 C 
HETATM    2  C4  UNL     1      21.506   2.088  50.112  1.00  0.00     0.031 C 
HETATM    3  C5  UNL     1      20.233   2.377  49.406  1.00  0.00    -0.000 C 
HETATM    4  C6  UNL     1      20.257   2.841  48.152  1.00  0.00    -0.007 C 
HETATM    5  C7  UNL     1      21.187   3.219  47.075  1.00  0.00     0.147 C 
HETATM    6  N2  UNL     1      22.446   3.699  47.627  1.00  0.00    -0.384 N 
HETATM    7  C8  UNL     1      23.036   3.670  48.932  1.00  0.00     0.066 C 
HETATM    8  H11 UNL     1      23.059   4.172  46.911  1.00  0.00     0.160 HD
ENDROOT
BRANCH   1   9
HETATM    9  N1  UNL     1      23.812   2.185  50.736  1.00  0.00    -0.380 N 
HETATM   10  H5  UNL     1      24.761   2.127  50.312  1.00  0.00     0.160 HD
BRANCH   9  11
HETATM   11  C2  UNL     1      23.702   1.770  52.118  1.00  0.00     0.112 C 
HETATM   12  C1  UNL     1      23.937   3.000  53.008  1.00  0.00     0.037 C 
BRANCH  11  13
HETATM   13  C17 UNL     1      24.878   0.889  52.411  1.00  0.00    -0.023 A 
HETATM   14  C18 UNL     1      26.135   1.197  51.947  1.00  0.00     0.010 A 
HETATM   15  C19 UNL     1      27.243   0.394  52.211  1.00  0.00     0.001 A 
HETATM   16  C20 UNL     1      27.033  -0.744  52.969  1.00  0.00     0.001 A 
HETATM   17  C21 UNL     1      25.793  -1.095  53.457  1.00  0.00     0.015 A 
HETATM   18  C22 UNL     1      24.737  -0.258  53.161  1.00  0.00     0.010 A 
BRANCH  18  19
HETATM   19  C23 UNL     1      23.442  -0.665  53.696  1.00  0.00     0.270 C 
HETATM   20  O1  UNL     1      23.116  -1.030  54.855  1.00  0.00    -0.301 OA
ENDBRANCH  18  19
ENDBRANCH  11  13
ENDBRANCH   9  11
ENDBRANCH   1   9
BRANCH   7  21
HETATM   21  C9  UNL     1      23.875   4.566  49.351  1.00  0.00     0.005 C 
BRANCH  21  22
HETATM   22  C10 UNL     1      23.270   5.469  50.301  1.00  0.00     0.031 C 
BRANCH  22  23
HETATM   23  C11 UNL     1      23.704   6.124  51.326  1.00  0.00     0.081 C 
BRANCH  23  24
HETATM   24  N3  UNL     1      24.458   6.830  52.278  1.00  0.00    -0.408 N 
HETATM   25  H14 UNL     1      24.027   7.564  52.901  1.00  0.00     0.155 HD
HETATM   26  H15 UNL     1      25.498   6.650  52.422  1.00  0.00     0.155 HD
ENDBRANCH  23  24
ENDBRANCH  22  23
ENDBRANCH  21  22
BRANCH  21  27
HETATM   27  C12 UNL     1      25.253   4.795  49.108  1.00  0.00    -0.006 A 
HETATM   28  C13 UNL     1      25.523   6.060  48.570  1.00  0.00     0.015 A 
HETATM   29  C14 UNL     1      26.828   6.457  48.286  1.00  0.00     0.020 A 
HETATM   30  C15 UNL     1      27.878   5.596  48.535  1.00  0.00     0.116 A 
HETATM   31  N4  UNL     1      27.587   4.382  49.055  1.00  0.00    -0.272 NA
HETATM   32  C16 UNL     1      26.352   3.995  49.329  1.00  0.00     0.128 A 
ENDBRANCH  21  27
ENDBRANCH   7  21
TORSDOF 9
ENDMDL
