MODEL 1
REMARK VINA RESULT:      -8.5      0.000      0.000
REMARK  7 active torsions:
REMARK  status: ('A' for Active; 'I' for Inactive)
REMARK    1  A    between atoms: N1_2  and  C3_4 
REMARK    2  A    between atoms: C3_4  and  C4_5 
REMARK    3  A    between atoms: C5_6  and  C6_7 
REMARK       I    between atoms: C6_7  and  N2_9 
REMARK    4  A    between atoms: N5_18  and  C13_19 
REMARK    5  A    between atoms: C13_19  and  O2_20 
REMARK    6  A    between atoms: C13_19  and  C14_21 
REMARK    7  A    between atoms: C14_21  and  C15_22 
ROOT
HETATM    1  C6  UNL     1      19.516   3.432  51.217  1.00  0.00     0.243 C 
HETATM    2  O1  UNL     1      18.503   3.713  51.933  1.00  0.00    -0.268 OA
HETATM    3  N2  UNL     1      20.425   2.349  51.507  1.00  0.00    -0.347 N 
HETATM    4  C7  UNL     1      21.606   1.895  50.835  1.00  0.00     0.130 C 
HETATM    5  C8  UNL     1      22.779   1.620  51.791  1.00  0.00     0.058 C 
HETATM    6  C9  UNL     1      22.346   0.620  52.762  1.00  0.00    -0.031 A 
HETATM    7  C10 UNL     1      23.061  -0.001  53.669  1.00  0.00     0.095 A 
HETATM    8  C11 UNL     1      22.294  -0.939  54.483  1.00  0.00     0.124 A 
HETATM    9  N3  UNL     1      22.691  -1.687  55.448  1.00  0.00    -0.231 NA
HETATM   10  C12 UNL     1      24.072  -1.595  55.776  1.00  0.00     0.256 A 
HETATM   11  N4  UNL     1      24.810  -0.813  55.130  1.00  0.00    -0.163 NA
HETATM   12  N5  UNL     1      24.432   0.021  54.072  1.00  0.00    -0.236 N 
HETATM   13  S1  UNL     1      20.605  -0.861  53.914  1.00  0.00    -0.097 SA
HETATM   14  C21 UNL     1      20.905   0.328  52.601  1.00  0.00     0.103 A 
HETATM   15  C22 UNL     1      20.080   1.578  52.688  1.00  0.00     0.146 C 
ENDROOT
BRANCH  12  16
HETATM   16  C13 UNL     1      25.423   0.765  53.433  1.00  0.00     0.247 C 
BRANCH  16  17
HETATM   17  O2  UNL     1      25.306   2.027  53.020  1.00  0.00    -0.375 OA
HETATM   18  H17 UNL     1      24.720   2.509  53.623  1.00  0.00     0.212 HD
ENDBRANCH  16  17
BRANCH  16  19
HETATM   19  C14 UNL     1      25.966  -0.070  52.256  1.00  0.00     0.094 C 
BRANCH  19  20
HETATM   20  C15 UNL     1      27.227  -0.762  52.673  1.00  0.00    -0.054 A 
HETATM   21  C16 UNL     1      28.260   0.029  53.192  1.00  0.00     0.007 A 
HETATM   22  C17 UNL     1      29.418  -0.618  53.572  1.00  0.00     0.001 A 
HETATM   23  C18 UNL     1      29.610  -1.977  53.471  1.00  0.00     0.000 A 
HETATM   24  C19 UNL     1      28.566  -2.686  52.959  1.00  0.00     0.001 A 
HETATM   25  C20 UNL     1      27.356  -2.150  52.543  1.00  0.00     0.007 A 
ENDBRANCH  19  20
ENDBRANCH  16  19
ENDBRANCH  12  16
BRANCH   1  26
HETATM   26  C5  UNL     1      19.733   4.264  50.060  1.00  0.00     0.072 C 
HETATM   27  C4  UNL     1      20.612   5.247  50.006  1.00  0.00     0.008 C 
BRANCH  27  28
HETATM   28  C3  UNL     1      21.623   5.903  50.860  1.00  0.00     0.299 C 
BRANCH  28  29
HETATM   29  N1  UNL     1      22.887   5.179  50.821  1.00  0.00     0.083 N 
HETATM   30  C1  UNL     1      23.843   5.961  51.612  1.00  0.00     0.309 C 
HETATM   31  C2  UNL     1      23.395   5.153  49.471  1.00  0.00     0.309 C 
ENDBRANCH  28  29
ENDBRANCH  27  28
ENDBRANCH   1  26
TORSDOF 7
ENDMDL
MODEL 2
REMARK VINA RESULT:      -8.5      2.463      6.234
REMARK  7 active torsions:
REMARK  status: ('A' for Active; 'I' for Inactive)
REMARK    1  A    between atoms: N1_2  and  C3_4 
REMARK    2  A    between atoms: C3_4  and  C4_5 
REMARK    3  A    between atoms: C5_6  and  C6_7 
REMARK       I    between atoms: C6_7  and  N2_9 
REMARK    4  A    between atoms: N5_18  and  C13_19 
REMARK    5  A    between atoms: C13_19  and  O2_20 
REMARK    6  A    between atoms: C13_19  and  C14_21 
REMARK    7  A    between atoms: C14_21  and  C15_22 
ROOT
HETATM    1  C6  UNL     1      26.006   1.029  52.120  1.00  0.00     0.243 C 
HETATM    2  O1  UNL     1      26.596  -0.071  51.873  1.00  0.00    -0.268 OA
HETATM    3  N2  UNL     1      24.658   1.119  52.625  1.00  0.00    -0.347 N 
HETATM    4  C7  UNL     1      23.837   2.249  52.947  1.00  0.00     0.130 C 
HETATM    5  C8  UNL     1      22.406   2.134  52.396  1.00  0.00     0.058 C 
HETATM    6  C9  UNL     1      21.809   0.918  52.939  1.00  0.00    -0.031 A 
HETATM    7  C10 UNL     1      20.569   0.502  52.841  1.00  0.00     0.095 A 
HETATM    8  C11 UNL     1      20.321  -0.775  53.503  1.00  0.00     0.124 A 
HETATM    9  N3  UNL     1      19.230  -1.447  53.583  1.00  0.00    -0.231 NA
HETATM   10  C12 UNL     1      18.099  -0.875  52.939  1.00  0.00     0.256 A 
HETATM   11  N4  UNL     1      18.219   0.224  52.342  1.00  0.00    -0.163 NA
HETATM   12  N5  UNL     1      19.378   0.998  52.225  1.00  0.00    -0.236 N 
HETATM   13  S1  UNL     1      21.872  -1.306  54.205  1.00  0.00    -0.097 SA
HETATM   14  C21 UNL     1      22.812   0.138  53.696  1.00  0.00     0.103 A 
HETATM   15  C22 UNL     1      24.018  -0.164  52.856  1.00  0.00     0.146 C 
ENDROOT
BRANCH  12  16
HETATM   16  C13 UNL     1      19.285   2.230  51.580  1.00  0.00     0.247 C 
BRANCH  16  17
HETATM   17  O2  UNL     1      18.504   3.246  51.948  1.00  0.00    -0.375 OA
HETATM   18  H17 UNL     1      17.979   3.538  51.188  1.00  0.00     0.212 HD
ENDBRANCH  16  17
BRANCH  16  19
HETATM   19  C14 UNL     1      19.045   1.968  50.079  1.00  0.00     0.094 C 
BRANCH  19  20
HETATM   20  C15 UNL     1      20.278   2.320  49.306  1.00  0.00    -0.054 A 
HETATM   21  C16 UNL     1      20.570   3.679  49.133  1.00  0.00     0.007 A 
HETATM   22  C17 UNL     1      21.708   3.993  48.419  1.00  0.00     0.001 A 
HETATM   23  C18 UNL     1      22.558   3.057  47.875  1.00  0.00     0.000 A 
HETATM   24  C19 UNL     1      22.216   1.755  48.081  1.00  0.00     0.001 A 
HETATM   25  C20 UNL     1      21.101   1.316  48.780  1.00  0.00     0.007 A 
ENDBRANCH  19  20
ENDBRANCH  16  19
ENDBRANCH  12  16
BRANCH   1  26
HETATM   26  C5  UNL     1      26.762   2.231  51.867  1.00  0.00     0.072 C 
HETATM   27  C4  UNL     1      26.575   3.021  50.828  1.00  0.00     0.008 C 
BRANCH  27  28
HETATM   28  C3  UNL     1      25.714   3.126  49.631  1.00  0.00     0.299 C 
BRANCH  28  29
HETATM   29  N1  UNL     1      25.624   4.505  49.173  1.00  0.00     0.083 N 
HETATM   30  C1  UNL     1      26.994   4.941  48.881  1.00  0.00     0.309 C 
HETATM   31  C2  UNL     1      25.145   5.346  50.243  1.00  0.00     0.309 C 
ENDBRANCH  28  29
ENDBRANCH  27  28
ENDBRANCH   1  26
TORSDOF 7
ENDMDL
MODEL 3
REMARK VINA RESULT:      -8.4      2.062      2.729
REMARK  7 active torsions:
REMARK  status: ('A' for Active; 'I' for Inactive)
REMARK    1  A    between atoms: N1_2  and  C3_4 
REMARK    2  A    between atoms: C3_4  and  C4_5 
REMARK    3  A    between atoms: C5_6  and  C6_7 
REMARK       I    between atoms: C6_7  and  N2_9 
REMARK    4  A    between atoms: N5_18  and  C13_19 
REMARK    5  A    between atoms: C13_19  and  O2_20 
REMARK    6  A    between atoms: C13_19  and  C14_21 
REMARK    7  A    between atoms: C14_21  and  C15_22 
ROOT
HETATM    1  C6  UNL     1      21.897   4.622  49.897  1.00  0.00     0.243 C 
HETATM    2  O1  UNL     1      21.062   5.453  50.375  1.00  0.00    -0.268 OA
HETATM    3  N2  UNL     1      22.048   3.270  50.380  1.00  0.00    -0.347 N 
HETATM    4  C7  UNL     1      22.928   2.211  49.981  1.00  0.00     0.130 C 
HETATM    5  C8  UNL     1      23.591   1.495  51.171  1.00  0.00     0.058 C 
HETATM    6  C9  UNL     1      22.533   0.966  52.026  1.00  0.00    -0.031 A 
HETATM    7  C10 UNL     1      22.644   0.178  53.069  1.00  0.00     0.095 A 
HETATM    8  C11 UNL     1      21.368  -0.150  53.698  1.00  0.00     0.124 A 
HETATM    9  N3  UNL     1      21.137  -0.880  54.728  1.00  0.00    -0.231 NA
HETATM   10  C12 UNL     1      22.279  -1.457  55.348  1.00  0.00     0.256 A 
HETATM   11  N4  UNL     1      23.419  -1.231  54.876  1.00  0.00    -0.163 NA
HETATM   12  N5  UNL     1      23.728  -0.446  53.759  1.00  0.00    -0.236 N 
HETATM   13  S1  UNL     1      20.100   0.701  52.776  1.00  0.00    -0.097 SA
HETATM   14  C21 UNL     1      21.207   1.420  51.556  1.00  0.00     0.103 A 
HETATM   15  C22 UNL     1      21.143   2.916  51.460  1.00  0.00     0.146 C 
ENDROOT
BRANCH  12  16
HETATM   16  C13 UNL     1      25.059  -0.378  53.350  1.00  0.00     0.247 C 
BRANCH  16  17
HETATM   17  O2  UNL     1      25.641  -1.173  52.452  1.00  0.00    -0.375 OA
HETATM   18  H17 UNL     1      26.264  -1.762  52.903  1.00  0.00     0.212 HD
ENDBRANCH  16  17
BRANCH  16  19
HETATM   19  C14 UNL     1      25.948  -0.359  54.611  1.00  0.00     0.094 C 
BRANCH  19  20
HETATM   20  C15 UNL     1      27.131   0.529  54.376  1.00  0.00    -0.054 A 
HETATM   21  C16 UNL     1      26.896   1.785  53.805  1.00  0.00     0.007 A 
HETATM   22  C17 UNL     1      27.993   2.596  53.592  1.00  0.00     0.001 A 
HETATM   23  C18 UNL     1      29.285   2.240  53.906  1.00  0.00     0.000 A 
HETATM   24  C19 UNL     1      29.442   1.006  54.459  1.00  0.00     0.001 A 
HETATM   25  C20 UNL     1      28.421   0.105  54.720  1.00  0.00     0.007 A 
ENDBRANCH  19  20
ENDBRANCH  16  19
ENDBRANCH  12  16
BRANCH   1  26
HETATM   26  C5  UNL     1      22.723   5.095  48.813  1.00  0.00     0.072 C 
HETATM   27  C4  UNL     1      24.034   5.229  48.881  1.00  0.00     0.008 C 
BRANCH  27  28
HETATM   28  C3  UNL     1      25.140   5.026  49.839  1.00  0.00     0.299 C 
BRANCH  28  29
HETATM   29  N1  UNL     1      26.151   4.136  49.287  1.00  0.00     0.083 N 
HETATM   30  C1  UNL     1      26.629   3.304  50.397  1.00  0.00     0.309 C 
HETATM   31  C2  UNL     1      27.285   4.904  48.833  1.00  0.00     0.309 C 
ENDBRANCH  28  29
ENDBRANCH  27  28
ENDBRANCH   1  26
TORSDOF 7
ENDMDL
MODEL 4
REMARK VINA RESULT:      -8.4      2.175      3.111
REMARK  7 active torsions:
REMARK  status: ('A' for Active; 'I' for Inactive)
REMARK    1  A    between atoms: N1_2  and  C3_4 
REMARK    2  A    between atoms: C3_4  and  C4_5 
REMARK    3  A    between atoms: C5_6  and  C6_7 
REMARK       I    between atoms: C6_7  and  N2_9 
REMARK    4  A    between atoms: N5_18  and  C13_19 
REMARK    5  A    between atoms: C13_19  and  O2_20 
REMARK    6  A    between atoms: C13_19  and  C14_21 
REMARK    7  A    between atoms: C14_21  and  C15_22 
ROOT
HETATM    1  C6  UNL     1      22.739   5.305  50.403  1.00  0.00     0.243 C 
HETATM    2  O1  UNL     1      21.987   6.177  50.942  1.00  0.00    -0.268 OA
HETATM    3  N2  UNL     1      22.698   3.900  50.731  1.00  0.00    -0.347 N 
HETATM    4  C7  UNL     1      23.463   2.789  50.247  1.00  0.00     0.130 C 
HETATM    5  C8  UNL     1      23.969   1.867  51.370  1.00  0.00     0.058 C 
HETATM    6  C9  UNL     1      22.810   1.385  52.115  1.00  0.00    -0.031 A 
HETATM    7  C10 UNL     1      22.768   0.478  53.061  1.00  0.00     0.095 A 
HETATM    8  C11 UNL     1      21.429   0.248  53.598  1.00  0.00     0.124 A 
HETATM    9  N3  UNL     1      21.056  -0.557  54.525  1.00  0.00    -0.231 NA
HETATM   10  C12 UNL     1      22.084  -1.340  55.118  1.00  0.00     0.256 A 
HETATM   11  N4  UNL     1      23.268  -1.209  54.721  1.00  0.00    -0.163 NA
HETATM   12  N5  UNL     1      23.729  -0.351  53.717  1.00  0.00    -0.236 N 
HETATM   13  S1  UNL     1      20.326   1.349  52.731  1.00  0.00    -0.097 SA
HETATM   14  C21 UNL     1      21.576   2.053  51.649  1.00  0.00     0.103 A 
HETATM   15  C22 UNL     1      21.700   3.546  51.725  1.00  0.00     0.146 C 
ENDROOT
BRANCH  12  16
HETATM   16  C13 UNL     1      25.079  -0.407  53.372  1.00  0.00     0.247 C 
BRANCH  16  17
HETATM   17  O2  UNL     1      25.654  -1.349  52.625  1.00  0.00    -0.375 OA
HETATM   18  H17 UNL     1      26.610  -1.343  52.782  1.00  0.00     0.212 HD
ENDBRANCH  16  17
BRANCH  16  19
HETATM   19  C14 UNL     1      25.910  -0.254  54.662  1.00  0.00     0.094 C 
BRANCH  19  20
HETATM   20  C15 UNL     1      27.095   0.622  54.393  1.00  0.00    -0.054 A 
HETATM   21  C16 UNL     1      26.883   1.791  53.653  1.00  0.00     0.007 A 
HETATM   22  C17 UNL     1      27.981   2.591  53.410  1.00  0.00     0.001 A 
HETATM   23  C18 UNL     1      29.254   2.306  53.848  1.00  0.00     0.000 A 
HETATM   24  C19 UNL     1      29.390   1.154  54.563  1.00  0.00     0.001 A 
HETATM   25  C20 UNL     1      28.365   0.272  54.870  1.00  0.00     0.007 A 
ENDBRANCH  19  20
ENDBRANCH  16  19
ENDBRANCH  12  16
BRANCH   1  26
HETATM   26  C5  UNL     1      23.673   5.787  49.416  1.00  0.00     0.072 C 
HETATM   27  C4  UNL     1      23.408   5.884  48.127  1.00  0.00     0.008 C 
BRANCH  27  28
HETATM   28  C3  UNL     1      22.302   5.630  47.181  1.00  0.00     0.299 C 
BRANCH  28  29
HETATM   29  N1  UNL     1      22.076   4.201  47.015  1.00  0.00     0.083 N 
HETATM   30  C1  UNL     1      21.923   3.965  45.575  1.00  0.00     0.309 C 
HETATM   31  C2  UNL     1      20.824   3.828  47.627  1.00  0.00     0.309 C 
ENDBRANCH  28  29
ENDBRANCH  27  28
ENDBRANCH   1  26
TORSDOF 7
ENDMDL
MODEL 5
REMARK VINA RESULT:      -8.4      2.926      7.035
REMARK  7 active torsions:
REMARK  status: ('A' for Active; 'I' for Inactive)
REMARK    1  A    between atoms: N1_2  and  C3_4 
REMARK    2  A    between atoms: C3_4  and  C4_5 
REMARK    3  A    between atoms: C5_6  and  C6_7 
REMARK       I    between atoms: C6_7  and  N2_9 
REMARK    4  A    between atoms: N5_18  and  C13_19 
REMARK    5  A    between atoms: C13_19  and  O2_20 
REMARK    6  A    between atoms: C13_19  and  C14_21 
REMARK    7  A    between atoms: C14_21  and  C15_22 
ROOT
HETATM    1  C6  UNL     1      23.373  -0.107  53.166  1.00  0.00     0.243 C 
HETATM    2  O1  UNL     1      22.661  -1.051  52.698  1.00  0.00    -0.268 OA
HETATM    3  N2  UNL     1      23.066   1.291  52.989  1.00  0.00    -0.347 N 
HETATM    4  C7  UNL     1      23.744   2.476  53.425  1.00  0.00     0.130 C 
HETATM    5  C8  UNL     1      23.876   3.539  52.320  1.00  0.00     0.058 C 
HETATM    6  C9  UNL     1      22.534   3.878  51.858  1.00  0.00    -0.031 A 
HETATM    7  C10 UNL     1      22.172   4.827  51.028  1.00  0.00     0.095 A 
HETATM    8  C11 UNL     1      20.734   4.876  50.779  1.00  0.00     0.124 A 
HETATM    9  N3  UNL     1      20.070   5.670  50.021  1.00  0.00    -0.231 NA
HETATM   10  C12 UNL     1      20.834   6.645  49.322  1.00  0.00     0.256 A 
HETATM   11  N4  UNL     1      22.080   6.678  49.474  1.00  0.00    -0.163 NA
HETATM   12  N5  UNL     1      22.853   5.840  50.285  1.00  0.00    -0.236 N 
HETATM   13  S1  UNL     1      19.998   3.557  51.729  1.00  0.00    -0.097 SA
HETATM   14  C21 UNL     1      21.528   2.993  52.482  1.00  0.00     0.103 A 
HETATM   15  C22 UNL     1      21.847   1.546  52.240  1.00  0.00     0.146 C 
ENDROOT
BRANCH  12  16
HETATM   16  C13 UNL     1      24.222   6.089  50.372  1.00  0.00     0.247 C 
BRANCH  16  17
HETATM   17  O2  UNL     1      24.831   6.764  51.347  1.00  0.00    -0.375 OA
HETATM   18  H17 UNL     1      25.635   7.176  50.996  1.00  0.00     0.212 HD
ENDBRANCH  16  17
BRANCH  16  19
HETATM   19  C14 UNL     1      24.689   6.677  49.026  1.00  0.00     0.094 C 
BRANCH  19  20
HETATM   20  C15 UNL     1      26.094   6.237  48.748  1.00  0.00    -0.054 A 
HETATM   21  C16 UNL     1      26.974   7.182  48.206  1.00  0.00     0.007 A 
HETATM   22  C17 UNL     1      28.266   6.767  47.953  1.00  0.00     0.001 A 
HETATM   23  C18 UNL     1      28.728   5.495  48.200  1.00  0.00     0.000 A 
HETATM   24  C19 UNL     1      27.821   4.627  48.728  1.00  0.00     0.001 A 
HETATM   25  C20 UNL     1      26.499   4.925  49.024  1.00  0.00     0.007 A 
ENDBRANCH  19  20
ENDBRANCH  16  19
ENDBRANCH  12  16
BRANCH   1  26
HETATM   26  C5  UNL     1      24.547  -0.498  53.908  1.00  0.00     0.072 C 
HETATM   27  C4  UNL     1      25.782  -0.391  53.457  1.00  0.00     0.008 C 
BRANCH  27  28
HETATM   28  C3  UNL     1      26.507   0.070  52.254  1.00  0.00     0.299 C 
BRANCH  28  29
HETATM   29  N1  UNL     1      27.737   0.759  52.620  1.00  0.00     0.083 N 
HETATM   30  C1  UNL     1      28.077   0.319  53.977  1.00  0.00     0.309 C 
HETATM   31  C2  UNL     1      27.498   2.180  52.697  1.00  0.00     0.309 C 
ENDBRANCH  28  29
ENDBRANCH  27  28
ENDBRANCH   1  26
TORSDOF 7
ENDMDL
MODEL 6
REMARK VINA RESULT:      -8.3      5.129      7.325
REMARK  7 active torsions:
REMARK  status: ('A' for Active; 'I' for Inactive)
REMARK    1  A    between atoms: N1_2  and  C3_4 
REMARK    2  A    between atoms: C3_4  and  C4_5 
REMARK    3  A    between atoms: C5_6  and  C6_7 
REMARK       I    between atoms: C6_7  and  N2_9 
REMARK    4  A    between atoms: N5_18  and  C13_19 
REMARK    5  A    between atoms: C13_19  and  O2_20 
REMARK    6  A    between atoms: C13_19  and  C14_21 
REMARK    7  A    between atoms: C14_21  and  C15_22 
ROOT
HETATM    1  C6  UNL     1      28.733   6.668  48.448  1.00  0.00     0.243 C 
HETATM    2  O1  UNL     1      28.780   7.931  48.587  1.00  0.00    -0.268 OA
HETATM    3  N2  UNL     1      27.551   5.879  48.700  1.00  0.00    -0.347 N 
HETATM    4  C7  UNL     1      27.314   4.468  48.610  1.00  0.00     0.130 C 
HETATM    5  C8  UNL     1      26.561   3.903  49.827  1.00  0.00     0.058 C 
HETATM    6  C9  UNL     1      25.291   4.613  49.941  1.00  0.00    -0.031 A 
HETATM    7  C10 UNL     1      24.286   4.364  50.748  1.00  0.00     0.095 A 
HETATM    8  C11 UNL     1      23.167   5.290  50.598  1.00  0.00     0.124 A 
HETATM    9  N3  UNL     1      22.053   5.324  51.234  1.00  0.00    -0.231 NA
HETATM   10  C12 UNL     1      21.875   4.321  52.226  1.00  0.00     0.256 A 
HETATM   11  N4  UNL     1      22.786   3.480  52.426  1.00  0.00    -0.163 NA
HETATM   12  N5  UNL     1      24.015   3.397  51.763  1.00  0.00    -0.236 N 
HETATM   13  S1  UNL     1      23.627   6.461  49.333  1.00  0.00    -0.097 SA
HETATM   14  C21 UNL     1      25.223   5.721  48.965  1.00  0.00     0.103 A 
HETATM   15  C22 UNL     1      26.392   6.651  49.111  1.00  0.00     0.146 C 
ENDROOT
BRANCH  12  16
HETATM   16  C13 UNL     1      24.865   2.339  52.083  1.00  0.00     0.247 C 
BRANCH  16  17
HETATM   17  O2  UNL     1      24.641   1.051  51.820  1.00  0.00    -0.375 OA
HETATM   18  H17 UNL     1      24.990   0.512  52.545  1.00  0.00     0.212 HD
ENDBRANCH  16  17
BRANCH  16  19
HETATM   19  C14 UNL     1      25.238   2.459  53.575  1.00  0.00     0.094 C 
BRANCH  19  20
HETATM   20  C15 UNL     1      26.558   1.793  53.816  1.00  0.00    -0.054 A 
HETATM   21  C16 UNL     1      26.568   0.642  54.614  1.00  0.00     0.007 A 
HETATM   22  C17 UNL     1      27.788   0.036  54.831  1.00  0.00     0.001 A 
HETATM   23  C18 UNL     1      28.978   0.494  54.314  1.00  0.00     0.000 A 
HETATM   24  C19 UNL     1      28.897   1.616  53.546  1.00  0.00     0.001 A 
HETATM   25  C20 UNL     1      27.733   2.312  53.258  1.00  0.00     0.007 A 
ENDBRANCH  19  20
ENDBRANCH  16  19
ENDBRANCH  12  16
BRANCH   1  26
HETATM   26  C5  UNL     1      29.949   6.025  48.014  1.00  0.00     0.072 C 
HETATM   27  C4  UNL     1      31.142   6.273  48.520  1.00  0.00     0.008 C 
BRANCH  27  28
HETATM   28  C3  UNL     1      31.775   7.120  49.552  1.00  0.00     0.299 C 
BRANCH  28  29
HETATM   29  N1  UNL     1      32.875   7.891  48.990  1.00  0.00     0.083 N 
HETATM   30  C1  UNL     1      32.278   8.872  48.077  1.00  0.00     0.309 C 
HETATM   31  C2  UNL     1      33.711   7.035  48.183  1.00  0.00     0.309 C 
ENDBRANCH  28  29
ENDBRANCH  27  28
ENDBRANCH   1  26
TORSDOF 7
ENDMDL
MODEL 7
REMARK VINA RESULT:      -8.2      2.495      7.043
REMARK  7 active torsions:
REMARK  status: ('A' for Active; 'I' for Inactive)
REMARK    1  A    between atoms: N1_2  and  C3_4 
REMARK    2  A    between atoms: C3_4  and  C4_5 
REMARK    3  A    between atoms: C5_6  and  C6_7 
REMARK       I    between atoms: C6_7  and  N2_9 
REMARK    4  A    between atoms: N5_18  and  C13_19 
REMARK    5  A    between atoms: C13_19  and  O2_20 
REMARK    6  A    between atoms: C13_19  and  C14_21 
REMARK    7  A    between atoms: C14_21  and  C15_22 
ROOT
HETATM    1  C6  UNL     1      25.746   0.599  52.231  1.00  0.00     0.243 C 
HETATM    2  O1  UNL     1      26.333  -0.526  52.147  1.00  0.00    -0.268 OA
HETATM    3  N2  UNL     1      24.384   0.760  52.679  1.00  0.00    -0.347 N 
HETATM    4  C7  UNL     1      23.564   1.926  52.826  1.00  0.00     0.130 C 
HETATM    5  C8  UNL     1      22.147   1.745  52.252  1.00  0.00     0.058 C 
HETATM    6  C9  UNL     1      21.526   0.613  52.931  1.00  0.00    -0.031 A 
HETATM    7  C10 UNL     1      20.286   0.194  52.851  1.00  0.00     0.095 A 
HETATM    8  C11 UNL     1      20.008  -0.985  53.667  1.00  0.00     0.124 A 
HETATM    9  N3  UNL     1      18.911  -1.637  53.802  1.00  0.00    -0.231 NA
HETATM   10  C12 UNL     1      17.804  -1.149  53.055  1.00  0.00     0.256 A 
HETATM   11  N4  UNL     1      17.949  -0.139  52.324  1.00  0.00    -0.163 NA
HETATM   12  N5  UNL     1      19.117   0.609  52.142  1.00  0.00    -0.236 N 
HETATM   13  S1  UNL     1      21.535  -1.426  54.479  1.00  0.00    -0.097 SA
HETATM   14  C21 UNL     1      22.500  -0.064  53.813  1.00  0.00     0.103 A 
HETATM   15  C22 UNL     1      23.727  -0.479  53.056  1.00  0.00     0.146 C 
ENDROOT
BRANCH  12  16
HETATM   16  C13 UNL     1      19.053   1.746  51.338  1.00  0.00     0.247 C 
BRANCH  16  17
HETATM   17  O2  UNL     1      18.279   2.810  51.553  1.00  0.00    -0.375 OA
HETATM   18  H17 UNL     1      18.280   3.372  50.764  1.00  0.00     0.212 HD
ENDBRANCH  16  17
BRANCH  16  19
HETATM   19  C14 UNL     1      18.836   1.292  49.880  1.00  0.00     0.094 C 
BRANCH  19  20
HETATM   20  C15 UNL     1      19.929   1.843  49.017  1.00  0.00    -0.054 A 
HETATM   21  C16 UNL     1      21.136   1.136  48.967  1.00  0.00     0.007 A 
HETATM   22  C17 UNL     1      22.137   1.652  48.169  1.00  0.00     0.001 A 
HETATM   23  C18 UNL     1      22.014   2.807  47.431  1.00  0.00     0.000 A 
HETATM   24  C19 UNL     1      20.814   3.445  47.524  1.00  0.00     0.001 A 
HETATM   25  C20 UNL     1      19.737   3.025  48.290  1.00  0.00     0.007 A 
ENDBRANCH  19  20
ENDBRANCH  16  19
ENDBRANCH  12  16
BRANCH   1  26
HETATM   26  C5  UNL     1      26.518   1.754  51.845  1.00  0.00     0.072 C 
HETATM   27  C4  UNL     1      27.577   2.192  52.498  1.00  0.00     0.008 C 
BRANCH  27  28
HETATM   28  C3  UNL     1      28.388   1.856  53.687  1.00  0.00     0.299 C 
BRANCH  28  29
HETATM   29  N1  UNL     1      28.699   0.433  53.719  1.00  0.00     0.083 N 
HETATM   30  C1  UNL     1      28.346  -0.044  55.061  1.00  0.00     0.309 C 
HETATM   31  C2  UNL     1      30.122   0.241  53.577  1.00  0.00     0.309 C 
ENDBRANCH  28  29
ENDBRANCH  27  28
ENDBRANCH   1  26
TORSDOF 7
ENDMDL
MODEL 8
REMARK VINA RESULT:      -8.2      1.930      3.214
REMARK  7 active torsions:
REMARK  status: ('A' for Active; 'I' for Inactive)
REMARK    1  A    between atoms: N1_2  and  C3_4 
REMARK    2  A    between atoms: C3_4  and  C4_5 
REMARK    3  A    between atoms: C5_6  and  C6_7 
REMARK       I    between atoms: C6_7  and  N2_9 
REMARK    4  A    between atoms: N5_18  and  C13_19 
REMARK    5  A    between atoms: C13_19  and  O2_20 
REMARK    6  A    between atoms: C13_19  and  C14_21 
REMARK    7  A    between atoms: C14_21  and  C15_22 
ROOT
HETATM    1  C6  UNL     1      19.351   2.560  50.752  1.00  0.00     0.243 C 
HETATM    2  O1  UNL     1      18.497   3.106  51.520  1.00  0.00    -0.268 OA
HETATM    3  N2  UNL     1      20.268   1.530  51.179  1.00  0.00    -0.347 N 
HETATM    4  C7  UNL     1      21.291   0.817  50.473  1.00  0.00     0.130 C 
HETATM    5  C8  UNL     1      22.613   0.722  51.255  1.00  0.00     0.058 C 
HETATM    6  C9  UNL     1      22.338   0.064  52.528  1.00  0.00    -0.031 A 
HETATM    7  C10 UNL     1      23.190  -0.340  53.440  1.00  0.00     0.095 A 
HETATM    8  C11 UNL     1      22.560  -0.956  54.604  1.00  0.00     0.124 A 
HETATM    9  N3  UNL     1      23.107  -1.440  55.659  1.00  0.00    -0.231 NA
HETATM   10  C12 UNL     1      24.527  -1.372  55.709  1.00  0.00     0.256 A 
HETATM   11  N4  UNL     1      25.155  -0.857  54.752  1.00  0.00    -0.163 NA
HETATM   12  N5  UNL     1      24.611  -0.317  53.581  1.00  0.00    -0.236 N 
HETATM   13  S1  UNL     1      20.798  -0.903  54.330  1.00  0.00    -0.097 SA
HETATM   14  C21 UNL     1      20.885  -0.147  52.703  1.00  0.00     0.103 A 
HETATM   15  C22 UNL     1      20.125   1.140  52.571  1.00  0.00     0.146 C 
ENDROOT
BRANCH  12  16
HETATM   16  C13 UNL     1      25.488   0.144  52.600  1.00  0.00     0.247 C 
BRANCH  16  17
HETATM   17  O2  UNL     1      26.544  -0.517  52.125  1.00  0.00    -0.375 OA
HETATM   18  H17 UNL     1      27.355  -0.114  52.469  1.00  0.00     0.212 HD
ENDBRANCH  16  17
BRANCH  16  19
HETATM   19  C14 UNL     1      25.957   1.557  53.001  1.00  0.00     0.094 C 
BRANCH  19  20
HETATM   20  C15 UNL     1      25.732   2.502  51.860  1.00  0.00    -0.054 A 
HETATM   21  C16 UNL     1      24.627   3.358  51.935  1.00  0.00     0.007 A 
HETATM   22  C17 UNL     1      24.428   4.223  50.878  1.00  0.00     0.001 A 
HETATM   23  C18 UNL     1      25.245   4.290  49.773  1.00  0.00     0.000 A 
HETATM   24  C19 UNL     1      26.302   3.431  49.765  1.00  0.00     0.001 A 
HETATM   25  C20 UNL     1      26.605   2.517  50.765  1.00  0.00     0.007 A 
ENDBRANCH  19  20
ENDBRANCH  16  19
ENDBRANCH  12  16
BRANCH   1  26
HETATM   26  C5  UNL     1      19.375   3.024  49.387  1.00  0.00     0.072 C 
HETATM   27  C4  UNL     1      20.150   3.996  48.946  1.00  0.00     0.008 C 
BRANCH  27  28
HETATM   28  C3  UNL     1      21.179   4.933  49.445  1.00  0.00     0.299 C 
BRANCH  28  29
HETATM   29  N1  UNL     1      20.581   5.966  50.280  1.00  0.00     0.083 N 
HETATM   30  C1  UNL     1      19.815   6.839  49.384  1.00  0.00     0.309 C 
HETATM   31  C2  UNL     1      21.617   6.783  50.864  1.00  0.00     0.309 C 
ENDBRANCH  28  29
ENDBRANCH  27  28
ENDBRANCH   1  26
TORSDOF 7
ENDMDL
MODEL 9
REMARK VINA RESULT:      -8.0      3.534      6.619
REMARK  7 active torsions:
REMARK  status: ('A' for Active; 'I' for Inactive)
REMARK    1  A    between atoms: N1_2  and  C3_4 
REMARK    2  A    between atoms: C3_4  and  C4_5 
REMARK    3  A    between atoms: C5_6  and  C6_7 
REMARK       I    between atoms: C6_7  and  N2_9 
REMARK    4  A    between atoms: N5_18  and  C13_19 
REMARK    5  A    between atoms: C13_19  and  O2_20 
REMARK    6  A    between atoms: C13_19  and  C14_21 
REMARK    7  A    between atoms: C14_21  and  C15_22 
ROOT
HETATM    1  C6  UNL     1      26.531   4.604  49.343  1.00  0.00     0.243 C 
HETATM    2  O1  UNL     1      27.544   3.990  48.880  1.00  0.00    -0.268 OA
HETATM    3  N2  UNL     1      25.661   4.061  50.358  1.00  0.00    -0.347 N 
HETATM    4  C7  UNL     1      24.486   4.591  50.985  1.00  0.00     0.130 C 
HETATM    5  C8  UNL     1      23.335   3.573  51.072  1.00  0.00     0.058 C 
HETATM    6  C9  UNL     1      23.815   2.413  51.818  1.00  0.00    -0.031 A 
HETATM    7  C10 UNL     1      23.133   1.376  52.241  1.00  0.00     0.095 A 
HETATM    8  C11 UNL     1      23.941   0.389  52.952  1.00  0.00     0.124 A 
HETATM    9  N3  UNL     1      23.582  -0.726  53.476  1.00  0.00    -0.231 NA
HETATM   10  C12 UNL     1      22.203  -1.054  53.352  1.00  0.00     0.256 A 
HETATM   11  N4  UNL     1      21.431  -0.265  52.755  1.00  0.00    -0.163 NA
HETATM   12  N5  UNL     1      21.768   0.960  52.168  1.00  0.00    -0.236 N 
HETATM   13  S1  UNL     1      25.618   0.997  52.955  1.00  0.00    -0.097 SA
HETATM   14  C21 UNL     1      25.261   2.535  52.098  1.00  0.00     0.103 A 
HETATM   15  C22 UNL     1      26.047   2.746  50.837  1.00  0.00     0.146 C 
ENDROOT
BRANCH  12  16
HETATM   16  C13 UNL     1      20.744   1.727  51.613  1.00  0.00     0.247 C 
BRANCH  16  17
HETATM   17  O2  UNL     1      19.649   2.144  52.249  1.00  0.00    -0.375 OA
HETATM   18  H17 UNL     1      18.904   1.573  52.010  1.00  0.00     0.212 HD
ENDBRANCH  16  17
BRANCH  16  19
HETATM   19  C14 UNL     1      20.300   1.054  50.298  1.00  0.00     0.094 C 
BRANCH  19  20
HETATM   20  C15 UNL     1      20.850   1.819  49.133  1.00  0.00    -0.054 A 
HETATM   21  C16 UNL     1      20.189   2.996  48.760  1.00  0.00     0.007 A 
HETATM   22  C17 UNL     1      20.702   3.693  47.686  1.00  0.00     0.001 A 
HETATM   23  C18 UNL     1      21.812   3.301  46.972  1.00  0.00     0.000 A 
HETATM   24  C19 UNL     1      22.407   2.149  47.389  1.00  0.00     0.001 A 
HETATM   25  C20 UNL     1      21.985   1.363  48.451  1.00  0.00     0.007 A 
ENDBRANCH  19  20
ENDBRANCH  16  19
ENDBRANCH  12  16
BRANCH   1  26
HETATM   26  C5  UNL     1      26.270   5.913  48.796  1.00  0.00     0.072 C 
HETATM   27  C4  UNL     1      27.196   6.703  48.287  1.00  0.00     0.008 C 
BRANCH  27  28
HETATM   28  C3  UNL     1      28.652   6.719  48.036  1.00  0.00     0.299 C 
BRANCH  28  29
HETATM   29  N1  UNL     1      29.195   8.060  48.202  1.00  0.00     0.083 N 
HETATM   30  C1  UNL     1      30.486   7.909  48.882  1.00  0.00     0.309 C 
HETATM   31  C2  UNL     1      28.351   8.823  49.089  1.00  0.00     0.309 C 
ENDBRANCH  28  29
ENDBRANCH  27  28
ENDBRANCH   1  26
TORSDOF 7
ENDMDL
