MODEL 1
REMARK VINA RESULT:      -8.2      0.000      0.000
REMARK  5 active torsions:
REMARK  status: ('A' for Active; 'I' for Inactive)
REMARK    1  A    between atoms: C9_9  and  N1_10 
REMARK    2  A    between atoms: C18_22  and  O3_23 
REMARK    3  A    between atoms: O3_23  and  C19_24 
REMARK    4  A    between atoms: C19_24  and  C20_25 
REMARK    5  A    between atoms: C20_25  and  O4_26 
ROOT
HETATM    1  C1  UNL     1      27.571   0.302  54.921  1.00  0.00     0.018 C 
HETATM    2  C2  UNL     1      26.415  -0.021  54.809  1.00  0.00    -0.077 C 
HETATM    3  C3  UNL     1      25.038  -0.401  54.677  1.00  0.00     0.031 A 
HETATM    4  C4  UNL     1      24.373  -1.229  55.547  1.00  0.00     0.022 A 
HETATM    5  C5  UNL     1      23.074  -1.629  55.482  1.00  0.00     0.003 A 
HETATM    6  C6  UNL     1      22.374  -1.107  54.384  1.00  0.00     0.025 A 
HETATM    7  C7  UNL     1      23.011  -0.269  53.488  1.00  0.00     0.028 A 
HETATM    8  C8  UNL     1      24.356   0.105  53.610  1.00  0.00     0.030 A 
HETATM    9  C9  UNL     1      24.878   0.998  52.585  1.00  0.00     0.037 C 
HETATM   10  C10 UNL     1      24.548   2.300  52.555  1.00  0.00     0.029 C 
HETATM   11  C11 UNL     1      25.066   3.264  51.497  1.00  0.00     0.197 C 
HETATM   12  O1  UNL     1      23.940   3.749  50.825  1.00  0.00    -0.385 OA
HETATM   13  C12 UNL     1      23.100   4.506  51.619  1.00  0.00     0.194 C 
HETATM   14  C13 UNL     1      21.732   4.446  50.794  1.00  0.00     0.195 C 
HETATM   15  O2  UNL     1      21.446   3.126  50.749  1.00  0.00    -0.376 OA
HETATM   16  C14 UNL     1      20.361   2.645  50.163  1.00  0.00     0.195 C 
HETATM   17  C15 UNL     1      20.662   1.349  49.387  1.00  0.00     0.012 C 
HETATM   18  C16 UNL     1      21.587   0.812  50.209  1.00  0.00     0.043 C 
HETATM   19  C17 UNL     1      21.150   0.609  51.615  1.00  0.00     0.104 C 
HETATM   20  N2  UNL     1      19.927   0.979  51.840  1.00  0.00    -0.243 NA
HETATM   21  C18 UNL     1      19.340   2.137  51.208  1.00  0.00     0.278 C 
HETATM   22  N3  UNL     1      22.062   0.081  52.514  1.00  0.00    -0.243 NA
HETATM   23  H25 UNL     1      22.164   1.099  52.818  1.00  0.00     0.135 HD
ENDROOT
BRANCH   9  24
HETATM   24  N1  UNL     1      25.765   0.476  51.583  1.00  0.00    -0.399 N 
HETATM   25  H5  UNL     1      26.328   1.307  51.275  1.00  0.00     0.156 HD
HETATM   26  H6  UNL     1      26.178  -0.285  50.972  1.00  0.00     0.156 HD
ENDBRANCH   9  24
BRANCH  21  27
HETATM   27  O3  UNL     1      18.963   3.125  52.081  1.00  0.00    -0.360 OA
BRANCH  27  28
HETATM   28  C19 UNL     1      18.063   3.964  51.357  1.00  0.00     0.197 C 
BRANCH  28  29
HETATM   29  C20 UNL     1      16.653   3.689  51.737  1.00  0.00     0.193 C 
BRANCH  29  30
HETATM   30  O4  UNL     1      16.243   4.433  52.816  1.00  0.00    -0.394 OA
HETATM   31  C21 UNL     1      14.971   4.061  53.207  1.00  0.00     0.201 C 
ENDBRANCH  29  30
ENDBRANCH  28  29
ENDBRANCH  27  28
ENDBRANCH  21  27
TORSDOF 5
ENDMDL
MODEL 2
REMARK VINA RESULT:      -7.5      4.543      8.583
REMARK  5 active torsions:
REMARK  status: ('A' for Active; 'I' for Inactive)
REMARK    1  A    between atoms: C9_9  and  N1_10 
REMARK    2  A    between atoms: C18_22  and  O3_23 
REMARK    3  A    between atoms: O3_23  and  C19_24 
REMARK    4  A    between atoms: C19_24  and  C20_25 
REMARK    5  A    between atoms: C20_25  and  O4_26 
ROOT
HETATM    1  C1  UNL     1      27.450  10.209  47.363  1.00  0.00     0.018 C 
HETATM    2  C2  UNL     1      27.759   9.065  47.580  1.00  0.00    -0.077 C 
HETATM    3  C3  UNL     1      28.126   7.703  47.845  1.00  0.00     0.031 A 
HETATM    4  C4  UNL     1      29.390   7.194  47.681  1.00  0.00     0.022 A 
HETATM    5  C5  UNL     1      29.807   5.919  47.912  1.00  0.00     0.003 A 
HETATM    6  C6  UNL     1      28.793   5.065  48.370  1.00  0.00     0.025 A 
HETATM    7  C7  UNL     1      27.508   5.543  48.548  1.00  0.00     0.028 A 
HETATM    8  C8  UNL     1      27.142   6.872  48.291  1.00  0.00     0.030 A 
HETATM    9  C9  UNL     1      25.748   7.220  48.531  1.00  0.00     0.037 C 
HETATM   10  C10 UNL     1      25.265   7.358  49.777  1.00  0.00     0.029 C 
HETATM   11  C11 UNL     1      23.815   7.713  50.071  1.00  0.00     0.197 C 
HETATM   12  O1  UNL     1      23.292   6.646  50.808  1.00  0.00    -0.385 OA
HETATM   13  C12 UNL     1      23.880   6.484  52.048  1.00  0.00     0.194 C 
HETATM   14  C13 UNL     1      23.504   4.969  52.389  1.00  0.00     0.195 C 
HETATM   15  O2  UNL     1      24.075   4.266  51.387  1.00  0.00    -0.376 OA
HETATM   16  C14 UNL     1      24.015   2.946  51.308  1.00  0.00     0.195 C 
HETATM   17  C15 UNL     1      23.793   2.472  49.860  1.00  0.00     0.012 C 
HETATM   18  C16 UNL     1      24.517   3.408  49.211  1.00  0.00     0.043 C 
HETATM   19  C17 UNL     1      25.942   3.510  49.621  1.00  0.00     0.104 C 
HETATM   20  N2  UNL     1      26.279   2.669  50.551  1.00  0.00    -0.243 NA
HETATM   21  C18 UNL     1      25.387   2.305  51.625  1.00  0.00     0.278 C 
HETATM   22  N3  UNL     1      26.733   4.467  49.007  1.00  0.00    -0.243 NA
HETATM   23  H25 UNL     1      26.558   5.012  49.908  1.00  0.00     0.135 HD
ENDROOT
BRANCH   9  24
HETATM   24  N1  UNL     1      24.871   7.420  47.413  1.00  0.00    -0.399 N 
HETATM   25  H5  UNL     1      25.069   6.608  46.777  1.00  0.00     0.156 HD
HETATM   26  H6  UNL     1      24.125   7.931  46.859  1.00  0.00     0.156 HD
ENDBRANCH   9  24
BRANCH  21  27
HETATM   27  O3  UNL     1      25.839   2.648  52.874  1.00  0.00    -0.360 OA
BRANCH  27  28
HETATM   28  C19 UNL     1      26.833   1.681  53.210  1.00  0.00     0.197 C 
BRANCH  28  29
HETATM   29  C20 UNL     1      28.112   2.336  53.585  1.00  0.00     0.193 C 
BRANCH  29  30
HETATM   30  O4  UNL     1      28.799   1.640  54.549  1.00  0.00    -0.394 OA
HETATM   31  C21 UNL     1      28.410   0.315  54.561  1.00  0.00     0.201 C 
ENDBRANCH  29  30
ENDBRANCH  28  29
ENDBRANCH  27  28
ENDBRANCH  21  27
TORSDOF 5
ENDMDL
MODEL 3
REMARK VINA RESULT:      -7.4      2.505      4.281
REMARK  5 active torsions:
REMARK  status: ('A' for Active; 'I' for Inactive)
REMARK    1  A    between atoms: C9_9  and  N1_10 
REMARK    2  A    between atoms: C18_22  and  O3_23 
REMARK    3  A    between atoms: O3_23  and  C19_24 
REMARK    4  A    between atoms: C19_24  and  C20_25 
REMARK    5  A    between atoms: C20_25  and  O4_26 
ROOT
HETATM    1  C1  UNL     1      24.282   2.426  52.722  1.00  0.00     0.018 C 
HETATM    2  C2  UNL     1      23.431   1.620  53.001  1.00  0.00    -0.077 C 
HETATM    3  C3  UNL     1      22.414   0.665  53.336  1.00  0.00     0.031 A 
HETATM    4  C4  UNL     1      22.533  -0.283  54.321  1.00  0.00     0.022 A 
HETATM    5  C5  UNL     1      21.614  -1.216  54.690  1.00  0.00     0.003 A 
HETATM    6  C6  UNL     1      20.424  -1.162  53.950  1.00  0.00     0.025 A 
HETATM    7  C7  UNL     1      20.267  -0.220  52.951  1.00  0.00     0.028 A 
HETATM    8  C8  UNL     1      21.257   0.716  52.618  1.00  0.00     0.030 A 
HETATM    9  C9  UNL     1      20.937   1.645  51.542  1.00  0.00     0.037 C 
HETATM   10  C10 UNL     1      20.077   2.660  51.725  1.00  0.00     0.029 C 
HETATM   11  C11 UNL     1      19.712   3.647  50.626  1.00  0.00     0.197 C 
HETATM   12  O1  UNL     1      18.332   3.523  50.432  1.00  0.00    -0.385 OA
HETATM   13  C12 UNL     1      17.578   3.908  51.524  1.00  0.00     0.194 C 
HETATM   14  C13 UNL     1      16.188   3.176  51.232  1.00  0.00     0.195 C 
HETATM   15  O2  UNL     1      16.520   1.866  51.195  1.00  0.00    -0.376 OA
HETATM   16  C14 UNL     1      15.633   0.905  50.996  1.00  0.00     0.195 C 
HETATM   17  C15 UNL     1      16.186  -0.196  50.071  1.00  0.00     0.012 C 
HETATM   18  C16 UNL     1      17.474  -0.192  50.473  1.00  0.00     0.043 C 
HETATM   19  C17 UNL     1      17.690  -0.430  51.924  1.00  0.00     0.104 C 
HETATM   20  N2  UNL     1      16.593  -0.614  52.592  1.00  0.00    -0.243 NA
HETATM   21  C18 UNL     1      15.377   0.103  52.294  1.00  0.00     0.278 C 
HETATM   22  N3  UNL     1      18.990  -0.416  52.402  1.00  0.00    -0.243 NA
HETATM   23  H25 UNL     1      18.730   0.568  52.725  1.00  0.00     0.135 HD
ENDROOT
BRANCH   9  24
HETATM   24  N1  UNL     1      21.553   1.470  50.257  1.00  0.00    -0.399 N 
HETATM   25  H5  UNL     1      22.049   0.548  50.328  1.00  0.00     0.156 HD
HETATM   26  H6  UNL     1      21.794   1.752  49.263  1.00  0.00     0.156 HD
ENDBRANCH   9  24
BRANCH  21  27
HETATM   27  O3  UNL     1      14.930   0.905  53.314  1.00  0.00    -0.360 OA
BRANCH  27  28
HETATM   28  C19 UNL     1      13.533   1.088  53.085  1.00  0.00     0.197 C 
BRANCH  28  29
HETATM   29  C20 UNL     1      13.140   2.506  53.284  1.00  0.00     0.193 C 
BRANCH  29  30
HETATM   30  O4  UNL     1      12.206   2.660  54.279  1.00  0.00    -0.394 OA
HETATM   31  C21 UNL     1      12.038   3.996  54.585  1.00  0.00     0.201 C 
ENDBRANCH  29  30
ENDBRANCH  28  29
ENDBRANCH  27  28
ENDBRANCH  21  27
TORSDOF 5
ENDMDL
MODEL 4
REMARK VINA RESULT:      -7.4      2.855      6.439
REMARK  5 active torsions:
REMARK  status: ('A' for Active; 'I' for Inactive)
REMARK    1  A    between atoms: C9_9  and  N1_10 
REMARK    2  A    between atoms: C18_22  and  O3_23 
REMARK    3  A    between atoms: O3_23  and  C19_24 
REMARK    4  A    between atoms: C19_24  and  C20_25 
REMARK    5  A    between atoms: C20_25  and  O4_26 
ROOT
HETATM    1  C1  UNL     1      22.170  -1.706  53.260  1.00  0.00     0.018 C 
HETATM    2  C2  UNL     1      22.923  -0.766  53.279  1.00  0.00    -0.077 C 
HETATM    3  C3  UNL     1      23.823   0.352  53.295  1.00  0.00     0.031 A 
HETATM    4  C4  UNL     1      25.055   0.349  53.898  1.00  0.00     0.022 A 
HETATM    5  C5  UNL     1      25.955   1.369  53.953  1.00  0.00     0.003 A 
HETATM    6  C6  UNL     1      25.528   2.536  53.302  1.00  0.00     0.025 A 
HETATM    7  C7  UNL     1      24.293   2.576  52.683  1.00  0.00     0.028 A 
HETATM    8  C8  UNL     1      23.410   1.487  52.663  1.00  0.00     0.030 A 
HETATM    9  C9  UNL     1      22.147   1.688  51.965  1.00  0.00     0.037 C 
HETATM   10  C10 UNL     1      22.085   1.725  50.624  1.00  0.00     0.029 C 
HETATM   11  C11 UNL     1      20.788   1.940  49.858  1.00  0.00     0.197 C 
HETATM   12  O1  UNL     1      20.959   3.115  49.120  1.00  0.00    -0.385 OA
HETATM   13  C12 UNL     1      21.938   3.026  48.149  1.00  0.00     0.194 C 
HETATM   14  C13 UNL     1      22.269   4.566  47.880  1.00  0.00     0.195 C 
HETATM   15  O2  UNL     1      22.691   5.015  49.083  1.00  0.00    -0.376 OA
HETATM   16  C14 UNL     1      23.089   6.261  49.286  1.00  0.00     0.195 C 
HETATM   17  C15 UNL     1      22.589   6.804  50.638  1.00  0.00     0.012 C 
HETATM   18  C16 UNL     1      22.671   5.673  51.370  1.00  0.00     0.043 C 
HETATM   19  C17 UNL     1      24.012   5.036  51.412  1.00  0.00     0.104 C 
HETATM   20  N2  UNL     1      24.915   5.674  50.733  1.00  0.00    -0.243 NA
HETATM   21  C18 UNL     1      24.622   6.333  49.484  1.00  0.00     0.278 C 
HETATM   22  N3  UNL     1      24.156   3.859  52.130  1.00  0.00    -0.243 NA
HETATM   23  H25 UNL     1      24.103   3.408  51.164  1.00  0.00     0.135 HD
ENDROOT
BRANCH   9  24
HETATM   24  N1  UNL     1      20.941   1.850  52.728  1.00  0.00    -0.399 N 
HETATM   25  H5  UNL     1      20.552   0.878  52.811  1.00  0.00     0.156 HD
HETATM   26  H6  UNL     1      20.211   2.404  53.262  1.00  0.00     0.156 HD
ENDBRANCH   9  24
BRANCH  21  27
HETATM   27  O3  UNL     1      25.303   5.827  48.406  1.00  0.00    -0.360 OA
BRANCH  27  28
HETATM   28  C19 UNL     1      26.455   5.176  48.941  1.00  0.00     0.197 C 
BRANCH  28  29
HETATM   29  C20 UNL     1      27.701   5.876  48.538  1.00  0.00     0.193 C 
BRANCH  29  30
HETATM   30  O4  UNL     1      28.803   5.057  48.577  1.00  0.00    -0.394 OA
HETATM   31  C21 UNL     1      29.869   5.646  47.926  1.00  0.00     0.201 C 
ENDBRANCH  29  30
ENDBRANCH  28  29
ENDBRANCH  27  28
ENDBRANCH  21  27
TORSDOF 5
ENDMDL
MODEL 5
REMARK VINA RESULT:      -7.2      7.885     11.873
REMARK  5 active torsions:
REMARK  status: ('A' for Active; 'I' for Inactive)
REMARK    1  A    between atoms: C9_9  and  N1_10 
REMARK    2  A    between atoms: C18_22  and  O3_23 
REMARK    3  A    between atoms: O3_23  and  C19_24 
REMARK    4  A    between atoms: C19_24  and  C20_25 
REMARK    5  A    between atoms: C20_25  and  O4_26 
ROOT
HETATM    1  C1  UNL     1      23.129   7.713  47.840  1.00  0.00     0.018 C 
HETATM    2  C2  UNL     1      24.013   6.962  48.165  1.00  0.00    -0.077 C 
HETATM    3  C3  UNL     1      25.067   6.067  48.547  1.00  0.00     0.031 A 
HETATM    4  C4  UNL     1      24.873   4.784  48.996  1.00  0.00     0.022 A 
HETATM    5  C5  UNL     1      25.822   3.885  49.373  1.00  0.00     0.003 A 
HETATM    6  C6  UNL     1      27.134   4.370  49.275  1.00  0.00     0.025 A 
HETATM    7  C7  UNL     1      27.368   5.657  48.826  1.00  0.00     0.028 A 
HETATM    8  C8  UNL     1      26.343   6.537  48.452  1.00  0.00     0.030 A 
HETATM    9  C9  UNL     1      26.755   7.858  47.997  1.00  0.00     0.037 C 
HETATM   10  C10 UNL     1      27.314   8.041  46.790  1.00  0.00     0.029 C 
HETATM   11  C11 UNL     1      27.764   9.403  46.281  1.00  0.00     0.197 C 
HETATM   12  O1  UNL     1      29.140   9.301  46.056  1.00  0.00    -0.385 OA
HETATM   13  C12 UNL     1      29.477   8.415  45.051  1.00  0.00     0.194 C 
HETATM   14  C13 UNL     1      31.010   8.112  45.386  1.00  0.00     0.195 C 
HETATM   15  O2  UNL     1      30.965   7.583  46.629  1.00  0.00    -0.376 OA
HETATM   16  C14 UNL     1      32.044   7.170  47.274  1.00  0.00     0.195 C 
HETATM   17  C15 UNL     1      31.993   7.545  48.767  1.00  0.00     0.012 C 
HETATM   18  C16 UNL     1      30.669   7.396  48.983  1.00  0.00     0.043 C 
HETATM   19  C17 UNL     1      30.117   6.055  48.659  1.00  0.00     0.104 C 
HETATM   20  N2  UNL     1      31.004   5.218  48.215  1.00  0.00    -0.243 NA
HETATM   21  C18 UNL     1      32.089   5.625  47.356  1.00  0.00     0.278 C 
HETATM   22  N3  UNL     1      28.759   5.846  48.838  1.00  0.00    -0.243 NA
HETATM   23  H25 UNL     1      28.723   5.985  47.781  1.00  0.00     0.135 HD
ENDROOT
BRANCH   9  24
HETATM   24  N1  UNL     1      26.558   8.990  48.859  1.00  0.00    -0.399 N 
HETATM   25  H5  UNL     1      26.684   8.606  49.827  1.00  0.00     0.156 HD
HETATM   26  H6  UNL     1      26.356  10.009  49.071  1.00  0.00     0.156 HD
ENDBRANCH   9  24
BRANCH  21  27
HETATM   27  O3  UNL     1      32.075   5.044  46.114  1.00  0.00    -0.360 OA
BRANCH  27  28
HETATM   28  C19 UNL     1      33.229   4.207  46.059  1.00  0.00     0.197 C 
BRANCH  28  29
HETATM   29  C20 UNL     1      32.926   2.845  46.571  1.00  0.00     0.193 C 
BRANCH  29  30
HETATM   30  O4  UNL     1      33.624   2.545  47.715  1.00  0.00    -0.394 OA
HETATM   31  C21 UNL     1      34.784   3.292  47.787  1.00  0.00     0.201 C 
ENDBRANCH  29  30
ENDBRANCH  28  29
ENDBRANCH  27  28
ENDBRANCH  21  27
TORSDOF 5
ENDMDL
MODEL 6
REMARK VINA RESULT:      -6.7      3.509      6.097
REMARK  5 active torsions:
REMARK  status: ('A' for Active; 'I' for Inactive)
REMARK    1  A    between atoms: C9_9  and  N1_10 
REMARK    2  A    between atoms: C18_22  and  O3_23 
REMARK    3  A    between atoms: O3_23  and  C19_24 
REMARK    4  A    between atoms: C19_24  and  C20_25 
REMARK    5  A    between atoms: C20_25  and  O4_26 
ROOT
HETATM    1  C1  UNL     1      25.951   1.160  52.468  1.00  0.00     0.018 C 
HETATM    2  C2  UNL     1      25.924   2.081  51.693  1.00  0.00    -0.077 C 
HETATM    3  C3  UNL     1      25.887   3.176  50.766  1.00  0.00     0.031 A 
HETATM    4  C4  UNL     1      26.870   3.450  49.848  1.00  0.00     0.022 A 
HETATM    5  C5  UNL     1      26.900   4.467  48.943  1.00  0.00     0.003 A 
HETATM    6  C6  UNL     1      25.775   5.303  48.992  1.00  0.00     0.025 A 
HETATM    7  C7  UNL     1      24.764   5.057  49.903  1.00  0.00     0.028 A 
HETATM    8  C8  UNL     1      24.794   3.989  50.812  1.00  0.00     0.030 A 
HETATM    9  C9  UNL     1      23.650   3.864  51.704  1.00  0.00     0.037 C 
HETATM   10  C10 UNL     1      22.462   3.419  51.263  1.00  0.00     0.029 C 
HETATM   11  C11 UNL     1      21.241   3.280  52.161  1.00  0.00     0.197 C 
HETATM   12  O1  UNL     1      20.263   4.123  51.624  1.00  0.00    -0.385 OA
HETATM   13  C12 UNL     1      19.829   3.744  50.368  1.00  0.00     0.194 C 
HETATM   14  C13 UNL     1      19.187   5.102  49.824  1.00  0.00     0.195 C 
HETATM   15  O2  UNL     1      20.222   5.970  49.836  1.00  0.00    -0.376 OA
HETATM   16  C14 UNL     1      20.113   7.225  49.430  1.00  0.00     0.195 C 
HETATM   17  C15 UNL     1      20.897   8.188  50.342  1.00  0.00     0.012 C 
HETATM   18  C16 UNL     1      21.950   7.397  50.639  1.00  0.00     0.043 C 
HETATM   19  C17 UNL     1      22.712   6.885  49.471  1.00  0.00     0.104 C 
HETATM   20  N2  UNL     1      22.247   7.285  48.327  1.00  0.00    -0.243 NA
HETATM   21  C18 UNL     1      20.834   7.440  48.078  1.00  0.00     0.278 C 
HETATM   22  N3  UNL     1      23.792   6.050  49.710  1.00  0.00    -0.243 NA
HETATM   23  H25 UNL     1      23.099   5.283  49.443  1.00  0.00     0.135 HD
ENDROOT
BRANCH   9  24
HETATM   24  N1  UNL     1      23.794   4.226  53.086  1.00  0.00    -0.399 N 
HETATM   25  H5  UNL     1      22.921   4.765  53.308  1.00  0.00     0.156 HD
HETATM   26  H6  UNL     1      24.291   4.255  54.022  1.00  0.00     0.156 HD
ENDBRANCH   9  24
BRANCH  21  27
HETATM   27  O3  UNL     1      20.341   6.619  47.096  1.00  0.00    -0.360 OA
BRANCH  27  28
HETATM   28  C19 UNL     1      21.472   6.196  46.335  1.00  0.00     0.197 C 
BRANCH  28  29
HETATM   29  C20 UNL     1      21.280   4.819  45.812  1.00  0.00     0.193 C 
BRANCH  29  30
HETATM   30  O4  UNL     1      21.011   3.910  46.805  1.00  0.00    -0.394 OA
HETATM   31  C21 UNL     1      22.157   3.618  47.519  1.00  0.00     0.201 C 
ENDBRANCH  29  30
ENDBRANCH  28  29
ENDBRANCH  27  28
ENDBRANCH  21  27
TORSDOF 5
ENDMDL
MODEL 7
REMARK VINA RESULT:      -6.7      3.336      5.759
REMARK  5 active torsions:
REMARK  status: ('A' for Active; 'I' for Inactive)
REMARK    1  A    between atoms: C9_9  and  N1_10 
REMARK    2  A    between atoms: C18_22  and  O3_23 
REMARK    3  A    between atoms: O3_23  and  C19_24 
REMARK    4  A    between atoms: C19_24  and  C20_25 
REMARK    5  A    between atoms: C20_25  and  O4_26 
ROOT
HETATM    1  C1  UNL     1      27.265   1.307  52.450  1.00  0.00     0.018 C 
HETATM    2  C2  UNL     1      26.797   2.111  51.684  1.00  0.00    -0.077 C 
HETATM    3  C3  UNL     1      26.237   3.065  50.770  1.00  0.00     0.031 A 
HETATM    4  C4  UNL     1      26.969   3.808  49.878  1.00  0.00     0.022 A 
HETATM    5  C5  UNL     1      26.506   4.726  48.986  1.00  0.00     0.003 A 
HETATM    6  C6  UNL     1      25.114   4.897  49.019  1.00  0.00     0.025 A 
HETATM    7  C7  UNL     1      24.344   4.164  49.903  1.00  0.00     0.028 A 
HETATM    8  C8  UNL     1      24.884   3.231  50.800  1.00  0.00     0.030 A 
HETATM    9  C9  UNL     1      23.939   2.538  51.664  1.00  0.00     0.037 C 
HETATM   10  C10 UNL     1      23.133   1.574  51.191  1.00  0.00     0.029 C 
HETATM   11  C11 UNL     1      22.127   0.832  52.059  1.00  0.00     0.197 C 
HETATM   12  O1  UNL     1      20.868   1.093  51.509  1.00  0.00    -0.385 OA
HETATM   13  C12 UNL     1      20.695   0.576  50.240  1.00  0.00     0.194 C 
HETATM   14  C13 UNL     1      19.474   1.451  49.696  1.00  0.00     0.195 C 
HETATM   15  O2  UNL     1      19.945   2.717  49.743  1.00  0.00    -0.376 OA
HETATM   16  C14 UNL     1      19.236   3.763  49.349  1.00  0.00     0.195 C 
HETATM   17  C15 UNL     1      19.429   4.967  50.290  1.00  0.00     0.012 C 
HETATM   18  C16 UNL     1      20.730   4.794  50.602  1.00  0.00     0.043 C 
HETATM   19  C17 UNL     1      21.663   4.750  49.446  1.00  0.00     0.104 C 
HETATM   20  N2  UNL     1      21.078   4.892  48.297  1.00  0.00    -0.243 NA
HETATM   21  C18 UNL     1      19.776   4.335  48.017  1.00  0.00     0.278 C 
HETATM   22  N3  UNL     1      23.011   4.551  49.700  1.00  0.00    -0.243 NA
HETATM   23  H25 UNL     1      22.791   3.549  49.408  1.00  0.00     0.135 HD
ENDROOT
BRANCH   9  24
HETATM   24  N1  UNL     1      23.866   2.894  53.054  1.00  0.00    -0.399 N 
HETATM   25  H5  UNL     1      22.848   2.805  53.293  1.00  0.00     0.156 HD
HETATM   26  H6  UNL     1      24.266   3.199  53.987  1.00  0.00     0.156 HD
ENDBRANCH   9  24
BRANCH  21  27
HETATM   27  O3  UNL     1      19.767   3.399  47.014  1.00  0.00    -0.360 OA
BRANCH  27  28
HETATM   28  C19 UNL     1      20.801   3.785  46.109  1.00  0.00     0.197 C 
BRANCH  28  29
HETATM   29  C20 UNL     1      20.240   4.166  44.788  1.00  0.00     0.193 C 
BRANCH  29  30
HETATM   30  O4  UNL     1      20.860   3.522  43.745  1.00  0.00    -0.394 OA
HETATM   31  C21 UNL     1      20.406   4.009  42.535  1.00  0.00     0.201 C 
ENDBRANCH  29  30
ENDBRANCH  28  29
ENDBRANCH  27  28
ENDBRANCH  21  27
TORSDOF 5
ENDMDL
MODEL 8
REMARK VINA RESULT:      -6.7      1.662      2.155
REMARK  5 active torsions:
REMARK  status: ('A' for Active; 'I' for Inactive)
REMARK    1  A    between atoms: C9_9  and  N1_10 
REMARK    2  A    between atoms: C18_22  and  O3_23 
REMARK    3  A    between atoms: O3_23  and  C19_24 
REMARK    4  A    between atoms: C19_24  and  C20_25 
REMARK    5  A    between atoms: C20_25  and  O4_26 
ROOT
HETATM    1  C1  UNL     1      26.721   1.633  53.824  1.00  0.00     0.018 C 
HETATM    2  C2  UNL     1      25.632   1.253  53.477  1.00  0.00    -0.077 C 
HETATM    3  C3  UNL     1      24.332   0.805  53.067  1.00  0.00     0.031 A 
HETATM    4  C4  UNL     1      23.688  -0.291  53.585  1.00  0.00     0.022 A 
HETATM    5  C5  UNL     1      22.461  -0.771  53.244  1.00  0.00     0.003 A 
HETATM    6  C6  UNL     1      21.819  -0.025  52.245  1.00  0.00     0.025 A 
HETATM    7  C7  UNL     1      22.435   1.086  51.700  1.00  0.00     0.028 A 
HETATM    8  C8  UNL     1      23.706   1.529  52.096  1.00  0.00     0.030 A 
HETATM    9  C9  UNL     1      24.216   2.718  51.428  1.00  0.00     0.037 C 
HETATM   10  C10 UNL     1      23.734   3.941  51.707  1.00  0.00     0.029 C 
HETATM   11  C11 UNL     1      24.235   5.206  51.027  1.00  0.00     0.197 C 
HETATM   12  O1  UNL     1      23.132   5.759  50.368  1.00  0.00    -0.385 OA
HETATM   13  C12 UNL     1      22.129   6.183  51.219  1.00  0.00     0.194 C 
HETATM   14  C13 UNL     1      20.871   6.237  50.236  1.00  0.00     0.195 C 
HETATM   15  O2  UNL     1      20.755   4.963  49.799  1.00  0.00    -0.376 OA
HETATM   16  C14 UNL     1      19.802   4.573  48.966  1.00  0.00     0.195 C 
HETATM   17  C15 UNL     1      20.337   3.581  47.916  1.00  0.00     0.012 C 
HETATM   18  C16 UNL     1      21.232   2.918  48.677  1.00  0.00     0.043 C 
HETATM   19  C17 UNL     1      20.682   2.288  49.905  1.00  0.00     0.104 C 
HETATM   20  N2  UNL     1      19.406   2.469  50.059  1.00  0.00    -0.243 NA
HETATM   21  C18 UNL     1      18.750   3.700  49.692  1.00  0.00     0.278 C 
HETATM   22  N3  UNL     1      21.556   1.611  50.741  1.00  0.00    -0.243 NA
HETATM   23  H25 UNL     1      21.501   2.506  51.320  1.00  0.00     0.135 HD
ENDROOT
BRANCH   9  24
HETATM   24  N1  UNL     1      25.258   2.582  50.449  1.00  0.00    -0.399 N 
HETATM   25  H5  UNL     1      26.106   2.992  50.911  1.00  0.00     0.156 HD
HETATM   26  H6  UNL     1      25.659   2.296  49.510  1.00  0.00     0.156 HD
ENDBRANCH   9  24
BRANCH  21  27
HETATM   27  O3  UNL     1      18.167   4.364  50.741  1.00  0.00    -0.360 OA
BRANCH  27  28
HETATM   28  C19 UNL     1      17.337   3.406  51.397  1.00  0.00     0.197 C 
BRANCH  28  29
HETATM   29  C20 UNL     1      16.082   4.032  51.886  1.00  0.00     0.193 C 
BRANCH  29  30
HETATM   30  O4  UNL     1      14.993   3.206  51.750  1.00  0.00    -0.394 OA
HETATM   31  C21 UNL     1      14.354   3.041  52.964  1.00  0.00     0.201 C 
ENDBRANCH  29  30
ENDBRANCH  28  29
ENDBRANCH  27  28
ENDBRANCH  21  27
TORSDOF 5
ENDMDL
MODEL 9
REMARK VINA RESULT:      -6.4      7.592     11.734
REMARK  5 active torsions:
REMARK  status: ('A' for Active; 'I' for Inactive)
REMARK    1  A    between atoms: C9_9  and  N1_10 
REMARK    2  A    between atoms: C18_22  and  O3_23 
REMARK    3  A    between atoms: O3_23  and  C19_24 
REMARK    4  A    between atoms: C19_24  and  C20_25 
REMARK    5  A    between atoms: C20_25  and  O4_26 
ROOT
HETATM    1  C1  UNL     1      22.130   6.430  47.828  1.00  0.00     0.018 C 
HETATM    2  C2  UNL     1      23.235   6.090  48.168  1.00  0.00    -0.077 C 
HETATM    3  C3  UNL     1      24.552   5.686  48.567  1.00  0.00     0.031 A 
HETATM    4  C4  UNL     1      24.891   4.414  48.954  1.00  0.00     0.022 A 
HETATM    5  C5  UNL     1      26.115   3.963  49.343  1.00  0.00     0.003 A 
HETATM    6  C6  UNL     1      27.112   4.948  49.329  1.00  0.00     0.025 A 
HETATM    7  C7  UNL     1      26.809   6.241  48.944  1.00  0.00     0.028 A 
HETATM    8  C8  UNL     1      25.523   6.643  48.554  1.00  0.00     0.030 A 
HETATM    9  C9  UNL     1      25.367   8.040  48.173  1.00  0.00     0.037 C 
HETATM   10  C10 UNL     1      25.837   8.504  47.003  1.00  0.00     0.029 C 
HETATM   11  C11 UNL     1      25.700   9.957  46.571  1.00  0.00     0.197 C 
HETATM   12  O1  UNL     1      27.002  10.442  46.412  1.00  0.00    -0.385 OA
HETATM   13  C12 UNL     1      27.704   9.829  45.391  1.00  0.00     0.194 C 
HETATM   14  C13 UNL     1      29.215  10.163  45.790  1.00  0.00     0.195 C 
HETATM   15  O2  UNL     1      29.355   9.593  47.007  1.00  0.00    -0.376 OA
HETATM   16  C14 UNL     1      30.489   9.624  47.689  1.00  0.00     0.195 C 
HETATM   17  C15 UNL     1      30.244   9.859  49.191  1.00  0.00     0.012 C 
HETATM   18  C16 UNL     1      29.093   9.169  49.334  1.00  0.00     0.043 C 
HETATM   19  C17 UNL     1      29.153   7.740  48.930  1.00  0.00     0.104 C 
HETATM   20  N2  UNL     1      30.318   7.367  48.498  1.00  0.00    -0.243 NA
HETATM   21  C18 UNL     1      31.165   8.231  47.712  1.00  0.00     0.278 C 
HETATM   22  N3  UNL     1      27.997   6.982  49.033  1.00  0.00    -0.243 NA
HETATM   23  H25 UNL     1      27.938   7.154  47.981  1.00  0.00     0.135 HD
ENDROOT
BRANCH   9  24
HETATM   24  N1  UNL     1      24.697   8.941  49.067  1.00  0.00    -0.399 N 
HETATM   25  H5  UNL     1      24.585   9.825  48.511  1.00  0.00     0.156 HD
HETATM   26  H6  UNL     1      24.245   9.222  49.984  1.00  0.00     0.156 HD
ENDBRANCH   9  24
BRANCH  21  27
HETATM   27  O3  UNL     1      31.427   7.766  46.448  1.00  0.00    -0.360 OA
BRANCH  27  28
HETATM   28  C19 UNL     1      31.883   6.424  46.612  1.00  0.00     0.197 C 
BRANCH  28  29
HETATM   29  C20 UNL     1      33.365   6.368  46.692  1.00  0.00     0.193 C 
BRANCH  29  30
HETATM   30  O4  UNL     1      33.808   5.681  47.795  1.00  0.00    -0.394 OA
HETATM   31  C21 UNL     1      34.614   6.486  48.577  1.00  0.00     0.201 C 
ENDBRANCH  29  30
ENDBRANCH  28  29
ENDBRANCH  27  28
ENDBRANCH  21  27
TORSDOF 5
ENDMDL
