MODEL 1
REMARK VINA RESULT:      -8.0      0.000      0.000
REMARK  3 active torsions:
REMARK  status: ('A' for Active; 'I' for Inactive)
REMARK    1  A    between atoms: C10_11  and  C11_12 
REMARK    2  A    between atoms: C16_21  and  C17_22 
REMARK    3  A    between atoms: C17_22  and  O1_23 
ROOT
HETATM    1  C1  UNL     1      21.308   4.896  49.892  1.00  0.00     0.048 C 
HETATM    2  C2  UNL     1      22.238   4.350  50.918  1.00  0.00    -0.057 C 
HETATM    3  C3  UNL     1      21.970   3.085  51.206  1.00  0.00    -0.012 C 
HETATM    4  C4  UNL     1      22.796   2.369  52.198  1.00  0.00     0.038 C 
HETATM    5  C5  UNL     1      21.975   1.421  52.996  1.00  0.00     0.123 C 
HETATM    6  N1  UNL     1      22.780   0.324  53.543  1.00  0.00    -0.420 N 
HETATM    7  C6  UNL     1      23.495  -0.828  53.129  1.00  0.00     0.061 C 
HETATM    8  C7  UNL     1      24.852  -0.678  53.192  1.00  0.00     0.069 A 
HETATM    9  C8  UNL     1      26.107  -1.424  52.926  1.00  0.00     0.002 A 
HETATM   10  C9  UNL     1      26.392  -0.169  53.354  1.00  0.00     0.012 A 
HETATM   11  C10 UNL     1      27.767   0.543  53.591  1.00  0.00     0.076 C 
HETATM   12  C12 UNL     1      27.038   1.701  53.958  1.00  0.00     0.193 C 
HETATM   13  N2  UNL     1      25.752   2.329  54.151  1.00  0.00    -0.296 NA
HETATM   14  C13 UNL     1      25.082   2.563  53.012  1.00  0.00     0.093 C 
HETATM   15  C14 UNL     1      23.728   3.211  53.004  1.00  0.00     0.058 C 
HETATM   16  C15 UNL     1      23.908   4.594  52.533  1.00  0.00    -0.006 C 
HETATM   17  C16 UNL     1      23.232   5.198  51.554  1.00  0.00    -0.032 C 
HETATM   18  H8  UNL     1      22.914   0.385  54.604  1.00  0.00     0.153 HD
ENDROOT
BRANCH  11  19
HETATM   19  C11 UNL     1      29.110   1.239  53.822  1.00  0.00     0.394 C 
HETATM   20  F1  UNL     1      29.362   1.384  55.155  1.00  0.00    -0.171 F 
HETATM   21  F2  UNL     1      29.032   2.521  53.294  1.00  0.00    -0.171 F 
HETATM   22  F3  UNL     1      30.114   0.519  53.235  1.00  0.00    -0.171 F 
ENDBRANCH  11  19
BRANCH  17  23
HETATM   23  C17 UNL     1      23.429   6.576  51.076  1.00  0.00     0.203 C 
BRANCH  23  24
HETATM   24  O1  UNL     1      24.481   7.149  51.837  1.00  0.00    -0.396 OA
HETATM   25  H19 UNL     1      25.033   6.450  52.275  1.00  0.00     0.209 HD
ENDBRANCH  23  24
ENDBRANCH  17  23
TORSDOF 3
ENDMDL
MODEL 2
REMARK VINA RESULT:      -7.9      3.939      6.407
REMARK  3 active torsions:
REMARK  status: ('A' for Active; 'I' for Inactive)
REMARK    1  A    between atoms: C10_11  and  C11_12 
REMARK    2  A    between atoms: C16_21  and  C17_22 
REMARK    3  A    between atoms: C17_22  and  O1_23 
ROOT
HETATM    1  C1  UNL     1      26.101   0.132  55.126  1.00  0.00     0.048 C 
HETATM    2  C2  UNL     1      26.109   0.803  53.798  1.00  0.00    -0.057 C 
HETATM    3  C3  UNL     1      25.091   1.640  53.659  1.00  0.00    -0.012 C 
HETATM    4  C4  UNL     1      24.939   2.406  52.407  1.00  0.00     0.038 C 
HETATM    5  C5  UNL     1      23.505   2.574  52.053  1.00  0.00     0.123 C 
HETATM    6  N1  UNL     1      23.283   3.754  51.210  1.00  0.00    -0.420 N 
HETATM    7  C6  UNL     1      23.313   5.170  51.271  1.00  0.00     0.061 C 
HETATM    8  C7  UNL     1      24.380   5.721  50.619  1.00  0.00     0.069 A 
HETATM    9  C8  UNL     1      24.985   7.040  50.308  1.00  0.00     0.002 A 
HETATM   10  C9  UNL     1      25.749   6.044  49.796  1.00  0.00     0.012 A 
HETATM   11  C10 UNL     1      27.084   6.096  48.977  1.00  0.00     0.076 C 
HETATM   12  C12 UNL     1      27.065   4.680  48.964  1.00  0.00     0.193 C 
HETATM   13  N2  UNL     1      26.396   3.461  49.354  1.00  0.00    -0.296 NA
HETATM   14  C13 UNL     1      26.446   3.207  50.671  1.00  0.00     0.093 C 
HETATM   15  C14 UNL     1      25.812   1.986  51.272  1.00  0.00     0.058 C 
HETATM   16  C15 UNL     1      26.897   1.052  51.612  1.00  0.00    -0.006 C 
HETATM   17  C16 UNL     1      27.093   0.451  52.787  1.00  0.00    -0.032 C 
HETATM   18  H8  UNL     1      23.031   3.511  50.198  1.00  0.00     0.153 HD
ENDROOT
BRANCH  11  19
HETATM   19  C11 UNL     1      28.389   6.148  48.179  1.00  0.00     0.394 C 
HETATM   20  F1  UNL     1      29.348   6.844  48.856  1.00  0.00    -0.171 F 
HETATM   21  F2  UNL     1      28.152   6.847  47.003  1.00  0.00    -0.171 F 
HETATM   22  F3  UNL     1      28.829   4.879  47.924  1.00  0.00    -0.171 F 
ENDBRANCH  11  19
BRANCH  17  23
HETATM   23  C17 UNL     1      28.191  -0.468  53.127  1.00  0.00     0.203 C 
BRANCH  23  24
HETATM   24  O1  UNL     1      29.322   0.319  53.470  1.00  0.00    -0.396 OA
HETATM   25  H19 UNL     1      30.147  -0.232  53.508  1.00  0.00     0.209 HD
ENDBRANCH  23  24
ENDBRANCH  17  23
TORSDOF 3
ENDMDL
MODEL 3
REMARK VINA RESULT:      -7.7      2.252      3.167
REMARK  3 active torsions:
REMARK  status: ('A' for Active; 'I' for Inactive)
REMARK    1  A    between atoms: C10_11  and  C11_12 
REMARK    2  A    between atoms: C16_21  and  C17_22 
REMARK    3  A    between atoms: C17_22  and  O1_23 
ROOT
HETATM    1  C1  UNL     1      23.136   6.169  47.527  1.00  0.00     0.048 C 
HETATM    2  C2  UNL     1      23.448   5.476  48.807  1.00  0.00    -0.057 C 
HETATM    3  C3  UNL     1      22.376   4.903  49.334  1.00  0.00    -0.012 C 
HETATM    4  C4  UNL     1      22.493   4.158  50.602  1.00  0.00     0.038 C 
HETATM    5  C5  UNL     1      21.275   4.326  51.438  1.00  0.00     0.123 C 
HETATM    6  N1  UNL     1      21.091   3.208  52.369  1.00  0.00    -0.420 N 
HETATM    7  C6  UNL     1      20.766   1.828  52.381  1.00  0.00     0.061 C 
HETATM    8  C7  UNL     1      21.834   1.020  52.656  1.00  0.00     0.069 A 
HETATM    9  C8  UNL     1      22.183  -0.414  52.813  1.00  0.00     0.002 A 
HETATM   10  C9  UNL     1      23.288   0.356  52.974  1.00  0.00     0.012 A 
HETATM   11  C10 UNL     1      24.772  -0.037  53.285  1.00  0.00     0.076 C 
HETATM   12  C12 UNL     1      25.090   1.342  53.224  1.00  0.00     0.193 C 
HETATM   13  N2  UNL     1      24.632   2.696  53.021  1.00  0.00    -0.296 NA
HETATM   14  C13 UNL     1      24.278   2.970  51.755  1.00  0.00     0.093 C 
HETATM   15  C14 UNL     1      23.779   4.323  51.343  1.00  0.00     0.058 C 
HETATM   16  C15 UNL     1      24.864   4.982  50.598  1.00  0.00    -0.006 C 
HETATM   17  C16 UNL     1      24.774   5.553  49.395  1.00  0.00    -0.032 C 
HETATM   18  H8  UNL     1      21.271   3.474  53.391  1.00  0.00     0.153 HD
ENDROOT
BRANCH  11  19
HETATM   19  C11 UNL     1      26.222  -0.422  53.587  1.00  0.00     0.394 C 
HETATM   20  F1  UNL     1      27.091   0.332  52.852  1.00  0.00    -0.171 F 
HETATM   21  F2  UNL     1      26.414  -1.739  53.192  1.00  0.00    -0.171 F 
HETATM   22  F3  UNL     1      26.479  -0.258  54.920  1.00  0.00    -0.171 F 
ENDBRANCH  11  19
BRANCH  17  23
HETATM   23  C17 UNL     1      25.868   6.194  48.647  1.00  0.00     0.203 C 
BRANCH  23  24
HETATM   24  O1  UNL     1      26.873   6.557  49.581  1.00  0.00    -0.396 OA
HETATM   25  H19 UNL     1      26.619   6.300  50.505  1.00  0.00     0.209 HD
ENDBRANCH  23  24
ENDBRANCH  17  23
TORSDOF 3
ENDMDL
MODEL 4
REMARK VINA RESULT:      -7.5      6.990      8.889
REMARK  3 active torsions:
REMARK  status: ('A' for Active; 'I' for Inactive)
REMARK    1  A    between atoms: C10_11  and  C11_12 
REMARK    2  A    between atoms: C16_21  and  C17_22 
REMARK    3  A    between atoms: C17_22  and  O1_23 
ROOT
HETATM    1  C1  UNL     1      24.549   5.388  50.464  1.00  0.00     0.048 C 
HETATM    2  C2  UNL     1      25.796   5.615  49.685  1.00  0.00    -0.057 C 
HETATM    3  C3  UNL     1      25.887   6.863  49.248  1.00  0.00    -0.012 C 
HETATM    4  C4  UNL     1      27.065   7.279  48.462  1.00  0.00     0.038 C 
HETATM    5  C5  UNL     1      26.689   8.261  47.412  1.00  0.00     0.123 C 
HETATM    6  N1  UNL     1      27.822   9.107  47.021  1.00  0.00    -0.420 N 
HETATM    7  C6  UNL     1      28.647  10.143  47.528  1.00  0.00     0.061 C 
HETATM    8  C7  UNL     1      29.912   9.729  47.836  1.00  0.00     0.069 A 
HETATM    9  C8  UNL     1      31.196  10.247  48.370  1.00  0.00     0.002 A 
HETATM   10  C9  UNL     1      31.297   8.917  48.121  1.00  0.00     0.012 A 
HETATM   11  C10 UNL     1      32.500   7.931  48.306  1.00  0.00     0.076 C 
HETATM   12  C12 UNL     1      31.649   6.898  47.841  1.00  0.00     0.193 C 
HETATM   13  N2  UNL     1      30.344   6.510  47.360  1.00  0.00    -0.296 NA
HETATM   14  C13 UNL     1      29.382   6.551  48.295  1.00  0.00     0.093 C 
HETATM   15  C14 UNL     1      27.960   6.181  47.991  1.00  0.00     0.058 C 
HETATM   16  C15 UNL     1      27.715   4.858  48.588  1.00  0.00    -0.006 C 
HETATM   17  C16 UNL     1      26.706   4.521  49.394  1.00  0.00    -0.032 C 
HETATM   18  H8  UNL     1      28.194   8.892  46.040  1.00  0.00     0.153 HD
ENDROOT
BRANCH  11  19
HETATM   19  C11 UNL     1      33.675   6.967  48.487  1.00  0.00     0.394 C 
HETATM   20  F1  UNL     1      34.774   7.621  48.964  1.00  0.00    -0.171 F 
HETATM   21  F2  UNL     1      34.024   6.468  47.239  1.00  0.00    -0.171 F 
HETATM   22  F3  UNL     1      33.324   5.962  49.345  1.00  0.00    -0.171 F 
ENDBRANCH  11  19
BRANCH  17  23
HETATM   23  C17 UNL     1      26.477   3.200  50.002  1.00  0.00     0.203 C 
BRANCH  23  24
HETATM   24  O1  UNL     1      27.229   3.143  51.205  1.00  0.00    -0.396 OA
HETATM   25  H19 UNL     1      27.725   3.988  51.361  1.00  0.00     0.209 HD
ENDBRANCH  23  24
ENDBRANCH  17  23
TORSDOF 3
ENDMDL
MODEL 5
REMARK VINA RESULT:      -7.5      4.867      7.194
REMARK  3 active torsions:
REMARK  status: ('A' for Active; 'I' for Inactive)
REMARK    1  A    between atoms: C10_11  and  C11_12 
REMARK    2  A    between atoms: C16_21  and  C17_22 
REMARK    3  A    between atoms: C17_22  and  O1_23 
ROOT
HETATM    1  C1  UNL     1      28.295   0.292  53.027  1.00  0.00     0.048 C 
HETATM    2  C2  UNL     1      26.893   0.773  52.900  1.00  0.00    -0.057 C 
HETATM    3  C3  UNL     1      26.681   1.380  51.741  1.00  0.00    -0.012 C 
HETATM    4  C4  UNL     1      25.342   1.917  51.431  1.00  0.00     0.038 C 
HETATM    5  C5  UNL     1      25.437   3.178  50.649  1.00  0.00     0.123 C 
HETATM    6  N1  UNL     1      24.232   3.420  49.850  1.00  0.00    -0.420 N 
HETATM    7  C6  UNL     1      23.540   2.912  48.722  1.00  0.00     0.061 C 
HETATM    8  C7  UNL     1      22.393   2.242  49.043  1.00  0.00     0.069 A 
HETATM    9  C8  UNL     1      21.270   1.509  48.407  1.00  0.00     0.002 A 
HETATM   10  C9  UNL     1      21.130   1.498  49.757  1.00  0.00     0.012 A 
HETATM   11  C10 UNL     1      20.022   0.864  50.665  1.00  0.00     0.076 C 
HETATM   12  C12 UNL     1      20.750   1.339  51.784  1.00  0.00     0.193 C 
HETATM   13  N2  UNL     1      21.904   2.048  52.283  1.00  0.00    -0.296 NA
HETATM   14  C13 UNL     1      23.064   1.394  52.112  1.00  0.00     0.093 C 
HETATM   15  C14 UNL     1      24.375   1.965  52.567  1.00  0.00     0.058 C 
HETATM   16  C15 UNL     1      24.776   1.230  53.777  1.00  0.00    -0.006 C 
HETATM   17  C16 UNL     1      25.955   0.646  54.003  1.00  0.00    -0.032 C 
HETATM   18  H8  UNL     1      23.636   4.232  50.216  1.00  0.00     0.153 HD
ENDROOT
BRANCH  11  19
HETATM   19  C11 UNL     1      18.941   0.244  51.552  1.00  0.00     0.394 C 
HETATM   20  F1  UNL     1      18.113  -0.561  50.823  1.00  0.00    -0.171 F 
HETATM   21  F2  UNL     1      18.150   1.268  52.055  1.00  0.00    -0.171 F 
HETATM   22  F3  UNL     1      19.521  -0.478  52.559  1.00  0.00    -0.171 F 
ENDBRANCH  11  19
BRANCH  17  23
HETATM   23  C17 UNL     1      26.344  -0.103  55.208  1.00  0.00     0.203 C 
BRANCH  23  24
HETATM   24  O1  UNL     1      25.302  -1.021  55.500  1.00  0.00    -0.396 OA
HETATM   25  H19 UNL     1      25.411  -1.417  56.404  1.00  0.00     0.209 HD
ENDBRANCH  23  24
ENDBRANCH  17  23
TORSDOF 3
ENDMDL
MODEL 6
REMARK VINA RESULT:      -7.4      4.541      7.308
REMARK  3 active torsions:
REMARK  status: ('A' for Active; 'I' for Inactive)
REMARK    1  A    between atoms: C10_11  and  C11_12 
REMARK    2  A    between atoms: C16_21  and  C17_22 
REMARK    3  A    between atoms: C17_22  and  O1_23 
ROOT
HETATM    1  C1  UNL     1      27.143  -1.570  52.840  1.00  0.00     0.048 C 
HETATM    2  C2  UNL     1      26.262  -0.371  52.778  1.00  0.00    -0.057 C 
HETATM    3  C3  UNL     1      26.656   0.486  51.847  1.00  0.00    -0.012 C 
HETATM    4  C4  UNL     1      25.896   1.732  51.631  1.00  0.00     0.038 C 
HETATM    5  C5  UNL     1      26.801   2.857  51.277  1.00  0.00     0.123 C 
HETATM    6  N1  UNL     1      26.105   3.900  50.515  1.00  0.00    -0.420 N 
HETATM    7  C6  UNL     1      25.517   4.128  49.246  1.00  0.00     0.061 C 
HETATM    8  C7  UNL     1      24.152   4.165  49.278  1.00  0.00     0.069 A 
HETATM    9  C8  UNL     1      22.983   4.346  48.381  1.00  0.00     0.002 A 
HETATM   10  C9  UNL     1      22.566   4.120  49.652  1.00  0.00     0.012 A 
HETATM   11  C10 UNL     1      21.122   4.036  50.255  1.00  0.00     0.076 C 
HETATM   12  C12 UNL     1      21.724   3.764  51.508  1.00  0.00     0.193 C 
HETATM   13  N2  UNL     1      22.937   3.575  52.269  1.00  0.00    -0.296 NA
HETATM   14  C13 UNL     1      23.593   2.440  51.980  1.00  0.00     0.093 C 
HETATM   15  C14 UNL     1      24.873   2.063  52.667  1.00  0.00     0.058 C 
HETATM   16  C15 UNL     1      24.558   0.987  53.620  1.00  0.00    -0.006 C 
HETATM   17  C16 UNL     1      25.180  -0.188  53.730  1.00  0.00    -0.032 C 
HETATM   18  H8  UNL     1      25.954   4.802  51.073  1.00  0.00     0.153 HD
ENDROOT
BRANCH  11  19
HETATM   19  C11 UNL     1      19.713   3.952  50.844  1.00  0.00     0.394 C 
HETATM   20  F1  UNL     1      19.011   5.096  50.595  1.00  0.00    -0.171 F 
HETATM   21  F2  UNL     1      19.822   3.850  52.224  1.00  0.00    -0.171 F 
HETATM   22  F3  UNL     1      19.050   2.878  50.316  1.00  0.00    -0.171 F 
ENDBRANCH  11  19
BRANCH  17  23
HETATM   23  C17 UNL     1      24.848  -1.268  54.674  1.00  0.00     0.203 C 
BRANCH  23  24
HETATM   24  O1  UNL     1      25.462  -0.959  55.916  1.00  0.00    -0.396 OA
HETATM   25  H19 UNL     1      26.326  -1.436  56.021  1.00  0.00     0.209 HD
ENDBRANCH  23  24
ENDBRANCH  17  23
TORSDOF 3
ENDMDL
MODEL 7
REMARK VINA RESULT:      -7.3      2.644      3.563
REMARK  3 active torsions:
REMARK  status: ('A' for Active; 'I' for Inactive)
REMARK    1  A    between atoms: C10_11  and  C11_12 
REMARK    2  A    between atoms: C16_21  and  C17_22 
REMARK    3  A    between atoms: C17_22  and  O1_23 
ROOT
HETATM    1  C1  UNL     1      19.389   2.860  47.594  1.00  0.00     0.048 C 
HETATM    2  C2  UNL     1      20.419   2.713  48.659  1.00  0.00    -0.057 C 
HETATM    3  C3  UNL     1      19.890   2.315  49.808  1.00  0.00    -0.012 C 
HETATM    4  C4  UNL     1      20.762   2.105  50.980  1.00  0.00     0.038 C 
HETATM    5  C5  UNL     1      20.074   2.500  52.237  1.00  0.00     0.123 C 
HETATM    6  N1  UNL     1      20.622   1.801  53.405  1.00  0.00    -0.420 N 
HETATM    7  C6  UNL     1      20.683   0.508  53.983  1.00  0.00     0.061 C 
HETATM    8  C7  UNL     1      21.915  -0.076  53.881  1.00  0.00     0.069 A 
HETATM    9  C8  UNL     1      22.631  -1.325  54.239  1.00  0.00     0.002 A 
HETATM   10  C9  UNL     1      23.461  -0.487  53.569  1.00  0.00     0.012 A 
HETATM   11  C10 UNL     1      24.964  -0.650  53.158  1.00  0.00     0.076 C 
HETATM   12  C12 UNL     1      24.873   0.624  52.545  1.00  0.00     0.193 C 
HETATM   13  N2  UNL     1      24.062   1.776  52.228  1.00  0.00    -0.296 NA
HETATM   14  C13 UNL     1      23.105   1.538  51.318  1.00  0.00     0.093 C 
HETATM   15  C14 UNL     1      22.161   2.609  50.855  1.00  0.00     0.058 C 
HETATM   16  C15 UNL     1      22.578   3.005  49.501  1.00  0.00    -0.006 C 
HETATM   17  C16 UNL     1      21.803   3.081  48.417  1.00  0.00    -0.032 C 
HETATM   18  H8  UNL     1      21.187   2.438  54.054  1.00  0.00     0.153 HD
ENDROOT
BRANCH  11  19
HETATM   19  C11 UNL     1      26.431  -0.808  52.755  1.00  0.00     0.394 C 
HETATM   20  F1  UNL     1      26.732  -0.018  51.684  1.00  0.00    -0.171 F 
HETATM   21  F2  UNL     1      26.630  -2.120  52.344  1.00  0.00    -0.171 F 
HETATM   22  F3  UNL     1      27.241  -0.488  53.810  1.00  0.00    -0.171 F 
ENDBRANCH  11  19
BRANCH  17  23
HETATM   23  C17 UNL     1      22.231   3.460  47.061  1.00  0.00     0.203 C 
BRANCH  23  24
HETATM   24  O1  UNL     1      22.367   4.873  47.031  1.00  0.00    -0.396 OA
HETATM   25  H19 UNL     1      22.198   5.271  47.925  1.00  0.00     0.209 HD
ENDBRANCH  23  24
ENDBRANCH  17  23
TORSDOF 3
ENDMDL
MODEL 8
REMARK VINA RESULT:      -7.2      3.840      5.859
REMARK  3 active torsions:
REMARK  status: ('A' for Active; 'I' for Inactive)
REMARK    1  A    between atoms: C10_11  and  C11_12 
REMARK    2  A    between atoms: C16_21  and  C17_22 
REMARK    3  A    between atoms: C17_22  and  O1_23 
ROOT
HETATM    1  C1  UNL     1      27.200   9.100  47.043  1.00  0.00     0.048 C 
HETATM    2  C2  UNL     1      26.371   8.329  48.009  1.00  0.00    -0.057 C 
HETATM    3  C3  UNL     1      25.366   7.705  47.412  1.00  0.00    -0.012 C 
HETATM    4  C4  UNL     1      24.440   6.879  48.210  1.00  0.00     0.038 C 
HETATM    5  C5  UNL     1      23.051   6.973  47.687  1.00  0.00     0.123 C 
HETATM    6  N1  UNL     1      22.253   5.793  48.037  1.00  0.00    -0.420 N 
HETATM    7  C6  UNL     1      22.146   4.410  47.741  1.00  0.00     0.061 C 
HETATM    8  C7  UNL     1      22.578   3.602  48.754  1.00  0.00     0.069 A 
HETATM    9  C8  UNL     1      22.739   2.166  49.094  1.00  0.00     0.002 A 
HETATM   10  C9  UNL     1      23.186   2.940  50.114  1.00  0.00     0.012 A 
HETATM   11  C10 UNL     1      23.800   2.549  51.501  1.00  0.00     0.076 C 
HETATM   12  C12 UNL     1      23.943   3.934  51.764  1.00  0.00     0.193 C 
HETATM   13  N2  UNL     1      23.764   5.292  51.306  1.00  0.00    -0.296 NA
HETATM   14  C13 UNL     1      24.584   5.644  50.303  1.00  0.00     0.093 C 
HETATM   15  C14 UNL     1      24.553   7.014  49.693  1.00  0.00     0.058 C 
HETATM   16  C15 UNL     1      25.739   7.737  50.179  1.00  0.00    -0.006 C 
HETATM   17  C16 UNL     1      26.638   8.386  49.436  1.00  0.00    -0.032 C 
HETATM   18  H8  UNL     1      21.500   5.993  48.771  1.00  0.00     0.153 HD
ENDROOT
BRANCH  11  19
HETATM   19  C11 UNL     1      24.401   2.167  52.856  1.00  0.00     0.394 C 
HETATM   20  F1  UNL     1      25.595   1.525  52.697  1.00  0.00    -0.171 F 
HETATM   21  F2  UNL     1      23.547   1.262  53.471  1.00  0.00    -0.171 F 
HETATM   22  F3  UNL     1      24.575   3.287  53.621  1.00  0.00    -0.171 F 
ENDBRANCH  11  19
BRANCH  17  23
HETATM   23  C17 UNL     1      27.832   9.092  49.928  1.00  0.00     0.203 C 
BRANCH  23  24
HETATM   24  O1  UNL     1      27.512   9.653  51.191  1.00  0.00    -0.396 OA
HETATM   25  H19 UNL     1      26.586   9.423  51.465  1.00  0.00     0.209 HD
ENDBRANCH  23  24
ENDBRANCH  17  23
TORSDOF 3
ENDMDL
MODEL 9
REMARK VINA RESULT:      -7.2      3.649      4.842
REMARK  3 active torsions:
REMARK  status: ('A' for Active; 'I' for Inactive)
REMARK    1  A    between atoms: C10_11  and  C11_12 
REMARK    2  A    between atoms: C16_21  and  C17_22 
REMARK    3  A    between atoms: C17_22  and  O1_23 
ROOT
HETATM    1  C1  UNL     1      24.304   7.367  49.568  1.00  0.00     0.048 C 
HETATM    2  C2  UNL     1      24.055   5.924  49.835  1.00  0.00    -0.057 C 
HETATM    3  C3  UNL     1      25.160   5.291  50.203  1.00  0.00    -0.012 C 
HETATM    4  C4  UNL     1      25.107   3.851  50.521  1.00  0.00     0.038 C 
HETATM    5  C5  UNL     1      26.349   3.160  50.087  1.00  0.00     0.123 C 
HETATM    6  N1  UNL     1      26.594   1.937  50.859  1.00  0.00    -0.420 N 
HETATM    7  C6  UNL     1      26.955   1.514  52.163  1.00  0.00     0.061 C 
HETATM    8  C7  UNL     1      25.919   0.959  52.861  1.00  0.00     0.069 A 
HETATM    9  C8  UNL     1      25.613   0.354  54.181  1.00  0.00     0.002 A 
HETATM   10  C9  UNL     1      24.495   0.392  53.414  1.00  0.00     0.012 A 
HETATM   11  C10 UNL     1      23.033  -0.086  53.712  1.00  0.00     0.076 C 
HETATM   12  C12 UNL     1      22.678   0.383  52.424  1.00  0.00     0.193 C 
HETATM   13  N2  UNL     1      23.094   1.013  51.192  1.00  0.00    -0.296 NA
HETATM   14  C13 UNL     1      23.395   2.315  51.319  1.00  0.00     0.093 C 
HETATM   15  C14 UNL     1      23.844   3.145  50.152  1.00  0.00     0.058 C 
HETATM   16  C15 UNL     1      22.717   4.011  49.771  1.00  0.00    -0.006 C 
HETATM   17  C16 UNL     1      22.749   5.333  49.598  1.00  0.00    -0.032 C 
HETATM   18  H8  UNL     1      26.444   1.041  50.293  1.00  0.00     0.153 HD
ENDROOT
BRANCH  11  19
HETATM   19  C11 UNL     1      21.605  -0.552  54.004  1.00  0.00     0.394 C 
HETATM   20  F1  UNL     1      20.832  -0.491  52.881  1.00  0.00    -0.171 F 
HETATM   21  F2  UNL     1      21.039   0.326  54.919  1.00  0.00    -0.171 F 
HETATM   22  F3  UNL     1      21.622  -1.832  54.487  1.00  0.00    -0.171 F 
ENDBRANCH  11  19
BRANCH  17  23
HETATM   23  C17 UNL     1      21.614   6.196  49.234  1.00  0.00     0.203 C 
BRANCH  23  24
HETATM   24  O1  UNL     1      20.903   6.498  50.426  1.00  0.00    -0.396 OA
HETATM   25  H19 UNL     1      20.415   7.359  50.347  1.00  0.00     0.209 HD
ENDBRANCH  23  24
ENDBRANCH  17  23
TORSDOF 3
ENDMDL
