MODEL 1
REMARK VINA RESULT:      -7.8      0.000      0.000
REMARK  6 active torsions:
REMARK  status: ('A' for Active; 'I' for Inactive)
REMARK    1  A    between atoms: C1_2  and  C2_3 
REMARK       I    between atoms: C1_2  and  N1_12 
REMARK    2  A    between atoms: C3_4  and  C4_5 
REMARK    3  A    between atoms: C7_8  and  O2_9 
REMARK       I    between atoms: N1_12  and  C10_13 
REMARK       I    between atoms: C10_13  and  N2_15 
REMARK    4  A    between atoms: N2_15  and  C11_16 
REMARK    5  A    between atoms: C11_16  and  C12_17 
REMARK    6  A    between atoms: C12_17  and  C13_18 
ROOT
HETATM    1  O1  UNL     1      24.008   3.779  49.861  1.00  0.00    -0.268 OA
HETATM    2  C1  UNL     1      25.096   3.517  50.505  1.00  0.00     0.249 C 
HETATM    3  N1  UNL     1      26.297   4.392  50.286  1.00  0.00    -0.276 N 
HETATM    4  C10 UNL     1      25.954   5.416  49.320  1.00  0.00     0.323 C 
HETATM    5  O3  UNL     1      24.933   5.666  48.696  1.00  0.00    -0.247 OA
HETATM    6  N2  UNL     1      27.263   6.055  49.346  1.00  0.00    -0.342 N 
HETATM    7  H8  UNL     1      26.523   3.716  50.923  1.00  0.00     0.173 HD
HETATM    8  H9  UNL     1      28.133   5.795  49.917  1.00  0.00     0.164 HD
ENDROOT
BRANCH   2   9
HETATM    9  C2  UNL     1      24.663   2.340  51.273  1.00  0.00     0.075 C 
HETATM   10  C3  UNL     1      23.490   2.339  51.882  1.00  0.00     0.017 C 
BRANCH  10  11
HETATM   11  C4  UNL     1      22.883   1.289  52.682  1.00  0.00    -0.036 A 
HETATM   12  C5  UNL     1      21.526   1.323  53.003  1.00  0.00     0.014 A 
HETATM   13  C6  UNL     1      20.909   0.347  53.756  1.00  0.00     0.037 A 
HETATM   14  C7  UNL     1      21.651  -0.721  54.226  1.00  0.00     0.065 A 
HETATM   15  C8  UNL     1      22.982  -0.751  53.910  1.00  0.00     0.037 A 
HETATM   16  C9  UNL     1      23.605   0.219  53.159  1.00  0.00     0.014 A 
BRANCH  14  17
HETATM   17  O2  UNL     1      21.051  -1.724  54.992  1.00  0.00    -0.361 OA
HETATM   18  H5  UNL     1      20.074  -1.571  55.237  1.00  0.00     0.217 HD
ENDBRANCH  14  17
ENDBRANCH  10  11
ENDBRANCH   2   9
BRANCH   6  19
HETATM   19  C11 UNL     1      27.424   7.223  48.467  1.00  0.00     0.129 C 
BRANCH  19  20
HETATM   20  C12 UNL     1      28.498   6.927  47.485  1.00  0.00     0.058 C 
BRANCH  20  21
HETATM   21  C13 UNL     1      29.860   6.819  48.106  1.00  0.00    -0.057 A 
HETATM   22  C14 UNL     1      30.507   7.769  48.869  1.00  0.00     0.007 A 
HETATM   23  C15 UNL     1      31.764   7.510  49.375  1.00  0.00     0.001 A 
HETATM   24  C16 UNL     1      32.432   6.320  49.155  1.00  0.00     0.000 A 
HETATM   25  C17 UNL     1      31.791   5.358  48.389  1.00  0.00     0.001 A 
HETATM   26  C18 UNL     1      30.522   5.623  47.881  1.00  0.00     0.007 A 
ENDBRANCH  20  21
ENDBRANCH  19  20
ENDBRANCH   6  19
TORSDOF 6
ENDMDL
MODEL 2
REMARK VINA RESULT:      -7.7      2.830      9.158
REMARK  6 active torsions:
REMARK  status: ('A' for Active; 'I' for Inactive)
REMARK    1  A    between atoms: C1_2  and  C2_3 
REMARK       I    between atoms: C1_2  and  N1_12 
REMARK    2  A    between atoms: C3_4  and  C4_5 
REMARK    3  A    between atoms: C7_8  and  O2_9 
REMARK       I    between atoms: N1_12  and  C10_13 
REMARK       I    between atoms: C10_13  and  N2_15 
REMARK    4  A    between atoms: N2_15  and  C11_16 
REMARK    5  A    between atoms: C11_16  and  C12_17 
REMARK    6  A    between atoms: C12_17  and  C13_18 
ROOT
HETATM    1  O1  UNL     1      24.422   3.666  49.273  1.00  0.00    -0.268 OA
HETATM    2  C1  UNL     1      25.341   3.899  50.150  1.00  0.00     0.249 C 
HETATM    3  N1  UNL     1      25.383   3.062  51.396  1.00  0.00    -0.276 N 
HETATM    4  C10 UNL     1      24.297   2.105  51.348  1.00  0.00     0.323 C 
HETATM    5  O3  UNL     1      23.416   1.883  50.530  1.00  0.00    -0.247 OA
HETATM    6  N2  UNL     1      24.619   1.488  52.628  1.00  0.00    -0.342 N 
HETATM    7  H8  UNL     1      26.100   3.696  51.427  1.00  0.00     0.173 HD
HETATM    8  H9  UNL     1      25.411   1.721  53.313  1.00  0.00     0.164 HD
ENDROOT
BRANCH   2   9
HETATM    9  C2  UNL     1      26.045   5.011  49.493  1.00  0.00     0.075 C 
HETATM   10  C3  UNL     1      27.249   4.825  48.981  1.00  0.00     0.017 C 
BRANCH  10  11
HETATM   11  C4  UNL     1      28.104   5.782  48.299  1.00  0.00    -0.036 A 
HETATM   12  C5  UNL     1      29.466   5.537  48.129  1.00  0.00     0.014 A 
HETATM   13  C6  UNL     1      30.313   6.414  47.487  1.00  0.00     0.037 A 
HETATM   14  C7  UNL     1      29.809   7.599  46.982  1.00  0.00     0.065 A 
HETATM   15  C8  UNL     1      28.472   7.838  47.152  1.00  0.00     0.037 A 
HETATM   16  C9  UNL     1      27.621   6.967  47.791  1.00  0.00     0.014 A 
BRANCH  14  17
HETATM   17  O2  UNL     1      30.644   8.508  46.327  1.00  0.00    -0.361 OA
HETATM   18  H5  UNL     1      30.285   8.891  45.454  1.00  0.00     0.217 HD
ENDBRANCH  14  17
ENDBRANCH  10  11
ENDBRANCH   2   9
BRANCH   6  19
HETATM   19  C11 UNL     1      23.737   0.389  53.049  1.00  0.00     0.129 C 
BRANCH  19  20
HETATM   20  C12 UNL     1      24.417  -0.370  54.130  1.00  0.00     0.058 C 
BRANCH  20  21
HETATM   21  C13 UNL     1      25.900  -0.491  53.933  1.00  0.00    -0.057 A 
HETATM   22  C14 UNL     1      26.555  -1.192  52.943  1.00  0.00     0.007 A 
HETATM   23  C15 UNL     1      27.934  -1.199  52.897  1.00  0.00     0.001 A 
HETATM   24  C16 UNL     1      28.719  -0.523  53.812  1.00  0.00     0.000 A 
HETATM   25  C17 UNL     1      28.070   0.186  54.813  1.00  0.00     0.001 A 
HETATM   26  C18 UNL     1      26.679   0.190  54.855  1.00  0.00     0.007 A 
ENDBRANCH  20  21
ENDBRANCH  19  20
ENDBRANCH   6  19
TORSDOF 6
ENDMDL
MODEL 3
REMARK VINA RESULT:      -7.6      3.379      9.558
REMARK  6 active torsions:
REMARK  status: ('A' for Active; 'I' for Inactive)
REMARK    1  A    between atoms: C1_2  and  C2_3 
REMARK       I    between atoms: C1_2  and  N1_12 
REMARK    2  A    between atoms: C3_4  and  C4_5 
REMARK    3  A    between atoms: C7_8  and  O2_9 
REMARK       I    between atoms: N1_12  and  C10_13 
REMARK       I    between atoms: C10_13  and  N2_15 
REMARK    4  A    between atoms: N2_15  and  C11_16 
REMARK    5  A    between atoms: C11_16  and  C12_17 
REMARK    6  A    between atoms: C12_17  and  C13_18 
ROOT
HETATM    1  O1  UNL     1      27.526   3.956  48.940  1.00  0.00    -0.268 OA
HETATM    2  C1  UNL     1      26.730   4.872  49.380  1.00  0.00     0.249 C 
HETATM    3  N1  UNL     1      25.852   4.565  50.559  1.00  0.00    -0.276 N 
HETATM    4  C10 UNL     1      26.099   3.201  50.978  1.00  0.00     0.323 C 
HETATM    5  O3  UNL     1      26.841   2.321  50.562  1.00  0.00    -0.247 OA
HETATM    6  N2  UNL     1      25.147   3.234  52.080  1.00  0.00    -0.342 N 
HETATM    7  H8  UNL     1      25.689   5.466  50.282  1.00  0.00     0.173 HD
HETATM    8  H9  UNL     1      24.516   4.037  52.407  1.00  0.00     0.164 HD
ENDROOT
BRANCH   2   9
HETATM    9  C2  UNL     1      27.046   5.959  48.441  1.00  0.00     0.075 C 
HETATM   10  C3  UNL     1      28.302   6.208  48.113  1.00  0.00     0.017 C 
BRANCH  10  11
HETATM   11  C4  UNL     1      28.821   7.226  47.214  1.00  0.00    -0.036 A 
HETATM   12  C5  UNL     1      27.966   8.125  46.576  1.00  0.00     0.014 A 
HETATM   13  C6  UNL     1      28.414   9.106  45.719  1.00  0.00     0.037 A 
HETATM   14  C7  UNL     1      29.769   9.221  45.465  1.00  0.00     0.065 A 
HETATM   15  C8  UNL     1      30.605   8.337  46.091  1.00  0.00     0.037 A 
HETATM   16  C9  UNL     1      30.165   7.355  46.948  1.00  0.00     0.014 A 
BRANCH  14  17
HETATM   17  O2  UNL     1      30.251  10.207  44.600  1.00  0.00    -0.361 OA
HETATM   18  H5  UNL     1      31.030   9.932  44.003  1.00  0.00     0.217 HD
ENDBRANCH  14  17
ENDBRANCH  10  11
ENDBRANCH   2   9
BRANCH   6  19
HETATM   19  C11 UNL     1      25.027   1.993  52.861  1.00  0.00     0.129 C 
BRANCH  19  20
HETATM   20  C12 UNL     1      26.097   1.982  53.891  1.00  0.00     0.058 C 
BRANCH  20  21
HETATM   21  C13 UNL     1      27.080   0.862  53.718  1.00  0.00    -0.057 A 
HETATM   22  C14 UNL     1      28.387   0.824  54.157  1.00  0.00     0.007 A 
HETATM   23  C15 UNL     1      29.163  -0.292  53.921  1.00  0.00     0.001 A 
HETATM   24  C16 UNL     1      28.693  -1.406  53.250  1.00  0.00     0.000 A 
HETATM   25  C17 UNL     1      27.380  -1.378  52.805  1.00  0.00     0.001 A 
HETATM   26  C18 UNL     1      26.600  -0.251  53.046  1.00  0.00     0.007 A 
ENDBRANCH  20  21
ENDBRANCH  19  20
ENDBRANCH   6  19
TORSDOF 6
ENDMDL
MODEL 4
REMARK VINA RESULT:      -7.6      1.092      1.744
REMARK  6 active torsions:
REMARK  status: ('A' for Active; 'I' for Inactive)
REMARK    1  A    between atoms: C1_2  and  C2_3 
REMARK       I    between atoms: C1_2  and  N1_12 
REMARK    2  A    between atoms: C3_4  and  C4_5 
REMARK    3  A    between atoms: C7_8  and  O2_9 
REMARK       I    between atoms: N1_12  and  C10_13 
REMARK       I    between atoms: C10_13  and  N2_15 
REMARK    4  A    between atoms: N2_15  and  C11_16 
REMARK    5  A    between atoms: C11_16  and  C12_17 
REMARK    6  A    between atoms: C12_17  and  C13_18 
ROOT
HETATM    1  O1  UNL     1      26.334   2.529  50.408  1.00  0.00    -0.268 OA
HETATM    2  C1  UNL     1      25.669   3.508  50.925  1.00  0.00     0.249 C 
HETATM    3  N1  UNL     1      25.870   4.892  50.377  1.00  0.00    -0.276 N 
HETATM    4  C10 UNL     1      26.847   4.829  49.309  1.00  0.00     0.323 C 
HETATM    5  O3  UNL     1      27.491   3.912  48.819  1.00  0.00    -0.247 OA
HETATM    6  N2  UNL     1      26.800   6.255  49.014  1.00  0.00    -0.342 N 
HETATM    7  H8  UNL     1      25.225   4.932  51.083  1.00  0.00     0.173 HD
HETATM    8  H9  UNL     1      26.212   7.024  49.476  1.00  0.00     0.164 HD
ENDROOT
BRANCH   2   9
HETATM    9  C2  UNL     1      24.904   2.783  51.951  1.00  0.00     0.075 C 
HETATM   10  C3  UNL     1      24.179   1.729  51.619  1.00  0.00     0.017 C 
BRANCH  10  11
HETATM   11  C4  UNL     1      23.360   0.885  52.472  1.00  0.00    -0.036 A 
HETATM   12  C5  UNL     1      23.941  -0.022  53.357  1.00  0.00     0.014 A 
HETATM   13  C6  UNL     1      23.203  -0.839  54.186  1.00  0.00     0.037 A 
HETATM   14  C7  UNL     1      21.822  -0.773  54.153  1.00  0.00     0.065 A 
HETATM   15  C8  UNL     1      21.255   0.118  53.283  1.00  0.00     0.037 A 
HETATM   16  C9  UNL     1      21.984   0.936  52.453  1.00  0.00     0.014 A 
BRANCH  14  17
HETATM   17  O2  UNL     1      21.049  -1.590  54.983  1.00  0.00    -0.361 OA
HETATM   18  H5  UNL     1      21.567  -2.226  55.587  1.00  0.00     0.217 HD
ENDBRANCH  14  17
ENDBRANCH  10  11
ENDBRANCH   2   9
BRANCH   6  19
HETATM   19  C11 UNL     1      27.682   6.715  47.930  1.00  0.00     0.129 C 
BRANCH  19  20
HETATM   20  C12 UNL     1      28.795   7.493  48.530  1.00  0.00     0.058 C 
BRANCH  20  21
HETATM   21  C13 UNL     1      30.124   6.803  48.436  1.00  0.00    -0.057 A 
HETATM   22  C14 UNL     1      30.382   5.558  47.901  1.00  0.00     0.007 A 
HETATM   23  C15 UNL     1      31.670   5.065  47.886  1.00  0.00     0.001 A 
HETATM   24  C16 UNL     1      32.749   5.767  48.390  1.00  0.00     0.000 A 
HETATM   25  C17 UNL     1      32.501   7.020  48.931  1.00  0.00     0.001 A 
HETATM   26  C18 UNL     1      31.200   7.514  48.944  1.00  0.00     0.007 A 
ENDBRANCH  20  21
ENDBRANCH  19  20
ENDBRANCH   6  19
TORSDOF 6
ENDMDL
MODEL 5
REMARK VINA RESULT:      -7.5      6.953     12.499
REMARK  6 active torsions:
REMARK  status: ('A' for Active; 'I' for Inactive)
REMARK    1  A    between atoms: C1_2  and  C2_3 
REMARK       I    between atoms: C1_2  and  N1_12 
REMARK    2  A    between atoms: C3_4  and  C4_5 
REMARK    3  A    between atoms: C7_8  and  O2_9 
REMARK       I    between atoms: N1_12  and  C10_13 
REMARK       I    between atoms: C10_13  and  N2_15 
REMARK    4  A    between atoms: N2_15  and  C11_16 
REMARK    5  A    between atoms: C11_16  and  C12_17 
REMARK    6  A    between atoms: C12_17  and  C13_18 
ROOT
HETATM    1  O1  UNL     1      21.837   0.180  52.960  1.00  0.00    -0.268 OA
HETATM    2  C1  UNL     1      21.768  -0.762  53.841  1.00  0.00     0.249 C 
HETATM    3  N1  UNL     1      20.427  -1.357  54.162  1.00  0.00    -0.276 N 
HETATM    4  C10 UNL     1      19.421  -0.692  53.361  1.00  0.00     0.323 C 
HETATM    5  O3  UNL     1      19.472   0.207  52.534  1.00  0.00    -0.247 OA
HETATM    6  N2  UNL     1      18.308  -1.473  53.886  1.00  0.00    -0.342 N 
HETATM    7  H8  UNL     1      21.093  -1.796  54.692  1.00  0.00     0.173 HD
HETATM    8  H9  UNL     1      18.316  -2.258  54.616  1.00  0.00     0.164 HD
ENDROOT
BRANCH   2   9
HETATM    9  C2  UNL     1      23.188  -0.876  54.205  1.00  0.00     0.075 C 
HETATM   10  C3  UNL     1      24.120  -0.383  53.409  1.00  0.00     0.017 C 
BRANCH  10  11
HETATM   11  C4  UNL     1      25.563  -0.392  53.584  1.00  0.00    -0.036 A 
HETATM   12  C5  UNL     1      26.381  -1.170  52.765  1.00  0.00     0.014 A 
HETATM   13  C6  UNL     1      27.753  -1.207  52.894  1.00  0.00     0.037 A 
HETATM   14  C7  UNL     1      28.365  -0.448  53.874  1.00  0.00     0.065 A 
HETATM   15  C8  UNL     1      27.560   0.313  54.677  1.00  0.00     0.037 A 
HETATM   16  C9  UNL     1      26.190   0.356  54.554  1.00  0.00     0.014 A 
BRANCH  14  17
HETATM   17  O2  UNL     1      29.754  -0.466  54.027  1.00  0.00    -0.361 OA
HETATM   18  H5  UNL     1      30.178  -1.388  54.119  1.00  0.00     0.217 HD
ENDBRANCH  14  17
ENDBRANCH  10  11
ENDBRANCH   2   9
BRANCH   6  19
HETATM   19  C11 UNL     1      16.981  -1.142  53.343  1.00  0.00     0.129 C 
BRANCH  19  20
HETATM   20  C12 UNL     1      16.642  -2.140  52.296  1.00  0.00     0.058 C 
BRANCH  20  21
HETATM   21  C13 UNL     1      15.908  -3.336  52.828  1.00  0.00    -0.057 A 
HETATM   22  C14 UNL     1      14.557  -3.596  52.734  1.00  0.00     0.007 A 
HETATM   23  C15 UNL     1      14.036  -4.753  53.275  1.00  0.00     0.001 A 
HETATM   24  C16 UNL     1      14.812  -5.695  53.925  1.00  0.00     0.000 A 
HETATM   25  C17 UNL     1      16.173  -5.443  54.026  1.00  0.00     0.001 A 
HETATM   26  C18 UNL     1      16.694  -4.275  53.478  1.00  0.00     0.007 A 
ENDBRANCH  20  21
ENDBRANCH  19  20
ENDBRANCH   6  19
TORSDOF 6
ENDMDL
MODEL 6
REMARK VINA RESULT:      -7.5      3.385      4.793
REMARK  6 active torsions:
REMARK  status: ('A' for Active; 'I' for Inactive)
REMARK    1  A    between atoms: C1_2  and  C2_3 
REMARK       I    between atoms: C1_2  and  N1_12 
REMARK    2  A    between atoms: C3_4  and  C4_5 
REMARK    3  A    between atoms: C7_8  and  O2_9 
REMARK       I    between atoms: N1_12  and  C10_13 
REMARK       I    between atoms: C10_13  and  N2_15 
REMARK    4  A    between atoms: N2_15  and  C11_16 
REMARK    5  A    between atoms: C11_16  and  C12_17 
REMARK    6  A    between atoms: C12_17  and  C13_18 
ROOT
HETATM    1  O1  UNL     1      23.170   2.671  51.475  1.00  0.00    -0.268 OA
HETATM    2  C1  UNL     1      24.323   2.997  51.956  1.00  0.00     0.249 C 
HETATM    3  N1  UNL     1      24.718   4.445  51.973  1.00  0.00    -0.276 N 
HETATM    4  C10 UNL     1      23.643   5.226  51.397  1.00  0.00     0.323 C 
HETATM    5  O3  UNL     1      22.554   4.928  50.928  1.00  0.00    -0.247 OA
HETATM    6  N2  UNL     1      24.315   6.508  51.568  1.00  0.00    -0.342 N 
HETATM    7  H8  UNL     1      25.429   3.929  52.354  1.00  0.00     0.173 HD
HETATM    8  H9  UNL     1      25.278   6.717  51.989  1.00  0.00     0.164 HD
ENDROOT
BRANCH   2   9
HETATM    9  C2  UNL     1      24.829   1.667  52.329  1.00  0.00     0.075 C 
HETATM   10  C3  UNL     1      26.110   1.378  52.180  1.00  0.00     0.017 C 
BRANCH  10  11
HETATM   11  C4  UNL     1      26.802   0.137  52.485  1.00  0.00    -0.036 A 
HETATM   12  C5  UNL     1      28.043   0.143  53.122  1.00  0.00     0.014 A 
HETATM   13  C6  UNL     1      28.733  -1.009  53.433  1.00  0.00     0.037 A 
HETATM   14  C7  UNL     1      28.188  -2.237  53.105  1.00  0.00     0.065 A 
HETATM   15  C8  UNL     1      26.971  -2.240  52.479  1.00  0.00     0.037 A 
HETATM   16  C9  UNL     1      26.277  -1.095  52.166  1.00  0.00     0.014 A 
BRANCH  14  17
HETATM   17  O2  UNL     1      28.865  -3.421  53.407  1.00  0.00    -0.361 OA
HETATM   18  H5  UNL     1      28.527  -4.259  52.937  1.00  0.00     0.217 HD
ENDBRANCH  14  17
ENDBRANCH  10  11
ENDBRANCH   2   9
BRANCH   6  19
HETATM   19  C11 UNL     1      23.573   7.688  51.097  1.00  0.00     0.129 C 
BRANCH  19  20
HETATM   20  C12 UNL     1      23.911   7.914  49.668  1.00  0.00     0.058 C 
BRANCH  20  21
HETATM   21  C13 UNL     1      25.387   7.964  49.405  1.00  0.00    -0.057 A 
HETATM   22  C14 UNL     1      26.132   7.075  48.658  1.00  0.00     0.007 A 
HETATM   23  C15 UNL     1      27.489   7.266  48.507  1.00  0.00     0.001 A 
HETATM   24  C16 UNL     1      28.167   8.328  49.077  1.00  0.00     0.000 A 
HETATM   25  C17 UNL     1      27.427   9.228  49.831  1.00  0.00     0.001 A 
HETATM   26  C18 UNL     1      26.057   9.031  49.980  1.00  0.00     0.007 A 
ENDBRANCH  20  21
ENDBRANCH  19  20
ENDBRANCH   6  19
TORSDOF 6
ENDMDL
MODEL 7
REMARK VINA RESULT:      -7.5      1.174      1.991
REMARK  6 active torsions:
REMARK  status: ('A' for Active; 'I' for Inactive)
REMARK    1  A    between atoms: C1_2  and  C2_3 
REMARK       I    between atoms: C1_2  and  N1_12 
REMARK    2  A    between atoms: C3_4  and  C4_5 
REMARK    3  A    between atoms: C7_8  and  O2_9 
REMARK       I    between atoms: N1_12  and  C10_13 
REMARK       I    between atoms: C10_13  and  N2_15 
REMARK    4  A    between atoms: N2_15  and  C11_16 
REMARK    5  A    between atoms: C11_16  and  C12_17 
REMARK    6  A    between atoms: C12_17  and  C13_18 
ROOT
HETATM    1  O1  UNL     1      24.325   3.513  50.224  1.00  0.00    -0.268 OA
HETATM    2  C1  UNL     1      25.430   3.132  50.773  1.00  0.00     0.249 C 
HETATM    3  N1  UNL     1      26.713   3.792  50.355  1.00  0.00    -0.276 N 
HETATM    4  C10 UNL     1      26.415   4.785  49.345  1.00  0.00     0.323 C 
HETATM    5  O3  UNL     1      25.376   5.147  48.810  1.00  0.00    -0.247 OA
HETATM    6  N2  UNL     1      27.798   5.213  49.180  1.00  0.00    -0.342 N 
HETATM    7  H8  UNL     1      26.909   3.135  51.023  1.00  0.00     0.173 HD
HETATM    8  H9  UNL     1      28.680   4.862  49.678  1.00  0.00     0.164 HD
ENDROOT
BRANCH   2   9
HETATM    9  C2  UNL     1      24.919   2.094  51.681  1.00  0.00     0.075 C 
HETATM   10  C3  UNL     1      23.620   1.873  51.775  1.00  0.00     0.017 C 
BRANCH  10  11
HETATM   11  C4  UNL     1      22.920   0.906  52.603  1.00  0.00    -0.036 A 
HETATM   12  C5  UNL     1      23.619   0.046  53.450  1.00  0.00     0.014 A 
HETATM   13  C6  UNL     1      22.996  -0.884  54.255  1.00  0.00     0.037 A 
HETATM   14  C7  UNL     1      21.617  -0.985  54.236  1.00  0.00     0.065 A 
HETATM   15  C8  UNL     1      20.934  -0.141  53.404  1.00  0.00     0.037 A 
HETATM   16  C9  UNL     1      21.548   0.790  52.598  1.00  0.00     0.014 A 
BRANCH  14  17
HETATM   17  O2  UNL     1      20.960  -1.919  55.041  1.00  0.00    -0.361 OA
HETATM   18  H5  UNL     1      19.992  -1.701  55.275  1.00  0.00     0.217 HD
ENDBRANCH  14  17
ENDBRANCH  10  11
ENDBRANCH   2   9
BRANCH   6  19
HETATM   19  C11 UNL     1      28.026   6.277  48.190  1.00  0.00     0.129 C 
BRANCH  19  20
HETATM   20  C12 UNL     1      29.488   6.520  48.091  1.00  0.00     0.058 C 
BRANCH  20  21
HETATM   21  C13 UNL     1      29.877   7.942  48.372  1.00  0.00    -0.057 A 
HETATM   22  C14 UNL     1      29.122   8.902  49.014  1.00  0.00     0.007 A 
HETATM   23  C15 UNL     1      29.631  10.171  49.200  1.00  0.00     0.001 A 
HETATM   24  C16 UNL     1      30.888  10.547  48.766  1.00  0.00     0.000 A 
HETATM   25  C17 UNL     1      31.655   9.590  48.118  1.00  0.00     0.001 A 
HETATM   26  C18 UNL     1      31.139   8.310  47.934  1.00  0.00     0.007 A 
ENDBRANCH  20  21
ENDBRANCH  19  20
ENDBRANCH   6  19
TORSDOF 6
ENDMDL
MODEL 8
REMARK VINA RESULT:      -7.5      1.107      1.757
REMARK  6 active torsions:
REMARK  status: ('A' for Active; 'I' for Inactive)
REMARK    1  A    between atoms: C1_2  and  C2_3 
REMARK       I    between atoms: C1_2  and  N1_12 
REMARK    2  A    between atoms: C3_4  and  C4_5 
REMARK    3  A    between atoms: C7_8  and  O2_9 
REMARK       I    between atoms: N1_12  and  C10_13 
REMARK       I    between atoms: C10_13  and  N2_15 
REMARK    4  A    between atoms: N2_15  and  C11_16 
REMARK    5  A    between atoms: C11_16  and  C12_17 
REMARK    6  A    between atoms: C12_17  and  C13_18 
ROOT
HETATM    1  O1  UNL     1      24.230   3.855  50.522  1.00  0.00    -0.268 OA
HETATM    2  C1  UNL     1      25.329   3.337  50.962  1.00  0.00     0.249 C 
HETATM    3  N1  UNL     1      26.636   3.844  50.424  1.00  0.00    -0.276 N 
HETATM    4  C10 UNL     1      26.365   4.880  49.449  1.00  0.00     0.323 C 
HETATM    5  O3  UNL     1      25.331   5.371  49.018  1.00  0.00    -0.247 OA
HETATM    6  N2  UNL     1      27.768   5.142  49.153  1.00  0.00    -0.342 N 
HETATM    7  H8  UNL     1      26.814   3.159  51.068  1.00  0.00     0.173 HD
HETATM    8  H9  UNL     1      28.644   4.681  49.563  1.00  0.00     0.164 HD
ENDROOT
BRANCH   2   9
HETATM    9  C2  UNL     1      24.785   2.354  51.912  1.00  0.00     0.075 C 
HETATM   10  C3  UNL     1      23.572   1.861  51.737  1.00  0.00     0.017 C 
BRANCH  10  11
HETATM   11  C4  UNL     1      22.859   0.893  52.553  1.00  0.00    -0.036 A 
HETATM   12  C5  UNL     1      21.469   0.796  52.504  1.00  0.00     0.014 A 
HETATM   13  C6  UNL     1      20.752  -0.109  53.257  1.00  0.00     0.037 A 
HETATM   14  C7  UNL     1      21.424  -0.968  54.108  1.00  0.00     0.065 A 
HETATM   15  C8  UNL     1      22.788  -0.870  54.155  1.00  0.00     0.037 A 
HETATM   16  C9  UNL     1      23.509   0.030  53.406  1.00  0.00     0.014 A 
BRANCH  14  17
HETATM   17  O2  UNL     1      20.723  -1.895  54.883  1.00  0.00    -0.361 OA
HETATM   18  H5  UNL     1      19.741  -2.024  54.643  1.00  0.00     0.217 HD
ENDBRANCH  14  17
ENDBRANCH  10  11
ENDBRANCH   2   9
BRANCH   6  19
HETATM   19  C11 UNL     1      28.026   6.185  48.148  1.00  0.00     0.129 C 
BRANCH  19  20
HETATM   20  C12 UNL     1      29.492   6.263  47.921  1.00  0.00     0.058 C 
BRANCH  20  21
HETATM   21  C13 UNL     1      30.061   7.632  48.158  1.00  0.00    -0.057 A 
HETATM   22  C14 UNL     1      31.286   8.110  47.743  1.00  0.00     0.007 A 
HETATM   23  C15 UNL     1      31.660   9.404  48.041  1.00  0.00     0.001 A 
HETATM   24  C16 UNL     1      30.854  10.275  48.751  1.00  0.00     0.000 A 
HETATM   25  C17 UNL     1      29.620   9.804  49.174  1.00  0.00     0.001 A 
HETATM   26  C18 UNL     1      29.246   8.497  48.871  1.00  0.00     0.007 A 
ENDBRANCH  20  21
ENDBRANCH  19  20
ENDBRANCH   6  19
TORSDOF 6
ENDMDL
MODEL 9
REMARK VINA RESULT:      -7.4      4.907      7.108
REMARK  6 active torsions:
REMARK  status: ('A' for Active; 'I' for Inactive)
REMARK    1  A    between atoms: C1_2  and  C2_3 
REMARK       I    between atoms: C1_2  and  N1_12 
REMARK    2  A    between atoms: C3_4  and  C4_5 
REMARK    3  A    between atoms: C7_8  and  O2_9 
REMARK       I    between atoms: N1_12  and  C10_13 
REMARK       I    between atoms: C10_13  and  N2_15 
REMARK    4  A    between atoms: N2_15  and  C11_16 
REMARK    5  A    between atoms: C11_16  and  C12_17 
REMARK    6  A    between atoms: C12_17  and  C13_18 
ROOT
HETATM    1  O1  UNL     1      26.141   3.520  50.436  1.00  0.00    -0.268 OA
HETATM    2  C1  UNL     1      25.192   3.303  51.285  1.00  0.00     0.249 C 
HETATM    3  N1  UNL     1      24.214   4.405  51.577  1.00  0.00    -0.276 N 
HETATM    4  C10 UNL     1      24.575   5.566  50.791  1.00  0.00     0.323 C 
HETATM    5  O3  UNL     1      25.477   5.787  49.994  1.00  0.00    -0.247 OA
HETATM    6  N2  UNL     1      23.481   6.394  51.282  1.00  0.00    -0.342 N 
HETATM    7  H8  UNL     1      23.976   3.637  52.097  1.00  0.00     0.173 HD
HETATM    8  H9  UNL     1      22.710   6.150  51.985  1.00  0.00     0.164 HD
ENDROOT
BRANCH   2   9
HETATM    9  C2  UNL     1      25.494   1.912  51.656  1.00  0.00     0.075 C 
HETATM   10  C3  UNL     1      26.730   1.561  51.969  1.00  0.00     0.017 C 
BRANCH  10  11
HETATM   11  C4  UNL     1      27.231   0.254  52.357  1.00  0.00    -0.036 A 
HETATM   12  C5  UNL     1      28.445   0.121  53.031  1.00  0.00     0.014 A 
HETATM   13  C6  UNL     1      28.957  -1.097  53.422  1.00  0.00     0.037 A 
HETATM   14  C7  UNL     1      28.252  -2.253  53.140  1.00  0.00     0.065 A 
HETATM   15  C8  UNL     1      27.062  -2.120  52.478  1.00  0.00     0.037 A 
HETATM   16  C9  UNL     1      26.544  -0.907  52.086  1.00  0.00     0.014 A 
BRANCH  14  17
HETATM   17  O2  UNL     1      28.748  -3.502  53.524  1.00  0.00    -0.361 OA
HETATM   18  H5  UNL     1      28.106  -4.286  53.417  1.00  0.00     0.217 HD
ENDBRANCH  14  17
ENDBRANCH  10  11
ENDBRANCH   2   9
BRANCH   6  19
HETATM   19  C11 UNL     1      23.420   7.760  50.740  1.00  0.00     0.129 C 
BRANCH  19  20
HETATM   20  C12 UNL     1      22.624   7.731  49.485  1.00  0.00     0.058 C 
BRANCH  20  21
HETATM   21  C13 UNL     1      21.503   8.728  49.467  1.00  0.00    -0.057 A 
HETATM   22  C14 UNL     1      20.258   8.594  50.046  1.00  0.00     0.007 A 
HETATM   23  C15 UNL     1      19.334   9.613  49.942  1.00  0.00     0.001 A 
HETATM   24  C16 UNL     1      19.591  10.795  49.271  1.00  0.00     0.000 A 
HETATM   25  C17 UNL     1      20.840  10.939  48.684  1.00  0.00     0.001 A 
HETATM   26  C18 UNL     1      21.769   9.909  48.793  1.00  0.00     0.007 A 
ENDBRANCH  20  21
ENDBRANCH  19  20
ENDBRANCH   6  19
TORSDOF 6
ENDMDL
