MODEL 1
REMARK VINA RESULT:      -7.7      0.000      0.000
REMARK  5 active torsions:
REMARK  status: ('A' for Active; 'I' for Inactive)
REMARK    1  A    between atoms: C1_1  and  C13_16 
REMARK    2  A    between atoms: C2_2  and  C3_3 
REMARK    3  A    between atoms: C5_6  and  N1_7 
REMARK    4  A    between atoms: N1_7  and  C6_8 
REMARK    5  A    between atoms: C6_8  and  C7_9 
ROOT
HETATM    1  C3  UNL     1      25.224   2.597  51.098  1.00  0.00     0.066 A 
HETATM    2  C4  UNL     1      25.391   3.658  50.274  1.00  0.00     0.085 A 
HETATM    3  S1  UNL     1      23.680   3.870  49.455  1.00  0.00    -0.062 SA
HETATM    4  C5  UNL     1      23.091   2.402  50.462  1.00  0.00     0.167 A 
HETATM    5  N2  UNL     1      24.007   2.124  51.037  1.00  0.00    -0.224 NA
ENDROOT
BRANCH   1   6
HETATM    6  C2  UNL     1      26.400   2.220  51.854  1.00  0.00     0.032 C 
HETATM    7  C1  UNL     1      26.895   1.133  52.337  1.00  0.00     0.004 C 
BRANCH   7   8
HETATM    8  C13 UNL     1      26.555  -0.277  52.385  1.00  0.00     0.027 C 
HETATM    9  C14 UNL     1      27.365  -1.240  52.743  1.00  0.00     0.032 A 
HETATM   10  C15 UNL     1      28.743  -0.777  53.123  1.00  0.00     0.107 A 
HETATM   11  N4  UNL     1      27.360  -2.636  52.895  1.00  0.00    -0.283 N 
HETATM   12  C16 UNL     1      29.416  -2.076  53.475  1.00  0.00     0.117 A 
HETATM   13  N3  UNL     1      28.614  -3.067  53.332  1.00  0.00    -0.191 NA
HETATM   14  H16 UNL     1      26.466  -3.104  52.667  1.00  0.00     0.189 HD
ENDBRANCH   7   8
ENDBRANCH   1   6
BRANCH   4  15
HETATM   15  N1  UNL     1      21.721   1.656  50.571  1.00  0.00    -0.365 N 
HETATM   16  H4  UNL     1      21.086   2.477  50.457  1.00  0.00     0.162 HD
BRANCH  15  17
HETATM   17  C6  UNL     1      21.307   0.303  50.763  1.00  0.00     0.160 C 
BRANCH  17  18
HETATM   18  C7  UNL     1      21.453   0.058  52.244  1.00  0.00    -0.041 A 
HETATM   19  C8  UNL     1      22.574  -0.578  52.725  1.00  0.00     0.009 A 
HETATM   20  C9  UNL     1      22.771  -0.835  54.077  1.00  0.00     0.001 A 
HETATM   21  C10 UNL     1      21.794  -0.431  54.964  1.00  0.00     0.000 A 
HETATM   22  C11 UNL     1      20.657   0.212  54.502  1.00  0.00     0.001 A 
HETATM   23  C12 UNL     1      20.493   0.452  53.152  1.00  0.00     0.009 A 
ENDBRANCH  17  18
ENDBRANCH  15  17
ENDBRANCH   4  15
TORSDOF 5
ENDMDL
MODEL 2
REMARK VINA RESULT:      -7.5      2.643      5.972
REMARK  5 active torsions:
REMARK  status: ('A' for Active; 'I' for Inactive)
REMARK    1  A    between atoms: C1_1  and  C13_16 
REMARK    2  A    between atoms: C2_2  and  C3_3 
REMARK    3  A    between atoms: C5_6  and  N1_7 
REMARK    4  A    between atoms: N1_7  and  C6_8 
REMARK    5  A    between atoms: C6_8  and  C7_9 
ROOT
HETATM    1  C3  UNL     1      23.784   0.926  52.422  1.00  0.00     0.066 A 
HETATM    2  C4  UNL     1      22.461   1.209  52.481  1.00  0.00     0.085 A 
HETATM    3  S1  UNL     1      22.270   2.725  51.338  1.00  0.00    -0.062 SA
HETATM    4  C5  UNL     1      24.115   2.632  51.017  1.00  0.00     0.167 A 
HETATM    5  N2  UNL     1      24.421   1.756  51.638  1.00  0.00    -0.224 NA
ENDROOT
BRANCH   1   6
HETATM    6  C2  UNL     1      24.203  -0.208  53.220  1.00  0.00     0.032 C 
HETATM    7  C1  UNL     1      25.106  -0.448  54.106  1.00  0.00     0.004 C 
BRANCH   7   8
HETATM    8  C13 UNL     1      26.174   0.270  54.776  1.00  0.00     0.027 C 
HETATM    9  C14 UNL     1      27.450   0.160  54.501  1.00  0.00     0.032 A 
HETATM   10  C15 UNL     1      27.760  -0.805  53.392  1.00  0.00     0.107 A 
HETATM   11  N4  UNL     1      28.681   0.679  54.931  1.00  0.00    -0.283 N 
HETATM   12  C16 UNL     1      29.261  -0.712  53.317  1.00  0.00     0.117 A 
HETATM   13  N3  UNL     1      29.717   0.116  54.184  1.00  0.00    -0.191 NA
HETATM   14  H16 UNL     1      28.627   1.368  55.702  1.00  0.00     0.189 HD
ENDBRANCH   7   8
ENDBRANCH   1   6
BRANCH   4  15
HETATM   15  N1  UNL     1      25.097   3.482  50.146  1.00  0.00    -0.365 N 
HETATM   16  H4  UNL     1      24.499   4.327  50.015  1.00  0.00     0.162 HD
BRANCH  15  17
HETATM   17  C6  UNL     1      26.411   3.301  49.618  1.00  0.00     0.160 C 
BRANCH  17  18
HETATM   18  C7  UNL     1      26.783   4.641  49.033  1.00  0.00    -0.041 A 
HETATM   19  C8  UNL     1      25.830   5.627  48.919  1.00  0.00     0.009 A 
HETATM   20  C9  UNL     1      26.107   6.882  48.391  1.00  0.00     0.001 A 
HETATM   21  C10 UNL     1      27.395   7.139  47.967  1.00  0.00     0.000 A 
HETATM   22  C11 UNL     1      28.371   6.161  48.072  1.00  0.00     0.001 A 
HETATM   23  C12 UNL     1      28.063   4.924  48.603  1.00  0.00     0.009 A 
ENDBRANCH  17  18
ENDBRANCH  15  17
ENDBRANCH   4  15
TORSDOF 5
ENDMDL
MODEL 3
REMARK VINA RESULT:      -7.4      1.411      1.541
REMARK  5 active torsions:
REMARK  status: ('A' for Active; 'I' for Inactive)
REMARK    1  A    between atoms: C1_1  and  C13_16 
REMARK    2  A    between atoms: C2_2  and  C3_3 
REMARK    3  A    between atoms: C5_6  and  N1_7 
REMARK    4  A    between atoms: N1_7  and  C6_8 
REMARK    5  A    between atoms: C6_8  and  C7_9 
ROOT
HETATM    1  C3  UNL     1      24.601   3.193  50.426  1.00  0.00     0.066 A 
HETATM    2  C4  UNL     1      24.305   4.324  49.743  1.00  0.00     0.085 A 
HETATM    3  S1  UNL     1      22.398   4.335  49.684  1.00  0.00    -0.062 SA
HETATM    4  C5  UNL     1      22.427   2.725  50.646  1.00  0.00     0.167 A 
HETATM    5  N2  UNL     1      23.521   2.548  50.781  1.00  0.00    -0.224 NA
ENDROOT
BRANCH   1   6
HETATM    6  C2  UNL     1      26.015   2.944  50.614  1.00  0.00     0.032 C 
HETATM    7  C1  UNL     1      26.740   2.046  51.186  1.00  0.00     0.004 C 
BRANCH   7   8
HETATM    8  C13 UNL     1      26.543   0.821  51.937  1.00  0.00     0.027 C 
HETATM    9  C14 UNL     1      27.234   0.456  52.987  1.00  0.00     0.032 A 
HETATM   10  C15 UNL     1      28.301   1.433  53.391  1.00  0.00     0.107 A 
HETATM   11  N4  UNL     1      27.302  -0.607  53.902  1.00  0.00    -0.283 N 
HETATM   12  C16 UNL     1      28.901   0.751  54.592  1.00  0.00     0.117 A 
HETATM   13  N3  UNL     1      28.318  -0.366  54.830  1.00  0.00    -0.191 NA
HETATM   14  H16 UNL     1      26.617  -1.368  53.750  1.00  0.00     0.189 HD
ENDBRANCH   7   8
ENDBRANCH   1   6
BRANCH   4  15
HETATM   15  N1  UNL     1      21.306   1.775  51.181  1.00  0.00    -0.365 N 
HETATM   16  H4  UNL     1      20.687   2.493  51.618  1.00  0.00     0.162 HD
BRANCH  15  17
HETATM   17  C6  UNL     1      21.064   0.368  51.161  1.00  0.00     0.160 C 
BRANCH  17  18
HETATM   18  C7  UNL     1      21.570  -0.133  52.490  1.00  0.00    -0.041 A 
HETATM   19  C8  UNL     1      22.924  -0.195  52.729  1.00  0.00     0.009 A 
HETATM   20  C9  UNL     1      23.455  -0.646  53.931  1.00  0.00     0.001 A 
HETATM   21  C10 UNL     1      22.579  -1.046  54.920  1.00  0.00     0.000 A 
HETATM   22  C11 UNL     1      21.212  -0.993  54.702  1.00  0.00     0.001 A 
HETATM   23  C12 UNL     1      20.717  -0.538  53.496  1.00  0.00     0.009 A 
ENDBRANCH  17  18
ENDBRANCH  15  17
ENDBRANCH   4  15
TORSDOF 5
ENDMDL
MODEL 4
REMARK VINA RESULT:      -7.4      2.115      5.632
REMARK  5 active torsions:
REMARK  status: ('A' for Active; 'I' for Inactive)
REMARK    1  A    between atoms: C1_1  and  C13_16 
REMARK    2  A    between atoms: C2_2  and  C3_3 
REMARK    3  A    between atoms: C5_6  and  N1_7 
REMARK    4  A    between atoms: N1_7  and  C6_8 
REMARK    5  A    between atoms: C6_8  and  C7_9 
ROOT
HETATM    1  C3  UNL     1      23.029   2.087  50.530  1.00  0.00     0.066 A 
HETATM    2  C4  UNL     1      22.921   3.226  49.807  1.00  0.00     0.085 A 
HETATM    3  S1  UNL     1      24.397   4.281  50.399  1.00  0.00    -0.062 SA
HETATM    4  C5  UNL     1      24.855   2.874  51.550  1.00  0.00     0.167 A 
HETATM    5  N2  UNL     1      24.059   2.121  51.335  1.00  0.00    -0.224 NA
ENDROOT
BRANCH   1   6
HETATM    6  C2  UNL     1      22.007   1.095  50.267  1.00  0.00     0.032 C 
HETATM    7  C1  UNL     1      21.056   0.530  50.927  1.00  0.00     0.004 C 
BRANCH   7   8
HETATM    8  C13 UNL     1      20.501   0.577  52.267  1.00  0.00     0.027 C 
HETATM    9  C14 UNL     1      21.022   0.005  53.323  1.00  0.00     0.032 A 
HETATM   10  C15 UNL     1      22.297  -0.742  53.053  1.00  0.00     0.107 A 
HETATM   11  N4  UNL     1      20.759  -0.141  54.695  1.00  0.00    -0.283 N 
HETATM   12  C16 UNL     1      22.637  -1.271  54.421  1.00  0.00     0.117 A 
HETATM   13  N3  UNL     1      21.761  -0.914  55.287  1.00  0.00    -0.191 NA
HETATM   14  H16 UNL     1      19.901   0.327  55.034  1.00  0.00     0.189 HD
ENDBRANCH   7   8
ENDBRANCH   1   6
BRANCH   4  15
HETATM   15  N1  UNL     1      26.007   2.669  52.587  1.00  0.00    -0.365 N 
HETATM   16  H4  UNL     1      26.775   3.147  52.066  1.00  0.00     0.162 HD
BRANCH  15  17
HETATM   17  C6  UNL     1      26.129   2.051  53.869  1.00  0.00     0.160 C 
BRANCH  17  18
HETATM   18  C7  UNL     1      26.982   0.830  53.633  1.00  0.00    -0.041 A 
HETATM   19  C8  UNL     1      26.444  -0.270  53.004  1.00  0.00     0.009 A 
HETATM   20  C9  UNL     1      27.174  -1.426  52.756  1.00  0.00     0.001 A 
HETATM   21  C10 UNL     1      28.493  -1.461  53.162  1.00  0.00     0.000 A 
HETATM   22  C11 UNL     1      29.056  -0.366  53.796  1.00  0.00     0.001 A 
HETATM   23  C12 UNL     1      28.303   0.768  54.027  1.00  0.00     0.009 A 
ENDBRANCH  17  18
ENDBRANCH  15  17
ENDBRANCH   4  15
TORSDOF 5
ENDMDL
MODEL 5
REMARK VINA RESULT:      -7.3      5.424      8.633
REMARK  5 active torsions:
REMARK  status: ('A' for Active; 'I' for Inactive)
REMARK    1  A    between atoms: C1_1  and  C13_16 
REMARK    2  A    between atoms: C2_2  and  C3_3 
REMARK    3  A    between atoms: C5_6  and  N1_7 
REMARK    4  A    between atoms: N1_7  and  C6_8 
REMARK    5  A    between atoms: C6_8  and  C7_9 
ROOT
HETATM    1  C3  UNL     1      26.802   4.275  49.283  1.00  0.00     0.066 A 
HETATM    2  C4  UNL     1      26.011   5.374  49.295  1.00  0.00     0.085 A 
HETATM    3  S1  UNL     1      27.120   6.739  48.556  1.00  0.00    -0.062 SA
HETATM    4  C5  UNL     1      28.475   5.454  48.386  1.00  0.00     0.167 A 
HETATM    5  N2  UNL     1      27.984   4.536  48.791  1.00  0.00    -0.224 NA
ENDROOT
BRANCH   1   6
HETATM    6  C2  UNL     1      26.185   3.072  49.805  1.00  0.00     0.032 C 
HETATM    7  C1  UNL     1      26.301   2.341  50.859  1.00  0.00     0.004 C 
BRANCH   7   8
HETATM    8  C13 UNL     1      27.094   2.322  52.074  1.00  0.00     0.027 C 
HETATM    9  C14 UNL     1      26.976   1.448  53.041  1.00  0.00     0.032 A 
HETATM   10  C15 UNL     1      25.916   0.409  52.807  1.00  0.00     0.107 A 
HETATM   11  N4  UNL     1      27.550   1.155  54.289  1.00  0.00    -0.283 N 
HETATM   12  C16 UNL     1      26.022  -0.423  54.058  1.00  0.00     0.117 A 
HETATM   13  N3  UNL     1      26.934   0.029  54.839  1.00  0.00    -0.191 NA
HETATM   14  H16 UNL     1      28.307   1.793  54.589  1.00  0.00     0.189 HD
ENDBRANCH   7   8
ENDBRANCH   1   6
BRANCH   4  15
HETATM   15  N1  UNL     1      29.941   5.505  47.845  1.00  0.00    -0.365 N 
HETATM   16  H4  UNL     1      29.777   5.080  46.906  1.00  0.00     0.162 HD
BRANCH  15  17
HETATM   17  C6  UNL     1      31.200   5.954  48.347  1.00  0.00     0.160 C 
BRANCH  17  18
HETATM   18  C7  UNL     1      32.202   4.944  47.845  1.00  0.00    -0.041 A 
HETATM   19  C8  UNL     1      31.776   3.871  47.097  1.00  0.00     0.009 A 
HETATM   20  C9  UNL     1      32.646   2.906  46.604  1.00  0.00     0.001 A 
HETATM   21  C10 UNL     1      33.991   3.040  46.884  1.00  0.00     0.000 A 
HETATM   22  C11 UNL     1      34.443   4.113  47.635  1.00  0.00     0.001 A 
HETATM   23  C12 UNL     1      33.551   5.055  48.109  1.00  0.00     0.009 A 
ENDBRANCH  17  18
ENDBRANCH  15  17
ENDBRANCH   4  15
TORSDOF 5
ENDMDL
MODEL 6
REMARK VINA RESULT:      -7.1      2.829      5.845
REMARK  5 active torsions:
REMARK  status: ('A' for Active; 'I' for Inactive)
REMARK    1  A    between atoms: C1_1  and  C13_16 
REMARK    2  A    between atoms: C2_2  and  C3_3 
REMARK    3  A    between atoms: C5_6  and  N1_7 
REMARK    4  A    between atoms: N1_7  and  C6_8 
REMARK    5  A    between atoms: C6_8  and  C7_9 
ROOT
HETATM    1  C3  UNL     1      23.476   2.436  52.173  1.00  0.00     0.066 A 
HETATM    2  C4  UNL     1      22.128   2.456  52.292  1.00  0.00     0.085 A 
HETATM    3  S1  UNL     1      21.673   4.285  51.993  1.00  0.00    -0.062 SA
HETATM    4  C5  UNL     1      23.501   4.633  51.761  1.00  0.00     0.167 A 
HETATM    5  N2  UNL     1      23.955   3.623  51.907  1.00  0.00    -0.224 NA
ENDROOT
BRANCH   1   6
HETATM    6  C2  UNL     1      24.088   1.136  52.359  1.00  0.00     0.032 C 
HETATM    7  C1  UNL     1      25.282   0.654  52.360  1.00  0.00     0.004 C 
BRANCH   7   8
HETATM    8  C13 UNL     1      26.638   1.138  52.180  1.00  0.00     0.027 C 
HETATM    9  C14 UNL     1      27.619   0.977  53.033  1.00  0.00     0.032 A 
HETATM   10  C15 UNL     1      27.238   0.223  54.275  1.00  0.00     0.107 A 
HETATM   11  N4  UNL     1      28.979   1.300  53.165  1.00  0.00    -0.283 N 
HETATM   12  C16 UNL     1      28.539   0.205  55.032  1.00  0.00     0.117 A 
HETATM   13  N3  UNL     1      29.463   0.810  54.380  1.00  0.00    -0.191 NA
HETATM   14  H16 UNL     1      29.389   1.827  52.375  1.00  0.00     0.189 HD
ENDBRANCH   7   8
ENDBRANCH   1   6
BRANCH   4  15
HETATM   15  N1  UNL     1      24.314   5.930  51.445  1.00  0.00    -0.365 N 
HETATM   16  H4  UNL     1      24.777   6.054  52.373  1.00  0.00     0.162 HD
BRANCH  15  17
HETATM   17  C6  UNL     1      24.477   6.783  50.312  1.00  0.00     0.160 C 
BRANCH  17  18
HETATM   18  C7  UNL     1      25.738   6.301  49.639  1.00  0.00    -0.041 A 
HETATM   19  C8  UNL     1      26.000   4.953  49.561  1.00  0.00     0.009 A 
HETATM   20  C9  UNL     1      27.141   4.442  48.955  1.00  0.00     0.001 A 
HETATM   21  C10 UNL     1      28.043   5.335  48.412  1.00  0.00     0.000 A 
HETATM   22  C11 UNL     1      27.800   6.697  48.478  1.00  0.00     0.001 A 
HETATM   23  C12 UNL     1      26.655   7.171  49.088  1.00  0.00     0.009 A 
ENDBRANCH  17  18
ENDBRANCH  15  17
ENDBRANCH   4  15
TORSDOF 5
ENDMDL
MODEL 7
REMARK VINA RESULT:      -7.0      4.747      7.005
REMARK  5 active torsions:
REMARK  status: ('A' for Active; 'I' for Inactive)
REMARK    1  A    between atoms: C1_1  and  C13_16 
REMARK    2  A    between atoms: C2_2  and  C3_3 
REMARK    3  A    between atoms: C5_6  and  N1_7 
REMARK    4  A    between atoms: N1_7  and  C6_8 
REMARK    5  A    between atoms: C6_8  and  C7_9 
ROOT
HETATM    1  C3  UNL     1      26.667   5.435  48.885  1.00  0.00     0.066 A 
HETATM    2  C4  UNL     1      25.383   5.857  48.816  1.00  0.00     0.085 A 
HETATM    3  S1  UNL     1      24.410   4.509  49.754  1.00  0.00    -0.062 SA
HETATM    4  C5  UNL     1      26.041   3.631  50.046  1.00  0.00     0.167 A 
HETATM    5  N2  UNL     1      26.771   4.308  49.541  1.00  0.00    -0.224 NA
ENDROOT
BRANCH   1   6
HETATM    6  C2  UNL     1      27.631   6.298  48.235  1.00  0.00     0.032 C 
HETATM    7  C1  UNL     1      28.885   6.252  47.945  1.00  0.00     0.004 C 
BRANCH   7   8
HETATM    8  C13 UNL     1      29.994   5.330  48.106  1.00  0.00     0.027 C 
HETATM    9  C14 UNL     1      31.226   5.669  48.390  1.00  0.00     0.032 A 
HETATM   10  C15 UNL     1      31.437   7.148  48.548  1.00  0.00     0.107 A 
HETATM   11  N4  UNL     1      32.475   5.065  48.605  1.00  0.00    -0.283 N 
HETATM   12  C16 UNL     1      32.908   7.216  48.861  1.00  0.00     0.117 A 
HETATM   13  N3  UNL     1      33.432   6.045  48.879  1.00  0.00    -0.191 NA
HETATM   14  H16 UNL     1      32.488   4.033  48.528  1.00  0.00     0.189 HD
ENDBRANCH   7   8
ENDBRANCH   1   6
BRANCH   4  15
HETATM   15  N1  UNL     1      26.429   2.305  50.779  1.00  0.00    -0.365 N 
HETATM   16  H4  UNL     1      27.309   2.091  50.260  1.00  0.00     0.162 HD
BRANCH  15  17
HETATM   17  C6  UNL     1      25.869   1.517  51.829  1.00  0.00     0.160 C 
BRANCH  17  18
HETATM   18  C7  UNL     1      27.053   0.886  52.517  1.00  0.00    -0.041 A 
HETATM   19  C8  UNL     1      27.168  -0.485  52.563  1.00  0.00     0.009 A 
HETATM   20  C9  UNL     1      28.233  -1.130  53.180  1.00  0.00     0.001 A 
HETATM   21  C10 UNL     1      29.211  -0.353  53.768  1.00  0.00     0.000 A 
HETATM   22  C11 UNL     1      29.116   1.029  53.734  1.00  0.00     0.001 A 
HETATM   23  C12 UNL     1      28.045   1.638  53.112  1.00  0.00     0.009 A 
ENDBRANCH  17  18
ENDBRANCH  15  17
ENDBRANCH   4  15
TORSDOF 5
ENDMDL
MODEL 8
REMARK VINA RESULT:      -6.9      2.184      2.853
REMARK  5 active torsions:
REMARK  status: ('A' for Active; 'I' for Inactive)
REMARK    1  A    between atoms: C1_1  and  C13_16 
REMARK    2  A    between atoms: C2_2  and  C3_3 
REMARK    3  A    between atoms: C5_6  and  N1_7 
REMARK    4  A    between atoms: N1_7  and  C6_8 
REMARK    5  A    between atoms: C6_8  and  C7_9 
ROOT
HETATM    1  C3  UNL     1      24.231   3.097  51.475  1.00  0.00     0.066 A 
HETATM    2  C4  UNL     1      23.924   4.411  51.374  1.00  0.00     0.085 A 
HETATM    3  S1  UNL     1      22.116   4.503  51.979  1.00  0.00    -0.062 SA
HETATM    4  C5  UNL     1      22.182   2.649  52.248  1.00  0.00     0.167 A 
HETATM    5  N2  UNL     1      23.223   2.399  51.931  1.00  0.00    -0.224 NA
ENDROOT
BRANCH   1   6
HETATM    6  C2  UNL     1      25.577   2.749  51.068  1.00  0.00     0.032 C 
HETATM    7  C1  UNL     1      26.404   1.787  51.289  1.00  0.00     0.004 C 
BRANCH   7   8
HETATM    8  C13 UNL     1      26.439   0.551  52.047  1.00  0.00     0.027 C 
HETATM    9  C14 UNL     1      27.258   0.291  53.035  1.00  0.00     0.032 A 
HETATM   10  C15 UNL     1      28.210   1.408  53.355  1.00  0.00     0.107 A 
HETATM   11  N4  UNL     1      27.546  -0.747  53.936  1.00  0.00    -0.283 N 
HETATM   12  C16 UNL     1      28.995   0.821  54.498  1.00  0.00     0.117 A 
HETATM   13  N3  UNL     1      28.592  -0.364  54.778  1.00  0.00    -0.191 NA
HETATM   14  H16 UNL     1      26.962  -1.596  53.836  1.00  0.00     0.189 HD
ENDBRANCH   7   8
ENDBRANCH   1   6
BRANCH   4  15
HETATM   15  N1  UNL     1      21.143   1.603  52.768  1.00  0.00    -0.365 N 
HETATM   16  H4  UNL     1      20.413   2.264  53.112  1.00  0.00     0.162 HD
BRANCH  15  17
HETATM   17  C6  UNL     1      21.070   0.178  52.827  1.00  0.00     0.160 C 
BRANCH  17  18
HETATM   18  C7  UNL     1      19.646  -0.155  52.459  1.00  0.00    -0.041 A 
HETATM   19  C8  UNL     1      19.125   0.292  51.266  1.00  0.00     0.009 A 
HETATM   20  C9  UNL     1      17.822   0.021  50.866  1.00  0.00     0.001 A 
HETATM   21  C10 UNL     1      17.026  -0.728  51.708  1.00  0.00     0.000 A 
HETATM   22  C11 UNL     1      17.529  -1.189  52.914  1.00  0.00     0.001 A 
HETATM   23  C12 UNL     1      18.829  -0.902  53.281  1.00  0.00     0.009 A 
ENDBRANCH  17  18
ENDBRANCH  15  17
ENDBRANCH   4  15
TORSDOF 5
ENDMDL
MODEL 9
REMARK VINA RESULT:      -6.9      3.284      7.086
REMARK  5 active torsions:
REMARK  status: ('A' for Active; 'I' for Inactive)
REMARK    1  A    between atoms: C1_1  and  C13_16 
REMARK    2  A    between atoms: C2_2  and  C3_3 
REMARK    3  A    between atoms: C5_6  and  N1_7 
REMARK    4  A    between atoms: N1_7  and  C6_8 
REMARK    5  A    between atoms: C6_8  and  C7_9 
ROOT
HETATM    1  C3  UNL     1      24.277   3.231  49.960  1.00  0.00     0.066 A 
HETATM    2  C4  UNL     1      22.950   2.979  49.876  1.00  0.00     0.085 A 
HETATM    3  S1  UNL     1      22.648   1.674  51.235  1.00  0.00    -0.062 SA
HETATM    4  C5  UNL     1      24.478   1.765  51.635  1.00  0.00     0.167 A 
HETATM    5  N2  UNL     1      24.845   2.521  50.900  1.00  0.00    -0.224 NA
ENDROOT
BRANCH   1   6
HETATM    6  C2  UNL     1      24.775   4.209  49.015  1.00  0.00     0.032 C 
HETATM    7  C1  UNL     1      25.207   5.421  49.062  1.00  0.00     0.004 C 
BRANCH   7   8
HETATM    8  C13 UNL     1      25.427   6.448  50.063  1.00  0.00     0.027 C 
HETATM    9  C14 UNL     1      26.297   7.422  49.971  1.00  0.00     0.032 A 
HETATM   10  C15 UNL     1      27.098   7.414  48.699  1.00  0.00     0.107 A 
HETATM   11  N4  UNL     1      26.745   8.525  50.715  1.00  0.00    -0.283 N 
HETATM   12  C16 UNL     1      27.982   8.618  48.888  1.00  0.00     0.117 A 
HETATM   13  N3  UNL     1      27.749   9.193  50.011  1.00  0.00    -0.191 NA
HETATM   14  H16 UNL     1      26.279   8.662  51.629  1.00  0.00     0.189 HD
ENDBRANCH   7   8
ENDBRANCH   1   6
BRANCH   4  15
HETATM   15  N1  UNL     1      25.384   1.040  52.682  1.00  0.00    -0.365 N 
HETATM   16  H4  UNL     1      25.955   1.858  52.989  1.00  0.00     0.162 HD
BRANCH  15  17
HETATM   17  C6  UNL     1      25.513  -0.295  53.171  1.00  0.00     0.160 C 
BRANCH  17  18
HETATM   18  C7  UNL     1      26.991  -0.483  53.407  1.00  0.00    -0.041 A 
HETATM   19  C8  UNL     1      27.628  -1.597  52.909  1.00  0.00     0.009 A 
HETATM   20  C9  UNL     1      28.985  -1.830  53.090  1.00  0.00     0.001 A 
HETATM   21  C10 UNL     1      29.716  -0.900  53.800  1.00  0.00     0.000 A 
HETATM   22  C11 UNL     1      29.096   0.230  54.311  1.00  0.00     0.001 A 
HETATM   23  C12 UNL     1      27.745   0.432  54.112  1.00  0.00     0.009 A 
ENDBRANCH  17  18
ENDBRANCH  15  17
ENDBRANCH   4  15
TORSDOF 5
ENDMDL
