MODEL 1
REMARK VINA RESULT:      -7.6      0.000      0.000
REMARK  8 active torsions:
REMARK  status: ('A' for Active; 'I' for Inactive)
REMARK    1  A    between atoms: C2_2  and  C3_3 
REMARK    2  A    between atoms: C3_3  and  N1_4 
REMARK    3  A    between atoms: N1_4  and  C4_5 
REMARK    4  A    between atoms: C4_5  and  N2_6 
REMARK    5  A    between atoms: N2_6  and  C5_7 
REMARK    6  A    between atoms: N2_6  and  C12_15 
REMARK    7  A    between atoms: C5_7  and  C6_8 
REMARK    8  A    between atoms: C12_15  and  C13_16 
ROOT
HETATM    1  N2  UNL     1      25.450   0.861  51.896  1.00  0.00     0.110 N 
ENDROOT
BRANCH   1   2
HETATM    2  C4  UNL     1      25.396   2.350  51.534  1.00  0.00     0.395 C 
BRANCH   2   3
HETATM    3  N1  UNL     1      26.538   2.546  50.686  1.00  0.00    -0.368 N 
HETATM    4  H4  UNL     1      27.461   2.431  50.219  1.00  0.00     0.161 HD
BRANCH   3   5
HETATM    5  C3  UNL     1      26.162   3.710  49.986  1.00  0.00     0.136 C 
BRANCH   5   6
HETATM    6  C2  UNL     1      26.967   4.328  49.155  1.00  0.00    -0.138 C 
HETATM    7  C1  UNL     1      27.842   5.098  48.543  1.00  0.00     0.098 C 
ENDBRANCH   5   6
ENDBRANCH   3   5
ENDBRANCH   2   3
ENDBRANCH   1   2
BRANCH   1   8
HETATM    8  C5  UNL     1      24.771   0.909  53.175  1.00  0.00     0.313 C 
BRANCH   8   9
HETATM    9  C6  UNL     1      23.450   0.310  53.274  1.00  0.00    -0.030 A 
HETATM   10  C7  UNL     1      22.202   0.419  52.696  1.00  0.00     0.012 A 
HETATM   11  C8  UNL     1      21.094  -0.309  53.049  1.00  0.00     0.043 A 
HETATM   12  C9  UNL     1      21.185  -1.230  54.050  1.00  0.00     0.116 A 
HETATM   13  F1  UNL     1      20.047  -1.906  54.335  1.00  0.00    -0.206 F 
HETATM   14  C10 UNL     1      22.378  -1.407  54.678  1.00  0.00     0.043 A 
HETATM   15  C11 UNL     1      23.493  -0.648  54.294  1.00  0.00     0.012 A 
ENDBRANCH   8   9
ENDBRANCH   1   8
BRANCH   1  16
HETATM   16  C12 UNL     1      26.852   0.646  51.927  1.00  0.00     0.287 C 
BRANCH  16  17
HETATM   17  C13 UNL     1      27.531   0.063  53.077  1.00  0.00     0.065 A 
HETATM   18  C14 UNL     1      28.059  -1.269  53.087  1.00  0.00    -0.016 A 
HETATM   19  C15 UNL     1      29.355  -1.303  53.463  1.00  0.00    -0.003 A 
HETATM   20  C16 UNL     1      29.781   0.072  53.736  1.00  0.00     0.003 A 
HETATM   21  C17 UNL     1      28.735   0.857  53.515  1.00  0.00    -0.074 A 
HETATM   22  C18 UNL     1      28.611   2.317  53.630  1.00  0.00     0.044 C 
ENDBRANCH  16  17
ENDBRANCH   1  16
TORSDOF 8
ENDMDL
MODEL 2
REMARK VINA RESULT:      -7.6      2.472      5.679
REMARK  8 active torsions:
REMARK  status: ('A' for Active; 'I' for Inactive)
REMARK    1  A    between atoms: C2_2  and  C3_3 
REMARK    2  A    between atoms: C3_3  and  N1_4 
REMARK    3  A    between atoms: N1_4  and  C4_5 
REMARK    4  A    between atoms: C4_5  and  N2_6 
REMARK    5  A    between atoms: N2_6  and  C5_7 
REMARK    6  A    between atoms: N2_6  and  C12_15 
REMARK    7  A    between atoms: C5_7  and  C6_8 
REMARK    8  A    between atoms: C12_15  and  C13_16 
ROOT
HETATM    1  N2  UNL     1      25.024   1.568  52.647  1.00  0.00     0.110 N 
ENDROOT
BRANCH   1   2
HETATM    2  C4  UNL     1      24.825   2.297  51.313  1.00  0.00     0.395 C 
BRANCH   2   3
HETATM    3  N1  UNL     1      25.818   3.334  51.328  1.00  0.00    -0.368 N 
HETATM    4  H4  UNL     1      26.414   4.136  51.620  1.00  0.00     0.161 HD
BRANCH   3   5
HETATM    5  C3  UNL     1      26.421   3.153  50.067  1.00  0.00     0.136 C 
BRANCH   5   6
HETATM    6  C2  UNL     1      26.884   4.151  49.353  1.00  0.00    -0.138 C 
HETATM    7  C1  UNL     1      27.564   4.985  48.595  1.00  0.00     0.098 C 
ENDBRANCH   5   6
ENDBRANCH   3   5
ENDBRANCH   2   3
ENDBRANCH   1   2
BRANCH   1   8
HETATM    8  C5  UNL     1      25.797   0.436  52.178  1.00  0.00     0.313 C 
BRANCH   8   9
HETATM    9  C6  UNL     1      27.127   0.237  52.730  1.00  0.00    -0.030 A 
HETATM   10  C7  UNL     1      28.189   0.979  53.204  1.00  0.00     0.012 A 
HETATM   11  C8  UNL     1      29.380   0.470  53.653  1.00  0.00     0.043 A 
HETATM   12  C9  UNL     1      29.580  -0.878  53.648  1.00  0.00     0.116 A 
HETATM   13  F1  UNL     1      30.782  -1.300  54.108  1.00  0.00    -0.206 F 
HETATM   14  C10 UNL     1      28.587  -1.692  53.198  1.00  0.00     0.043 A 
HETATM   15  C11 UNL     1      27.379  -1.141  52.746  1.00  0.00     0.012 A 
ENDBRANCH   8   9
ENDBRANCH   1   8
BRANCH   1  16
HETATM   16  C12 UNL     1      23.677   1.312  53.013  1.00  0.00     0.287 C 
BRANCH  16  17
HETATM   17  C13 UNL     1      23.149  -0.037  53.167  1.00  0.00     0.065 A 
HETATM   18  C14 UNL     1      23.064  -0.710  54.429  1.00  0.00    -0.016 A 
HETATM   19  C15 UNL     1      21.824  -1.183  54.674  1.00  0.00    -0.003 A 
HETATM   20  C16 UNL     1      20.974  -0.834  53.533  1.00  0.00     0.003 A 
HETATM   21  C17 UNL     1      21.734  -0.176  52.666  1.00  0.00    -0.074 A 
HETATM   22  C18 UNL     1      21.389   0.406  51.361  1.00  0.00     0.044 C 
ENDBRANCH  16  17
ENDBRANCH   1  16
TORSDOF 8
ENDMDL
MODEL 3
REMARK VINA RESULT:      -7.4      2.935      6.021
REMARK  8 active torsions:
REMARK  status: ('A' for Active; 'I' for Inactive)
REMARK    1  A    between atoms: C2_2  and  C3_3 
REMARK    2  A    between atoms: C3_3  and  N1_4 
REMARK    3  A    between atoms: N1_4  and  C4_5 
REMARK    4  A    between atoms: C4_5  and  N2_6 
REMARK    5  A    between atoms: N2_6  and  C5_7 
REMARK    6  A    between atoms: N2_6  and  C12_15 
REMARK    7  A    between atoms: C5_7  and  C6_8 
REMARK    8  A    between atoms: C12_15  and  C13_16 
ROOT
HETATM    1  N2  UNL     1      24.725   1.700  52.813  1.00  0.00     0.110 N 
ENDROOT
BRANCH   1   2
HETATM    2  C4  UNL     1      24.484   3.035  52.099  1.00  0.00     0.395 C 
BRANCH   2   3
HETATM    3  N1  UNL     1      24.233   3.963  53.165  1.00  0.00    -0.368 N 
HETATM    4  H4  UNL     1      24.266   4.460  54.080  1.00  0.00     0.161 HD
BRANCH   3   5
HETATM    5  C3  UNL     1      23.257   4.795  52.581  1.00  0.00     0.136 C 
BRANCH   5   6
HETATM    6  C2  UNL     1      22.076   4.355  52.218  1.00  0.00    -0.138 C 
HETATM    7  C1  UNL     1      20.867   3.843  52.119  1.00  0.00     0.098 C 
ENDBRANCH   5   6
ENDBRANCH   3   5
ENDBRANCH   2   3
ENDBRANCH   1   2
BRANCH   1   8
HETATM    8  C5  UNL     1      25.770   1.169  51.963  1.00  0.00     0.313 C 
BRANCH   8   9
HETATM    9  C6  UNL     1      27.023   0.771  52.582  1.00  0.00    -0.030 A 
HETATM   10  C7  UNL     1      28.147   1.345  53.142  1.00  0.00     0.012 A 
HETATM   11  C8  UNL     1      29.227   0.663  53.640  1.00  0.00     0.043 A 
HETATM   12  C9  UNL     1      29.238  -0.700  53.602  1.00  0.00     0.116 A 
HETATM   13  F1  UNL     1      30.339  -1.297  54.115  1.00  0.00    -0.206 F 
HETATM   14  C10 UNL     1      28.171  -1.354  53.068  1.00  0.00     0.043 A 
HETATM   15  C11 UNL     1      27.081  -0.628  52.567  1.00  0.00     0.012 A 
ENDBRANCH   8   9
ENDBRANCH   1   8
BRANCH   1  16
HETATM   16  C12 UNL     1      23.443   1.102  52.696  1.00  0.00     0.287 C 
BRANCH  16  17
HETATM   17  C13 UNL     1      23.157  -0.240  53.186  1.00  0.00     0.065 A 
HETATM   18  C14 UNL     1      23.767  -0.798  54.357  1.00  0.00    -0.016 A 
HETATM   19  C15 UNL     1      22.856  -1.277  55.229  1.00  0.00    -0.003 A 
HETATM   20  C16 UNL     1      21.525  -1.054  54.660  1.00  0.00     0.003 A 
HETATM   21  C17 UNL     1      21.697  -0.459  53.486  1.00  0.00    -0.074 A 
HETATM   22  C18 UNL     1      20.701  -0.007  52.504  1.00  0.00     0.044 C 
ENDBRANCH  16  17
ENDBRANCH   1  16
TORSDOF 8
ENDMDL
MODEL 4
REMARK VINA RESULT:      -7.1      2.705      6.312
REMARK  8 active torsions:
REMARK  status: ('A' for Active; 'I' for Inactive)
REMARK    1  A    between atoms: C2_2  and  C3_3 
REMARK    2  A    between atoms: C3_3  and  N1_4 
REMARK    3  A    between atoms: N1_4  and  C4_5 
REMARK    4  A    between atoms: C4_5  and  N2_6 
REMARK    5  A    between atoms: N2_6  and  C5_7 
REMARK    6  A    between atoms: N2_6  and  C12_15 
REMARK    7  A    between atoms: C5_7  and  C6_8 
REMARK    8  A    between atoms: C12_15  and  C13_16 
ROOT
HETATM    1  N2  UNL     1      25.735   0.281  53.118  1.00  0.00     0.110 N 
ENDROOT
BRANCH   1   2
HETATM    2  C4  UNL     1      26.293   0.072  54.530  1.00  0.00     0.395 C 
BRANCH   2   3
HETATM    3  N1  UNL     1      27.323   1.065  54.651  1.00  0.00    -0.368 N 
HETATM    4  H4  UNL     1      27.833   1.973  54.660  1.00  0.00     0.161 HD
BRANCH   3   5
HETATM    5  C3  UNL     1      28.430   0.270  55.010  1.00  0.00     0.136 C 
BRANCH   5   6
HETATM    6  C2  UNL     1      29.050  -0.508  54.156  1.00  0.00    -0.138 C 
HETATM    7  C1  UNL     1      29.859  -1.085  53.292  1.00  0.00     0.098 C 
ENDBRANCH   5   6
ENDBRANCH   3   5
ENDBRANCH   2   3
ENDBRANCH   1   2
BRANCH   1   8
HETATM    8  C5  UNL     1      25.552   1.717  53.151  1.00  0.00     0.313 C 
BRANCH   8   9
HETATM    9  C6  UNL     1      25.685   2.455  51.906  1.00  0.00    -0.030 A 
HETATM   10  C7  UNL     1      26.562   2.581  50.848  1.00  0.00     0.012 A 
HETATM   11  C8  UNL     1      26.409   3.430  49.783  1.00  0.00     0.043 A 
HETATM   12  C9  UNL     1      25.314   4.239  49.719  1.00  0.00     0.116 A 
HETATM   13  F1  UNL     1      25.237   5.045  48.634  1.00  0.00    -0.206 F 
HETATM   14  C10 UNL     1      24.393   4.184  50.718  1.00  0.00     0.043 A 
HETATM   15  C11 UNL     1      24.577   3.304  51.795  1.00  0.00     0.012 A 
ENDBRANCH   8   9
ENDBRANCH   1   8
BRANCH   1  16
HETATM   16  C12 UNL     1      24.560  -0.513  53.177  1.00  0.00     0.287 C 
BRANCH  16  17
HETATM   17  C13 UNL     1      23.247   0.051  53.458  1.00  0.00     0.065 A 
HETATM   18  C14 UNL     1      22.308   0.408  52.435  1.00  0.00    -0.016 A 
HETATM   19  C15 UNL     1      21.097  -0.152  52.633  1.00  0.00    -0.003 A 
HETATM   20  C16 UNL     1      21.165  -0.953  53.859  1.00  0.00     0.003 A 
HETATM   21  C17 UNL     1      22.399  -0.837  54.333  1.00  0.00    -0.074 A 
HETATM   22  C18 UNL     1      23.009  -1.434  55.529  1.00  0.00     0.044 C 
ENDBRANCH  16  17
ENDBRANCH   1  16
TORSDOF 8
ENDMDL
MODEL 5
REMARK VINA RESULT:      -7.0      3.072      6.325
REMARK  8 active torsions:
REMARK  status: ('A' for Active; 'I' for Inactive)
REMARK    1  A    between atoms: C2_2  and  C3_3 
REMARK    2  A    between atoms: C3_3  and  N1_4 
REMARK    3  A    between atoms: N1_4  and  C4_5 
REMARK    4  A    between atoms: C4_5  and  N2_6 
REMARK    5  A    between atoms: N2_6  and  C5_7 
REMARK    6  A    between atoms: N2_6  and  C12_15 
REMARK    7  A    between atoms: C5_7  and  C6_8 
REMARK    8  A    between atoms: C12_15  and  C13_16 
ROOT
HETATM    1  N2  UNL     1      24.837   2.808  52.443  1.00  0.00     0.110 N 
ENDROOT
BRANCH   1   2
HETATM    2  C4  UNL     1      23.455   2.248  52.802  1.00  0.00     0.395 C 
BRANCH   2   3
HETATM    3  N1  UNL     1      23.377   1.013  52.074  1.00  0.00    -0.368 N 
HETATM    4  H4  UNL     1      23.544   0.257  51.378  1.00  0.00     0.161 HD
BRANCH   3   5
HETATM    5  C3  UNL     1      22.373   0.334  52.793  1.00  0.00     0.136 C 
BRANCH   5   6
HETATM    6  C2  UNL     1      22.635  -0.426  53.830  1.00  0.00    -0.138 C 
HETATM    7  C1  UNL     1      22.632  -1.147  54.931  1.00  0.00     0.098 C 
ENDBRANCH   5   6
ENDBRANCH   3   5
ENDBRANCH   2   3
ENDBRANCH   1   2
BRANCH   1   8
HETATM    8  C5  UNL     1      24.793   2.628  51.007  1.00  0.00     0.313 C 
BRANCH   8   9
HETATM    9  C6  UNL     1      25.603   3.508  50.180  1.00  0.00    -0.030 A 
HETATM   10  C7  UNL     1      26.819   3.511  49.528  1.00  0.00     0.012 A 
HETATM   11  C8  UNL     1      27.340   4.561  48.817  1.00  0.00     0.043 A 
HETATM   12  C9  UNL     1      26.633   5.723  48.717  1.00  0.00     0.116 A 
HETATM   13  F1  UNL     1      27.216   6.709  47.996  1.00  0.00    -0.206 F 
HETATM   14  C10 UNL     1      25.421   5.813  49.329  1.00  0.00     0.043 A 
HETATM   15  C11 UNL     1      24.915   4.720  50.048  1.00  0.00     0.012 A 
ENDBRANCH   8   9
ENDBRANCH   1   8
BRANCH   1  16
HETATM   16  C12 UNL     1      25.678   1.926  53.171  1.00  0.00     0.287 C 
BRANCH  16  17
HETATM   17  C13 UNL     1      27.061   1.672  52.794  1.00  0.00     0.065 A 
HETATM   18  C14 UNL     1      28.180   2.302  53.431  1.00  0.00    -0.016 A 
HETATM   19  C15 UNL     1      29.095   1.408  53.860  1.00  0.00    -0.003 A 
HETATM   20  C16 UNL     1      28.612   0.068  53.516  1.00  0.00     0.003 A 
HETATM   21  C17 UNL     1      27.444   0.219  52.903  1.00  0.00    -0.074 A 
HETATM   22  C18 UNL     1      26.529  -0.793  52.356  1.00  0.00     0.044 C 
ENDBRANCH  16  17
ENDBRANCH   1  16
TORSDOF 8
ENDMDL
MODEL 6
REMARK VINA RESULT:      -7.0      2.745      5.664
REMARK  8 active torsions:
REMARK  status: ('A' for Active; 'I' for Inactive)
REMARK    1  A    between atoms: C2_2  and  C3_3 
REMARK    2  A    between atoms: C3_3  and  N1_4 
REMARK    3  A    between atoms: N1_4  and  C4_5 
REMARK    4  A    between atoms: C4_5  and  N2_6 
REMARK    5  A    between atoms: N2_6  and  C5_7 
REMARK    6  A    between atoms: N2_6  and  C12_15 
REMARK    7  A    between atoms: C5_7  and  C6_8 
REMARK    8  A    between atoms: C12_15  and  C13_16 
ROOT
HETATM    1  N2  UNL     1      24.781   2.336  52.558  1.00  0.00     0.110 N 
ENDROOT
BRANCH   1   2
HETATM    2  C4  UNL     1      24.245   3.357  51.547  1.00  0.00     0.395 C 
BRANCH   2   3
HETATM    3  N1  UNL     1      24.846   2.968  50.302  1.00  0.00    -0.368 N 
HETATM    4  H4  UNL     1      25.490   2.559  49.594  1.00  0.00     0.161 HD
BRANCH   3   5
HETATM    5  C3  UNL     1      23.938   3.519  49.376  1.00  0.00     0.136 C 
BRANCH   5   6
HETATM    6  C2  UNL     1      23.098   2.785  48.686  1.00  0.00    -0.138 C 
HETATM    7  C1  UNL     1      22.389   2.152  47.775  1.00  0.00     0.098 C 
ENDBRANCH   5   6
ENDBRANCH   3   5
ENDBRANCH   2   3
ENDBRANCH   1   2
BRANCH   1   8
HETATM    8  C5  UNL     1      25.580   1.524  51.664  1.00  0.00     0.313 C 
BRANCH   8   9
HETATM    9  C6  UNL     1      26.610   0.678  52.242  1.00  0.00    -0.030 A 
HETATM   10  C7  UNL     1      26.888  -0.662  52.426  1.00  0.00     0.012 A 
HETATM   11  C8  UNL     1      27.989  -1.166  53.069  1.00  0.00     0.043 A 
HETATM   12  C9  UNL     1      28.916  -0.312  53.588  1.00  0.00     0.116 A 
HETATM   13  F1  UNL     1      29.974  -0.890  54.204  1.00  0.00    -0.206 F 
HETATM   14  C10 UNL     1      28.727   1.029  53.454  1.00  0.00     0.043 A 
HETATM   15  C11 UNL     1      27.591   1.514  52.790  1.00  0.00     0.012 A 
ENDBRANCH   8   9
ENDBRANCH   1   8
BRANCH   1  16
HETATM   16  C12 UNL     1      23.568   1.765  53.025  1.00  0.00     0.287 C 
BRANCH  16  17
HETATM   17  C13 UNL     1      23.316   0.331  52.998  1.00  0.00     0.065 A 
HETATM   18  C14 UNL     1      23.394  -0.504  54.161  1.00  0.00    -0.016 A 
HETATM   19  C15 UNL     1      22.276  -1.238  54.339  1.00  0.00    -0.003 A 
HETATM   20  C16 UNL     1      21.346  -0.917  53.253  1.00  0.00     0.003 A 
HETATM   21  C17 UNL     1      21.943  -0.016  52.482  1.00  0.00    -0.074 A 
HETATM   22  C18 UNL     1      21.459   0.652  51.265  1.00  0.00     0.044 C 
ENDBRANCH  16  17
ENDBRANCH   1  16
TORSDOF 8
ENDMDL
MODEL 7
REMARK VINA RESULT:      -6.9      1.301      4.453
REMARK  8 active torsions:
REMARK  status: ('A' for Active; 'I' for Inactive)
REMARK    1  A    between atoms: C2_2  and  C3_3 
REMARK    2  A    between atoms: C3_3  and  N1_4 
REMARK    3  A    between atoms: N1_4  and  C4_5 
REMARK    4  A    between atoms: C4_5  and  N2_6 
REMARK    5  A    between atoms: N2_6  and  C5_7 
REMARK    6  A    between atoms: N2_6  and  C12_15 
REMARK    7  A    between atoms: C5_7  and  C6_8 
REMARK    8  A    between atoms: C12_15  and  C13_16 
ROOT
HETATM    1  N2  UNL     1      25.235   2.034  52.849  1.00  0.00     0.110 N 
ENDROOT
BRANCH   1   2
HETATM    2  C4  UNL     1      26.454   2.164  53.770  1.00  0.00     0.395 C 
BRANCH   2   3
HETATM    3  N1  UNL     1      27.536   2.475  52.878  1.00  0.00    -0.368 N 
HETATM    4  H4  UNL     1      28.082   2.768  52.042  1.00  0.00     0.161 HD
BRANCH   3   5
HETATM    5  C3  UNL     1      28.651   2.180  53.688  1.00  0.00     0.136 C 
BRANCH   5   6
HETATM    6  C2  UNL     1      29.144   0.970  53.803  1.00  0.00    -0.138 C 
HETATM    7  C1  UNL     1      29.652  -0.234  53.643  1.00  0.00     0.098 C 
ENDBRANCH   5   6
ENDBRANCH   3   5
ENDBRANCH   2   3
ENDBRANCH   1   2
BRANCH   1   8
HETATM    8  C5  UNL     1      25.058   0.598  52.901  1.00  0.00     0.313 C 
BRANCH   8   9
HETATM    9  C6  UNL     1      23.716   0.077  53.102  1.00  0.00    -0.030 A 
HETATM   10  C7  UNL     1      22.466   0.145  52.521  1.00  0.00     0.012 A 
HETATM   11  C8  UNL     1      21.334  -0.471  52.991  1.00  0.00     0.043 A 
HETATM   12  C9  UNL     1      21.400  -1.224  54.125  1.00  0.00     0.116 A 
HETATM   13  F1  UNL     1      20.240  -1.799  54.521  1.00  0.00    -0.206 F 
HETATM   14  C10 UNL     1      22.593  -1.349  54.768  1.00  0.00     0.043 A 
HETATM   15  C11 UNL     1      23.733  -0.708  54.261  1.00  0.00     0.012 A 
ENDBRANCH   8   9
ENDBRANCH   1   8
BRANCH   1  16
HETATM   16  C12 UNL     1      25.755   2.570  51.643  1.00  0.00     0.287 C 
BRANCH  16  17
HETATM   17  C13 UNL     1      24.936   2.768  50.455  1.00  0.00     0.065 A 
HETATM   18  C14 UNL     1      23.526   3.026  50.505  1.00  0.00    -0.016 A 
HETATM   19  C15 UNL     1      23.182   4.127  49.806  1.00  0.00    -0.003 A 
HETATM   20  C16 UNL     1      24.403   4.691  49.223  1.00  0.00     0.003 A 
HETATM   21  C17 UNL     1      25.410   3.911  49.595  1.00  0.00    -0.074 A 
HETATM   22  C18 UNL     1      26.846   4.019  49.298  1.00  0.00     0.044 C 
ENDBRANCH  16  17
ENDBRANCH   1  16
TORSDOF 8
ENDMDL
MODEL 8
REMARK VINA RESULT:      -6.9      2.574      6.161
REMARK  8 active torsions:
REMARK  status: ('A' for Active; 'I' for Inactive)
REMARK    1  A    between atoms: C2_2  and  C3_3 
REMARK    2  A    between atoms: C3_3  and  N1_4 
REMARK    3  A    between atoms: N1_4  and  C4_5 
REMARK    4  A    between atoms: C4_5  and  N2_6 
REMARK    5  A    between atoms: N2_6  and  C5_7 
REMARK    6  A    between atoms: N2_6  and  C12_15 
REMARK    7  A    between atoms: C5_7  and  C6_8 
REMARK    8  A    between atoms: C12_15  and  C13_16 
ROOT
HETATM    1  N2  UNL     1      23.961   1.343  51.699  1.00  0.00     0.110 N 
ENDROOT
BRANCH   1   2
HETATM    2  C4  UNL     1      22.560   1.536  52.293  1.00  0.00     0.395 C 
BRANCH   2   3
HETATM    3  N1  UNL     1      21.856   0.339  51.929  1.00  0.00    -0.368 N 
HETATM    4  H4  UNL     1      21.462  -0.456  51.385  1.00  0.00     0.161 HD
BRANCH   3   5
HETATM    5  C3  UNL     1      21.300  -0.038  53.167  1.00  0.00     0.136 C 
BRANCH   5   6
HETATM    6  C2  UNL     1      21.955  -0.754  54.050  1.00  0.00    -0.138 C 
HETATM    7  C1  UNL     1      22.655  -1.229  55.058  1.00  0.00     0.098 C 
ENDBRANCH   5   6
ENDBRANCH   3   5
ENDBRANCH   2   3
ENDBRANCH   1   2
BRANCH   1   8
HETATM    8  C5  UNL     1      24.731   1.329  52.925  1.00  0.00     0.313 C 
BRANCH   8   9
HETATM    9  C6  UNL     1      25.922   0.498  52.978  1.00  0.00    -0.030 A 
HETATM   10  C7  UNL     1      26.328  -0.779  52.645  1.00  0.00     0.012 A 
HETATM   11  C8  UNL     1      27.578  -1.300  52.860  1.00  0.00     0.043 A 
HETATM   12  C9  UNL     1      28.536  -0.529  53.448  1.00  0.00     0.116 A 
HETATM   13  F1  UNL     1      29.743  -1.117  53.622  1.00  0.00    -0.206 F 
HETATM   14  C10 UNL     1      28.228   0.745  53.811  1.00  0.00     0.043 A 
HETATM   15  C11 UNL     1      26.940   1.249  53.578  1.00  0.00     0.012 A 
ENDBRANCH   8   9
ENDBRANCH   1   8
BRANCH   1  16
HETATM   16  C12 UNL     1      24.069   2.504  50.891  1.00  0.00     0.287 C 
BRANCH  16  17
HETATM   17  C13 UNL     1      25.271   3.327  50.858  1.00  0.00     0.065 A 
HETATM   18  C14 UNL     1      26.443   2.978  50.111  1.00  0.00    -0.016 A 
HETATM   19  C15 UNL     1      26.846   3.976  49.296  1.00  0.00    -0.003 A 
HETATM   20  C16 UNL     1      25.918   5.097  49.463  1.00  0.00     0.003 A 
HETATM   21  C17 UNL     1      25.014   4.726  50.361  1.00  0.00    -0.074 A 
HETATM   22  C18 UNL     1      23.857   5.461  50.893  1.00  0.00     0.044 C 
ENDBRANCH  16  17
ENDBRANCH   1  16
TORSDOF 8
ENDMDL
MODEL 9
REMARK VINA RESULT:      -6.9      1.910      4.840
REMARK  8 active torsions:
REMARK  status: ('A' for Active; 'I' for Inactive)
REMARK    1  A    between atoms: C2_2  and  C3_3 
REMARK    2  A    between atoms: C3_3  and  N1_4 
REMARK    3  A    between atoms: N1_4  and  C4_5 
REMARK    4  A    between atoms: C4_5  and  N2_6 
REMARK    5  A    between atoms: N2_6  and  C5_7 
REMARK    6  A    between atoms: N2_6  and  C12_15 
REMARK    7  A    between atoms: C5_7  and  C6_8 
REMARK    8  A    between atoms: C12_15  and  C13_16 
ROOT
HETATM    1  N2  UNL     1      25.750   2.228  52.252  1.00  0.00     0.110 N 
ENDROOT
BRANCH   1   2
HETATM    2  C4  UNL     1      27.273   2.389  52.315  1.00  0.00     0.395 C 
BRANCH   2   3
HETATM    3  N1  UNL     1      27.549   2.576  53.712  1.00  0.00    -0.368 N 
HETATM    4  H4  UNL     1      27.467   2.844  54.714  1.00  0.00     0.161 HD
BRANCH   3   5
HETATM    5  C3  UNL     1      28.828   1.993  53.818  1.00  0.00     0.136 C 
BRANCH   5   6
HETATM    6  C2  UNL     1      29.035   0.707  53.668  1.00  0.00    -0.138 C 
HETATM    7  C1  UNL     1      29.410  -0.553  53.734  1.00  0.00     0.098 C 
ENDBRANCH   5   6
ENDBRANCH   3   5
ENDBRANCH   2   3
ENDBRANCH   1   2
BRANCH   1   8
HETATM    8  C5  UNL     1      25.674   0.784  52.164  1.00  0.00     0.313 C 
BRANCH   8   9
HETATM    9  C6  UNL     1      25.043   0.062  53.256  1.00  0.00    -0.030 A 
HETATM   10  C7  UNL     1      25.386  -0.566  54.436  1.00  0.00     0.012 A 
HETATM   11  C8  UNL     1      24.518  -1.215  55.276  1.00  0.00     0.043 A 
HETATM   12  C9  UNL     1      23.193  -1.272  54.960  1.00  0.00     0.116 A 
HETATM   13  F1  UNL     1      22.403  -1.929  55.842  1.00  0.00    -0.206 F 
HETATM   14  C10 UNL     1      22.761  -0.680  53.814  1.00  0.00     0.043 A 
HETATM   15  C11 UNL     1      23.674  -0.023  52.976  1.00  0.00     0.012 A 
ENDBRANCH   8   9
ENDBRANCH   1   8
BRANCH   1  16
HETATM   16  C12 UNL     1      25.455   2.955  51.069  1.00  0.00     0.287 C 
BRANCH  16  17
HETATM   17  C13 UNL     1      24.092   3.255  50.653  1.00  0.00     0.065 A 
HETATM   18  C14 UNL     1      23.260   2.322  49.951  1.00  0.00    -0.016 A 
HETATM   19  C15 UNL     1      22.063   2.151  50.551  1.00  0.00    -0.003 A 
HETATM   20  C16 UNL     1      22.031   3.001  51.743  1.00  0.00     0.003 A 
HETATM   21  C17 UNL     1      23.195   3.636  51.803  1.00  0.00    -0.074 A 
HETATM   22  C18 UNL     1      23.693   4.601  52.794  1.00  0.00     0.044 C 
ENDBRANCH  16  17
ENDBRANCH   1  16
TORSDOF 8
ENDMDL
