MODEL 1
REMARK VINA RESULT:      -7.0      0.000      0.000
REMARK  6 active torsions:
REMARK  status: ('A' for Active; 'I' for Inactive)
REMARK    1  A    between atoms: O1_2  and  C2_3 
REMARK    2  A    between atoms: C11_12  and  O2_13 
REMARK    3  A    between atoms: O2_13  and  C12_14 
REMARK    4  A    between atoms: C12_14  and  C13_15 
REMARK    5  A    between atoms: C13_15  and  C14_16 
REMARK    6  A    between atoms: C14_16  and  N1_17 
ROOT
HETATM    1  C2  UNL     1      24.934   1.404  51.951  1.00  0.00     0.101 C 
HETATM    2  C3  UNL     1      26.193   1.718  51.544  1.00  0.00     0.047 C 
HETATM    3  C4  UNL     1      27.029   1.184  52.640  1.00  0.00    -0.046 A 
HETATM    4  C5  UNL     1      28.241   1.521  53.181  1.00  0.00    -0.013 A 
HETATM    5  C6  UNL     1      28.007   0.383  54.153  1.00  0.00     0.021 A 
HETATM    6  C7  UNL     1      29.198  -0.554  54.154  1.00  0.00     0.015 C 
HETATM    7  C8  UNL     1      26.813   0.004  53.480  1.00  0.00     0.010 A 
HETATM    8  C9  UNL     1      27.118  -1.289  52.545  1.00  0.00     0.025 C 
HETATM    9  C10 UNL     1      25.428  -0.097  53.867  1.00  0.00     0.027 C 
HETATM   10  C11 UNL     1      24.531   0.567  53.089  1.00  0.00     0.099 C 
ENDROOT
BRANCH  10  11
HETATM   11  O2  UNL     1      23.268   0.322  53.540  1.00  0.00    -0.348 OA
BRANCH  11  12
HETATM   12  C12 UNL     1      22.753  -0.850  54.089  1.00  0.00     0.177 C 
BRANCH  12  13
HETATM   13  C13 UNL     1      21.545  -0.479  54.935  1.00  0.00     0.046 C 
BRANCH  13  14
HETATM   14  C14 UNL     1      20.603   0.327  54.091  1.00  0.00     0.119 C 
BRANCH  14  15
HETATM   15  N1  UNL     1      19.993  -0.422  53.027  1.00  0.00    -0.408 N 
HETATM   16  C15 UNL     1      19.026  -1.377  53.467  1.00  0.00     0.143 C 
HETATM   17  C16 UNL     1      17.608  -1.096  53.111  1.00  0.00     0.187 C 
HETATM   18  O3  UNL     1      17.507  -0.782  51.741  1.00  0.00    -0.388 OA
HETATM   19  C17 UNL     1      18.196   0.399  51.562  1.00  0.00     0.187 C 
HETATM   20  C18 UNL     1      19.665   0.294  51.853  1.00  0.00     0.143 C 
ENDBRANCH  14  15
ENDBRANCH  13  14
ENDBRANCH  12  13
ENDBRANCH  11  12
ENDBRANCH  10  11
BRANCH   1  21
HETATM   21  O1  UNL     1      23.782   1.772  51.266  1.00  0.00    -0.353 OA
HETATM   22  C1  UNL     1      23.485   3.088  50.864  1.00  0.00     0.210 C 
ENDBRANCH   1  21
TORSDOF 6
ENDMDL
MODEL 2
REMARK VINA RESULT:      -6.7      3.100      6.901
REMARK  6 active torsions:
REMARK  status: ('A' for Active; 'I' for Inactive)
REMARK    1  A    between atoms: O1_2  and  C2_3 
REMARK    2  A    between atoms: C11_12  and  O2_13 
REMARK    3  A    between atoms: O2_13  and  C12_14 
REMARK    4  A    between atoms: C12_14  and  C13_15 
REMARK    5  A    between atoms: C13_15  and  C14_16 
REMARK    6  A    between atoms: C14_16  and  N1_17 
ROOT
HETATM    1  C2  UNL     1      24.111   3.031  50.947  1.00  0.00     0.101 C 
HETATM    2  C3  UNL     1      23.247   2.701  49.951  1.00  0.00     0.047 C 
HETATM    3  C4  UNL     1      22.370   1.705  50.602  1.00  0.00    -0.046 A 
HETATM    4  C5  UNL     1      21.651   0.623  50.168  1.00  0.00    -0.013 A 
HETATM    5  C6  UNL     1      21.264   0.430  51.620  1.00  0.00     0.021 A 
HETATM    6  C7  UNL     1      19.757   0.337  51.750  1.00  0.00     0.015 C 
HETATM    7  C8  UNL     1      21.931   1.627  51.997  1.00  0.00     0.010 A 
HETATM    8  C9  UNL     1      20.832   2.806  52.199  1.00  0.00     0.025 C 
HETATM    9  C10 UNL     1      23.020   1.935  52.890  1.00  0.00     0.027 C 
HETATM   10  C11 UNL     1      24.054   2.646  52.363  1.00  0.00     0.099 C 
ENDROOT
BRANCH  10  11
HETATM   11  O2  UNL     1      24.967   2.913  53.340  1.00  0.00    -0.348 OA
BRANCH  11  12
HETATM   12  C12 UNL     1      25.882   2.050  53.936  1.00  0.00     0.177 C 
BRANCH  12  13
HETATM   13  C13 UNL     1      27.223   2.238  53.245  1.00  0.00     0.046 C 
BRANCH  13  14
HETATM   14  C14 UNL     1      27.568   0.969  52.524  1.00  0.00     0.119 C 
BRANCH  14  15
HETATM   15  N1  UNL     1      27.623  -0.186  53.378  1.00  0.00    -0.408 N 
HETATM   16  C15 UNL     1      26.750  -1.245  52.982  1.00  0.00     0.143 C 
HETATM   17  C16 UNL     1      27.400  -2.484  52.474  1.00  0.00     0.187 C 
HETATM   18  O3  UNL     1      28.417  -2.894  53.359  1.00  0.00    -0.388 OA
HETATM   19  C17 UNL     1      29.379  -1.908  53.326  1.00  0.00     0.187 C 
HETATM   20  C18 UNL     1      28.903  -0.578  53.835  1.00  0.00     0.143 C 
ENDBRANCH  14  15
ENDBRANCH  13  14
ENDBRANCH  12  13
ENDBRANCH  11  12
ENDBRANCH  10  11
BRANCH   1  21
HETATM   21  O1  UNL     1      25.184   3.901  50.787  1.00  0.00    -0.353 OA
HETATM   22  C1  UNL     1      25.910   4.054  49.591  1.00  0.00     0.210 C 
ENDBRANCH   1  21
TORSDOF 6
ENDMDL
MODEL 3
REMARK VINA RESULT:      -6.7      5.271      8.659
REMARK  6 active torsions:
REMARK  status: ('A' for Active; 'I' for Inactive)
REMARK    1  A    between atoms: O1_2  and  C2_3 
REMARK    2  A    between atoms: C11_12  and  O2_13 
REMARK    3  A    between atoms: O2_13  and  C12_14 
REMARK    4  A    between atoms: C12_14  and  C13_15 
REMARK    5  A    between atoms: C13_15  and  C14_16 
REMARK    6  A    between atoms: C14_16  and  N1_17 
ROOT
HETATM    1  C2  UNL     1      24.470   3.172  51.842  1.00  0.00     0.101 C 
HETATM    2  C3  UNL     1      24.218   2.287  52.842  1.00  0.00     0.047 C 
HETATM    3  C4  UNL     1      25.228   1.234  52.603  1.00  0.00    -0.046 A 
HETATM    4  C5  UNL     1      25.290  -0.114  52.836  1.00  0.00    -0.013 A 
HETATM    5  C6  UNL     1      26.655  -0.059  52.181  1.00  0.00     0.021 A 
HETATM    6  C7  UNL     1      27.693  -0.691  53.086  1.00  0.00     0.015 C 
HETATM    7  C8  UNL     1      26.586   1.357  52.069  1.00  0.00     0.010 A 
HETATM    8  C9  UNL     1      27.484   2.026  53.246  1.00  0.00     0.025 C 
HETATM    9  C10 UNL     1      26.617   2.283  50.965  1.00  0.00     0.027 C 
HETATM   10  C11 UNL     1      25.593   3.176  50.894  1.00  0.00     0.099 C 
ENDROOT
BRANCH  10  11
HETATM   11  O2  UNL     1      25.797   4.020  49.843  1.00  0.00    -0.348 OA
BRANCH  11  12
HETATM   12  C12 UNL     1      26.976   4.273  49.147  1.00  0.00     0.177 C 
BRANCH  12  13
HETATM   13  C13 UNL     1      26.941   5.719  48.677  1.00  0.00     0.046 C 
BRANCH  13  14
HETATM   14  C14 UNL     1      28.324   6.111  48.247  1.00  0.00     0.119 C 
BRANCH  14  15
HETATM   15  N1  UNL     1      28.483   7.522  48.022  1.00  0.00    -0.408 N 
HETATM   16  C15 UNL     1      27.480   8.327  48.644  1.00  0.00     0.143 C 
HETATM   17  C16 UNL     1      27.928   9.189  49.772  1.00  0.00     0.187 C 
HETATM   18  O3  UNL     1      29.080   9.910  49.401  1.00  0.00    -0.388 OA
HETATM   19  C17 UNL     1      30.074   8.977  49.204  1.00  0.00     0.187 C 
HETATM   20  C18 UNL     1      29.802   8.028  48.073  1.00  0.00     0.143 C 
ENDBRANCH  14  15
ENDBRANCH  13  14
ENDBRANCH  12  13
ENDBRANCH  11  12
ENDBRANCH  10  11
BRANCH   1  21
HETATM   21  O1  UNL     1      23.715   4.316  51.608  1.00  0.00    -0.353 OA
HETATM   22  C1  UNL     1      22.748   4.822  52.496  1.00  0.00     0.210 C 
ENDBRANCH   1  21
TORSDOF 6
ENDMDL
MODEL 4
REMARK VINA RESULT:      -6.6      2.863      6.106
REMARK  6 active torsions:
REMARK  status: ('A' for Active; 'I' for Inactive)
REMARK    1  A    between atoms: O1_2  and  C2_3 
REMARK    2  A    between atoms: C11_12  and  O2_13 
REMARK    3  A    between atoms: O2_13  and  C12_14 
REMARK    4  A    between atoms: C12_14  and  C13_15 
REMARK    5  A    between atoms: C13_15  and  C14_16 
REMARK    6  A    between atoms: C14_16  and  N1_17 
ROOT
HETATM    1  C2  UNL     1      23.243   0.372  52.993  1.00  0.00     0.101 C 
HETATM    2  C3  UNL     1      23.905  -0.571  53.714  1.00  0.00     0.047 C 
HETATM    3  C4  UNL     1      25.284  -0.466  53.192  1.00  0.00    -0.046 A 
HETATM    4  C5  UNL     1      26.330  -1.339  53.046  1.00  0.00    -0.013 A 
HETATM    5  C6  UNL     1      27.078  -0.176  52.426  1.00  0.00     0.021 A 
HETATM    6  C7  UNL     1      28.412   0.015  53.120  1.00  0.00     0.015 C 
HETATM    7  C8  UNL     1      26.004   0.714  52.707  1.00  0.00     0.010 A 
HETATM    8  C9  UNL     1      26.376   1.596  54.020  1.00  0.00     0.025 C 
HETATM    9  C10 UNL     1      25.142   1.539  51.898  1.00  0.00     0.027 C 
HETATM   10  C11 UNL     1      23.803   1.376  52.079  1.00  0.00     0.099 C 
ENDROOT
BRANCH  10  11
HETATM   11  O2  UNL     1      23.128   2.266  51.298  1.00  0.00    -0.348 OA
BRANCH  11  12
HETATM   12  C12 UNL     1      22.837   2.186  49.939  1.00  0.00     0.177 C 
BRANCH  12  13
HETATM   13  C13 UNL     1      23.425   3.414  49.261  1.00  0.00     0.046 C 
BRANCH  13  14
HETATM   14  C14 UNL     1      23.151   4.609  50.125  1.00  0.00     0.119 C 
BRANCH  14  15
HETATM   15  N1  UNL     1      24.337   5.240  50.635  1.00  0.00    -0.408 N 
HETATM   16  C15 UNL     1      25.518   4.951  49.885  1.00  0.00     0.143 C 
HETATM   17  C16 UNL     1      26.113   6.085  49.126  1.00  0.00     0.187 C 
HETATM   18  O3  UNL     1      26.237   7.214  49.960  1.00  0.00    -0.388 OA
HETATM   19  C17 UNL     1      24.954   7.595  50.288  1.00  0.00     0.187 C 
HETATM   20  C18 UNL     1      24.202   6.572  51.089  1.00  0.00     0.143 C 
ENDBRANCH  14  15
ENDBRANCH  13  14
ENDBRANCH  12  13
ENDBRANCH  11  12
ENDBRANCH  10  11
BRANCH   1  21
HETATM   21  O1  UNL     1      21.874   0.600  53.085  1.00  0.00    -0.353 OA
HETATM   22  C1  UNL     1      21.084   0.245  54.194  1.00  0.00     0.210 C 
ENDBRANCH   1  21
TORSDOF 6
ENDMDL
MODEL 5
REMARK VINA RESULT:      -6.6      2.463      4.306
REMARK  6 active torsions:
REMARK  status: ('A' for Active; 'I' for Inactive)
REMARK    1  A    between atoms: O1_2  and  C2_3 
REMARK    2  A    between atoms: C11_12  and  O2_13 
REMARK    3  A    between atoms: O2_13  and  C12_14 
REMARK    4  A    between atoms: C12_14  and  C13_15 
REMARK    5  A    between atoms: C13_15  and  C14_16 
REMARK    6  A    between atoms: C14_16  and  N1_17 
ROOT
HETATM    1  C2  UNL     1      23.693   0.605  53.287  1.00  0.00     0.101 C 
HETATM    2  C3  UNL     1      24.106  -0.690  53.286  1.00  0.00     0.047 C 
HETATM    3  C4  UNL     1      25.558  -0.565  53.038  1.00  0.00    -0.046 A 
HETATM    4  C5  UNL     1      26.505  -1.353  52.439  1.00  0.00    -0.013 A 
HETATM    5  C6  UNL     1      27.479  -0.233  52.746  1.00  0.00     0.021 A 
HETATM    6  C7  UNL     1      28.684  -0.779  53.485  1.00  0.00     0.015 C 
HETATM    7  C8  UNL     1      26.483   0.489  53.458  1.00  0.00     0.010 A 
HETATM    8  C9  UNL     1      26.718   0.286  55.053  1.00  0.00     0.025 C 
HETATM    9  C10 UNL     1      25.877   1.788  53.303  1.00  0.00     0.027 C 
HETATM   10  C11 UNL     1      24.517   1.821  53.254  1.00  0.00     0.099 C 
ENDROOT
BRANCH  10  11
HETATM   11  O2  UNL     1      24.096   3.115  53.174  1.00  0.00    -0.348 OA
BRANCH  11  12
HETATM   12  C12 UNL     1      23.919   3.904  52.041  1.00  0.00     0.177 C 
BRANCH  12  13
HETATM   13  C13 UNL     1      22.487   4.416  52.044  1.00  0.00     0.046 C 
BRANCH  13  14
HETATM   14  C14 UNL     1      21.739   3.738  50.935  1.00  0.00     0.119 C 
BRANCH  14  15
HETATM   15  N1  UNL     1      22.585   3.214  49.899  1.00  0.00    -0.408 N 
HETATM   16  C15 UNL     1      22.426   1.812  49.672  1.00  0.00     0.143 C 
HETATM   17  C16 UNL     1      21.815   1.418  48.373  1.00  0.00     0.187 C 
HETATM   18  O3  UNL     1      22.453   2.093  47.314  1.00  0.00    -0.388 OA
HETATM   19  C17 UNL     1      22.176   3.432  47.484  1.00  0.00     0.187 C 
HETATM   20  C18 UNL     1      22.747   4.014  48.745  1.00  0.00     0.143 C 
ENDBRANCH  14  15
ENDBRANCH  13  14
ENDBRANCH  12  13
ENDBRANCH  11  12
ENDBRANCH  10  11
BRANCH   1  21
HETATM   21  O1  UNL     1      22.365   0.997  53.416  1.00  0.00    -0.353 OA
HETATM   22  C1  UNL     1      21.287   0.372  52.762  1.00  0.00     0.210 C 
ENDBRANCH   1  21
TORSDOF 6
ENDMDL
MODEL 6
REMARK VINA RESULT:      -6.5      2.368      3.802
REMARK  6 active torsions:
REMARK  status: ('A' for Active; 'I' for Inactive)
REMARK    1  A    between atoms: O1_2  and  C2_3 
REMARK    2  A    between atoms: C11_12  and  O2_13 
REMARK    3  A    between atoms: O2_13  and  C12_14 
REMARK    4  A    between atoms: C12_14  and  C13_15 
REMARK    5  A    between atoms: C13_15  and  C14_16 
REMARK    6  A    between atoms: C14_16  and  N1_17 
ROOT
HETATM    1  C2  UNL     1      23.062   0.290  53.028  1.00  0.00     0.101 C 
HETATM    2  C3  UNL     1      23.825  -0.504  53.825  1.00  0.00     0.047 C 
HETATM    3  C4  UNL     1      25.179  -0.322  53.260  1.00  0.00    -0.046 A 
HETATM    4  C5  UNL     1      26.304  -1.100  53.179  1.00  0.00    -0.013 A 
HETATM    5  C6  UNL     1      26.924   0.058  52.424  1.00  0.00     0.021 A 
HETATM    6  C7  UNL     1      28.243   0.448  53.060  1.00  0.00     0.015 C 
HETATM    7  C8  UNL     1      25.772   0.864  52.638  1.00  0.00     0.010 A 
HETATM    8  C9  UNL     1      26.075   1.912  53.842  1.00  0.00     0.025 C 
HETATM    9  C10 UNL     1      24.821   1.513  51.771  1.00  0.00     0.027 C 
HETATM   10  C11 UNL     1      23.508   1.241  52.000  1.00  0.00     0.099 C 
ENDROOT
BRANCH  10  11
HETATM   11  O2  UNL     1      22.736   1.975  51.149  1.00  0.00    -0.348 OA
BRANCH  11  12
HETATM   12  C12 UNL     1      22.649   1.891  49.762  1.00  0.00     0.177 C 
BRANCH  12  13
HETATM   13  C13 UNL     1      21.365   1.154  49.416  1.00  0.00     0.046 C 
BRANCH  13  14
HETATM   14  C14 UNL     1      20.493   2.072  48.612  1.00  0.00     0.119 C 
BRANCH  14  15
HETATM   15  N1  UNL     1      19.464   2.717  49.381  1.00  0.00    -0.408 N 
HETATM   16  C15 UNL     1      18.710   1.826  50.206  1.00  0.00     0.143 C 
HETATM   17  C16 UNL     1      18.895   1.970  51.676  1.00  0.00     0.187 C 
HETATM   18  O3  UNL     1      18.772   3.324  52.048  1.00  0.00    -0.388 OA
HETATM   19  C17 UNL     1      19.826   3.985  51.457  1.00  0.00     0.187 C 
HETATM   20  C18 UNL     1      19.789   3.967  49.956  1.00  0.00     0.143 C 
ENDBRANCH  14  15
ENDBRANCH  13  14
ENDBRANCH  12  13
ENDBRANCH  11  12
ENDBRANCH  10  11
BRANCH   1  21
HETATM   21  O1  UNL     1      21.680   0.394  53.130  1.00  0.00    -0.353 OA
HETATM   22  C1  UNL     1      20.949   0.123  54.301  1.00  0.00     0.210 C 
ENDBRANCH   1  21
TORSDOF 6
ENDMDL
MODEL 7
REMARK VINA RESULT:      -6.5      3.581      7.611
REMARK  6 active torsions:
REMARK  status: ('A' for Active; 'I' for Inactive)
REMARK    1  A    between atoms: O1_2  and  C2_3 
REMARK    2  A    between atoms: C11_12  and  O2_13 
REMARK    3  A    between atoms: O2_13  and  C12_14 
REMARK    4  A    between atoms: C12_14  and  C13_15 
REMARK    5  A    between atoms: C13_15  and  C14_16 
REMARK    6  A    between atoms: C14_16  and  N1_17 
ROOT
HETATM    1  C2  UNL     1      24.593   0.751  53.082  1.00  0.00     0.101 C 
HETATM    2  C3  UNL     1      24.158  -0.477  53.468  1.00  0.00     0.047 C 
HETATM    3  C4  UNL     1      22.722  -0.245  53.726  1.00  0.00    -0.046 A 
HETATM    4  C5  UNL     1      21.789  -0.801  54.561  1.00  0.00    -0.013 A 
HETATM    5  C6  UNL     1      20.821   0.213  53.986  1.00  0.00     0.021 A 
HETATM    6  C7  UNL     1      19.575  -0.485  53.480  1.00  0.00     0.015 C 
HETATM    7  C8  UNL     1      21.797   0.674  53.059  1.00  0.00     0.010 A 
HETATM    8  C9  UNL     1      21.486   0.033  51.599  1.00  0.00     0.025 C 
HETATM    9  C10 UNL     1      22.431   1.945  52.814  1.00  0.00     0.027 C 
HETATM   10  C11 UNL     1      23.792   1.950  52.799  1.00  0.00     0.099 C 
ENDROOT
BRANCH  10  11
HETATM   11  O2  UNL     1      24.238   3.201  52.490  1.00  0.00    -0.348 OA
BRANCH  11  12
HETATM   12  C12 UNL     1      23.973   3.964  51.356  1.00  0.00     0.177 C 
BRANCH  12  13
HETATM   13  C13 UNL     1      24.784   3.390  50.205  1.00  0.00     0.046 C 
BRANCH  13  14
HETATM   14  C14 UNL     1      26.116   4.078  50.173  1.00  0.00     0.119 C 
BRANCH  14  15
HETATM   15  N1  UNL     1      26.380   4.775  48.944  1.00  0.00    -0.408 N 
HETATM   16  C15 UNL     1      25.638   5.985  48.790  1.00  0.00     0.143 C 
HETATM   17  C16 UNL     1      26.420   7.251  48.834  1.00  0.00     0.187 C 
HETATM   18  O3  UNL     1      27.535   7.161  47.978  1.00  0.00    -0.388 OA
HETATM   19  C17 UNL     1      28.349   6.182  48.504  1.00  0.00     0.187 C 
HETATM   20  C18 UNL     1      27.726   4.815  48.514  1.00  0.00     0.143 C 
ENDBRANCH  14  15
ENDBRANCH  13  14
ENDBRANCH  12  13
ENDBRANCH  11  12
ENDBRANCH  10  11
BRANCH   1  21
HETATM   21  O1  UNL     1      25.920   1.051  52.795  1.00  0.00    -0.353 OA
HETATM   22  C1  UNL     1      26.747   0.273  51.965  1.00  0.00     0.210 C 
ENDBRANCH   1  21
TORSDOF 6
ENDMDL
MODEL 8
REMARK VINA RESULT:      -6.5      2.915      5.354
REMARK  6 active torsions:
REMARK  status: ('A' for Active; 'I' for Inactive)
REMARK    1  A    between atoms: O1_2  and  C2_3 
REMARK    2  A    between atoms: C11_12  and  O2_13 
REMARK    3  A    between atoms: O2_13  and  C12_14 
REMARK    4  A    between atoms: C12_14  and  C13_15 
REMARK    5  A    between atoms: C13_15  and  C14_16 
REMARK    6  A    between atoms: C14_16  and  N1_17 
ROOT
HETATM    1  C2  UNL     1      24.789   0.739  52.750  1.00  0.00     0.101 C 
HETATM    2  C3  UNL     1      24.896  -0.520  53.252  1.00  0.00     0.047 C 
HETATM    3  C4  UNL     1      26.315  -0.849  52.999  1.00  0.00    -0.046 A 
HETATM    4  C5  UNL     1      27.010  -2.005  52.762  1.00  0.00    -0.013 A 
HETATM    5  C6  UNL     1      28.233  -1.120  52.634  1.00  0.00     0.021 A 
HETATM    6  C7  UNL     1      29.335  -1.619  53.546  1.00  0.00     0.015 C 
HETATM    7  C8  UNL     1      27.485   0.032  52.998  1.00  0.00     0.010 A 
HETATM    8  C9  UNL     1      27.789   0.393  54.553  1.00  0.00     0.025 C 
HETATM    9  C10 UNL     1      27.179   1.282  52.348  1.00  0.00     0.027 C 
HETATM   10  C11 UNL     1      25.863   1.618  52.267  1.00  0.00     0.099 C 
ENDROOT
BRANCH  10  11
HETATM   11  O2  UNL     1      25.742   2.848  51.691  1.00  0.00    -0.348 OA
BRANCH  11  12
HETATM   12  C12 UNL     1      26.288   3.305  50.495  1.00  0.00     0.177 C 
BRANCH  12  13
HETATM   13  C13 UNL     1      25.404   4.429  49.976  1.00  0.00     0.046 C 
BRANCH  13  14
HETATM   14  C14 UNL     1      23.972   4.063  50.231  1.00  0.00     0.119 C 
BRANCH  14  15
HETATM   15  N1  UNL     1      23.283   4.982  51.094  1.00  0.00    -0.408 N 
HETATM   16  C15 UNL     1      23.922   6.254  51.217  1.00  0.00     0.143 C 
HETATM   17  C16 UNL     1      23.210   7.413  50.612  1.00  0.00     0.187 C 
HETATM   18  O3  UNL     1      21.861   7.417  51.018  1.00  0.00    -0.388 OA
HETATM   19  C17 UNL     1      21.290   6.285  50.479  1.00  0.00     0.187 C 
HETATM   20  C18 UNL     1      21.873   5.004  51.003  1.00  0.00     0.143 C 
ENDBRANCH  14  15
ENDBRANCH  13  14
ENDBRANCH  12  13
ENDBRANCH  11  12
ENDBRANCH  10  11
BRANCH   1  21
HETATM   21  O1  UNL     1      23.599   1.456  52.696  1.00  0.00    -0.353 OA
HETATM   22  C1  UNL     1      22.338   0.925  53.027  1.00  0.00     0.210 C 
ENDBRANCH   1  21
TORSDOF 6
ENDMDL
MODEL 9
REMARK VINA RESULT:      -6.5      2.781      5.876
REMARK  6 active torsions:
REMARK  status: ('A' for Active; 'I' for Inactive)
REMARK    1  A    between atoms: O1_2  and  C2_3 
REMARK    2  A    between atoms: C11_12  and  O2_13 
REMARK    3  A    between atoms: O2_13  and  C12_14 
REMARK    4  A    between atoms: C12_14  and  C13_15 
REMARK    5  A    between atoms: C13_15  and  C14_16 
REMARK    6  A    between atoms: C14_16  and  N1_17 
ROOT
HETATM    1  C2  UNL     1      24.620   0.866  53.099  1.00  0.00     0.101 C 
HETATM    2  C3  UNL     1      24.220  -0.389  53.433  1.00  0.00     0.047 C 
HETATM    3  C4  UNL     1      22.777  -0.208  53.697  1.00  0.00    -0.046 A 
HETATM    4  C5  UNL     1      21.859  -0.824  54.506  1.00  0.00    -0.013 A 
HETATM    5  C6  UNL     1      20.864   0.185  53.969  1.00  0.00     0.021 A 
HETATM    6  C7  UNL     1      19.639  -0.526  53.431  1.00  0.00     0.015 C 
HETATM    7  C8  UNL     1      21.827   0.711  53.065  1.00  0.00     0.010 A 
HETATM    8  C9  UNL     1      21.537   0.122  51.579  1.00  0.00     0.025 C 
HETATM    9  C10 UNL     1      22.426   2.008  52.874  1.00  0.00     0.027 C 
HETATM   10  C11 UNL     1      23.786   2.052  52.863  1.00  0.00     0.099 C 
ENDROOT
BRANCH  10  11
HETATM   11  O2  UNL     1      24.198   3.327  52.607  1.00  0.00    -0.348 OA
BRANCH  11  12
HETATM   12  C12 UNL     1      23.457   4.505  52.648  1.00  0.00     0.177 C 
BRANCH  12  13
HETATM   13  C13 UNL     1      23.684   5.247  51.341  1.00  0.00     0.046 C 
BRANCH  13  14
HETATM   14  C14 UNL     1      22.623   4.827  50.366  1.00  0.00     0.119 C 
BRANCH  14  15
HETATM   15  N1  UNL     1      23.141   4.209  49.177  1.00  0.00    -0.408 N 
HETATM   16  C15 UNL     1      23.180   2.782  49.233  1.00  0.00     0.143 C 
HETATM   17  C16 UNL     1      22.242   2.058  48.332  1.00  0.00     0.187 C 
HETATM   18  O3  UNL     1      22.333   2.573  47.024  1.00  0.00    -0.388 OA
HETATM   19  C17 UNL     1      21.885   3.875  47.089  1.00  0.00     0.187 C 
HETATM   20  C18 UNL     1      22.737   4.768  47.943  1.00  0.00     0.143 C 
ENDBRANCH  14  15
ENDBRANCH  13  14
ENDBRANCH  12  13
ENDBRANCH  11  12
ENDBRANCH  10  11
BRANCH   1  21
HETATM   21  O1  UNL     1      25.939   1.215  52.829  1.00  0.00    -0.353 OA
HETATM   22  C1  UNL     1      26.791   0.491  51.975  1.00  0.00     0.210 C 
ENDBRANCH   1  21
TORSDOF 6
ENDMDL
