MODEL 1
REMARK VINA RESULT:      -8.0      0.000      0.000
REMARK  9 active torsions:
REMARK  status: ('A' for Active; 'I' for Inactive)
REMARK    1  A    between atoms: O1_2  and  C2_3 
REMARK    2  A    between atoms: C2_3  and  C3_4 
REMARK    3  A    between atoms: C4_5  and  C5_6 
REMARK       I    between atoms: C5_6  and  N1_8 
REMARK    4  A    between atoms: N1_8  and  C6_9 
REMARK    5  A    between atoms: C9_12  and  N2_13 
REMARK    6  A    between atoms: N2_13  and  C10_14 
REMARK    7  A    between atoms: C10_14  and  C11_15 
REMARK    8  A    between atoms: C11_15  and  C12_16 
REMARK    9  A    between atoms: C18_26  and  O3_27 
ROOT
HETATM    1  C6  UNL     1      24.304   2.785  50.086  1.00  0.00     0.070 A 
HETATM    2  C7  UNL     1      24.510   2.053  51.236  1.00  0.00     0.048 A 
HETATM    3  C8  UNL     1      23.447   1.312  51.713  1.00  0.00     0.023 A 
HETATM    4  C9  UNL     1      23.555   0.548  52.857  1.00  0.00     0.063 A 
HETATM    5  C13 UNL     1      22.464  -0.178  53.295  1.00  0.00     0.089 A 
HETATM    6  C14 UNL     1      22.521  -0.998  54.490  1.00  0.00     0.103 C 
HETATM    7  N3  UNL     1      22.554  -1.647  55.461  1.00  0.00    -0.191 NA
HETATM    8  C15 UNL     1      21.242  -0.186  52.644  1.00  0.00     0.142 A 
HETATM    9  N4  UNL     1      21.171   0.571  51.529  1.00  0.00    -0.259 NA
HETATM   10  C16 UNL     1      22.223   1.288  51.083  1.00  0.00     0.071 A 
HETATM   11  C17 UNL     1      22.045   2.027  49.937  1.00  0.00     0.071 A 
HETATM   12  C18 UNL     1      23.077   2.786  49.419  1.00  0.00     0.097 A 
ENDROOT
BRANCH   4  13
HETATM   13  N2  UNL     1      24.755   0.489  53.590  1.00  0.00    -0.387 N 
HETATM   14  H8  UNL     1      25.002   1.262  54.250  1.00  0.00     0.159 HD
BRANCH  13  15
HETATM   15  C10 UNL     1      25.550  -0.698  53.334  1.00  0.00     0.129 C 
BRANCH  15  16
HETATM   16  C11 UNL     1      26.785  -0.392  52.560  1.00  0.00     0.158 C 
BRANCH  16  17
HETATM   17  C12 UNL     1      28.031  -0.483  53.042  1.00  0.00     0.136 A 
HETATM   18  F1  UNL     1      28.982  -1.480  53.097  1.00  0.00    -0.323 F 
HETATM   19 BR1  UNL     1      29.818  -0.876  53.642  1.00  0.00     0.040 Br
ENDBRANCH  16  17
ENDBRANCH  15  16
ENDBRANCH  13  15
ENDBRANCH   4  13
BRANCH   1  20
HETATM   20  N1  UNL     1      25.416   3.540  49.617  1.00  0.00    -0.314 N 
HETATM   21  C5  UNL     1      25.775   4.908  49.552  1.00  0.00     0.301 C 
HETATM   22  O2  UNL     1      25.045   5.838  49.969  1.00  0.00    -0.258 OA
HETATM   23  H6  UNL     1      26.031   2.768  49.266  1.00  0.00     0.170 HD
BRANCH  21  24
HETATM   24  C4  UNL     1      27.052   5.206  48.970  1.00  0.00    -0.003 C 
HETATM   25  C3  UNL     1      28.146   5.442  48.481  1.00  0.00    -0.070 C 
BRANCH  25  26
HETATM   26  C2  UNL     1      29.464   5.739  47.890  1.00  0.00     0.261 C 
BRANCH  26  27
HETATM   27  O1  UNL     1      30.462   5.274  48.743  1.00  0.00    -0.384 OA
HETATM   28  C1  UNL     1      31.304   6.328  49.088  1.00  0.00     0.202 C 
ENDBRANCH  26  27
ENDBRANCH  25  26
ENDBRANCH  21  24
ENDBRANCH   1  20
BRANCH  12  29
HETATM   29  O3  UNL     1      23.040   3.571  48.284  1.00  0.00    -0.354 OA
HETATM   30  C19 UNL     1      22.050   3.497  47.281  1.00  0.00     0.210 C 
ENDBRANCH  12  29
TORSDOF 9
ENDMDL
MODEL 2
REMARK VINA RESULT:      -7.8      2.980      4.691
REMARK  9 active torsions:
REMARK  status: ('A' for Active; 'I' for Inactive)
REMARK    1  A    between atoms: O1_2  and  C2_3 
REMARK    2  A    between atoms: C2_3  and  C3_4 
REMARK    3  A    between atoms: C4_5  and  C5_6 
REMARK       I    between atoms: C5_6  and  N1_8 
REMARK    4  A    between atoms: N1_8  and  C6_9 
REMARK    5  A    between atoms: C9_12  and  N2_13 
REMARK    6  A    between atoms: N2_13  and  C10_14 
REMARK    7  A    between atoms: C10_14  and  C11_15 
REMARK    8  A    between atoms: C11_15  and  C12_16 
REMARK    9  A    between atoms: C18_26  and  O3_27 
ROOT
HETATM    1  C6  UNL     1      26.422   1.917  52.287  1.00  0.00     0.070 A 
HETATM    2  C7  UNL     1      25.122   1.457  52.289  1.00  0.00     0.048 A 
HETATM    3  C8  UNL     1      24.776   0.541  53.262  1.00  0.00     0.023 A 
HETATM    4  C9  UNL     1      23.500   0.023  53.346  1.00  0.00     0.063 A 
HETATM    5  C13 UNL     1      23.200  -0.891  54.337  1.00  0.00     0.089 A 
HETATM    6  C14 UNL     1      21.876  -1.467  54.472  1.00  0.00     0.103 C 
HETATM    7  N3  UNL     1      20.817  -1.948  54.576  1.00  0.00    -0.191 NA
HETATM    8  C15 UNL     1      24.122  -1.330  55.274  1.00  0.00     0.142 A 
HETATM    9  N4  UNL     1      25.359  -0.804  55.164  1.00  0.00    -0.259 NA
HETATM   10  C16 UNL     1      25.675   0.090  54.204  1.00  0.00     0.071 A 
HETATM   11  C17 UNL     1      26.964   0.565  54.179  1.00  0.00     0.071 A 
HETATM   12  C18 UNL     1      27.361   1.482  53.226  1.00  0.00     0.097 A 
ENDROOT
BRANCH   4  13
HETATM   13  N2  UNL     1      22.492   0.406  52.441  1.00  0.00    -0.387 N 
HETATM   14  H8  UNL     1      22.501   0.039  51.462  1.00  0.00     0.159 HD
BRANCH  13  15
HETATM   15  C10 UNL     1      21.505   1.311  53.001  1.00  0.00     0.129 C 
BRANCH  15  16
HETATM   16  C11 UNL     1      21.299   2.516  52.149  1.00  0.00     0.158 C 
BRANCH  16  17
HETATM   17  C12 UNL     1      22.127   3.567  52.099  1.00  0.00     0.136 A 
HETATM   18  F1  UNL     1      23.213   3.986  52.838  1.00  0.00    -0.323 F 
HETATM   19 BR1  UNL     1      23.443   4.965  52.247  1.00  0.00     0.040 Br
ENDBRANCH  16  17
ENDBRANCH  15  16
ENDBRANCH  13  15
ENDBRANCH   4  13
BRANCH   1  20
HETATM   20  N1  UNL     1      26.752   2.859  51.274  1.00  0.00    -0.314 N 
HETATM   21  C5  UNL     1      26.152   3.343  50.086  1.00  0.00     0.301 C 
HETATM   22  O2  UNL     1      25.040   2.951  49.660  1.00  0.00    -0.258 OA
HETATM   23  H6  UNL     1      27.683   3.192  51.623  1.00  0.00     0.170 HD
BRANCH  21  24
HETATM   24  C4  UNL     1      26.888   4.336  49.357  1.00  0.00    -0.003 C 
HETATM   25  C3  UNL     1      27.511   5.195  48.751  1.00  0.00    -0.070 C 
BRANCH  25  26
HETATM   26  C2  UNL     1      28.262   6.225  48.010  1.00  0.00     0.261 C 
BRANCH  26  27
HETATM   27  O1  UNL     1      29.554   5.763  47.769  1.00  0.00    -0.384 OA
HETATM   28  C1  UNL     1      30.465   6.556  48.462  1.00  0.00     0.202 C 
ENDBRANCH  26  27
ENDBRANCH  25  26
ENDBRANCH  21  24
ENDBRANCH   1  20
BRANCH  12  29
HETATM   29  O3  UNL     1      28.617   2.041  53.083  1.00  0.00    -0.354 OA
HETATM   30  C19 UNL     1      29.521   2.275  54.141  1.00  0.00     0.210 C 
ENDBRANCH  12  29
TORSDOF 9
ENDMDL
MODEL 3
REMARK VINA RESULT:      -7.8      3.087      4.788
REMARK  9 active torsions:
REMARK  status: ('A' for Active; 'I' for Inactive)
REMARK    1  A    between atoms: O1_2  and  C2_3 
REMARK    2  A    between atoms: C2_3  and  C3_4 
REMARK    3  A    between atoms: C4_5  and  C5_6 
REMARK       I    between atoms: C5_6  and  N1_8 
REMARK    4  A    between atoms: N1_8  and  C6_9 
REMARK    5  A    between atoms: C9_12  and  N2_13 
REMARK    6  A    between atoms: N2_13  and  C10_14 
REMARK    7  A    between atoms: C10_14  and  C11_15 
REMARK    8  A    between atoms: C11_15  and  C12_16 
REMARK    9  A    between atoms: C18_26  and  O3_27 
ROOT
HETATM    1  C6  UNL     1      26.458   1.907  52.307  1.00  0.00     0.070 A 
HETATM    2  C7  UNL     1      25.163   1.432  52.295  1.00  0.00     0.048 A 
HETATM    3  C8  UNL     1      24.811   0.529  53.278  1.00  0.00     0.023 A 
HETATM    4  C9  UNL     1      23.539  -0.002  53.349  1.00  0.00     0.063 A 
HETATM    5  C13 UNL     1      23.232  -0.902  54.351  1.00  0.00     0.089 A 
HETATM    6  C14 UNL     1      21.913  -1.491  54.473  1.00  0.00     0.103 C 
HETATM    7  N3  UNL     1      20.858  -1.983  54.568  1.00  0.00    -0.191 NA
HETATM    8  C15 UNL     1      24.143  -1.313  55.311  1.00  0.00     0.142 A 
HETATM    9  N4  UNL     1      25.376  -0.775  55.213  1.00  0.00    -0.259 NA
HETATM   10  C16 UNL     1      25.698   0.106  54.243  1.00  0.00     0.071 A 
HETATM   11  C17 UNL     1      26.982   0.595  54.232  1.00  0.00     0.071 A 
HETATM   12  C18 UNL     1      27.385   1.500  53.270  1.00  0.00     0.097 A 
ENDROOT
BRANCH   4  13
HETATM   13  N2  UNL     1      22.543   0.353  52.420  1.00  0.00    -0.387 N 
HETATM   14  H8  UNL     1      22.395  -0.228  51.564  1.00  0.00     0.159 HD
BRANCH  13  15
HETATM   15  C10 UNL     1      21.797   1.546  52.778  1.00  0.00     0.129 C 
BRANCH  15  16
HETATM   16  C11 UNL     1      21.707   2.513  51.648  1.00  0.00     0.158 C 
BRANCH  16  17
HETATM   17  C12 UNL     1      21.596   2.174  50.358  1.00  0.00     0.136 A 
HETATM   18  F1  UNL     1      22.333   1.399  49.488  1.00  0.00    -0.323 F 
HETATM   19 BR1  UNL     1      21.668   1.540  48.541  1.00  0.00     0.040 Br
ENDBRANCH  16  17
ENDBRANCH  15  16
ENDBRANCH  13  15
ENDBRANCH   4  13
BRANCH   1  20
HETATM   20  N1  UNL     1      26.794   2.835  51.283  1.00  0.00    -0.314 N 
HETATM   21  C5  UNL     1      26.166   3.366  50.131  1.00  0.00     0.301 C 
HETATM   22  O2  UNL     1      25.011   3.049  49.761  1.00  0.00    -0.258 OA
HETATM   23  H6  UNL     1      27.761   3.106  51.586  1.00  0.00     0.170 HD
BRANCH  21  24
HETATM   24  C4  UNL     1      26.926   4.317  49.370  1.00  0.00    -0.003 C 
HETATM   25  C3  UNL     1      27.589   5.115  48.727  1.00  0.00    -0.070 C 
BRANCH  25  26
HETATM   26  C2  UNL     1      28.381   6.088  47.950  1.00  0.00     0.261 C 
BRANCH  26  27
HETATM   27  O1  UNL     1      29.713   5.682  47.933  1.00  0.00    -0.384 OA
HETATM   28  C1  UNL     1      30.513   6.697  48.453  1.00  0.00     0.202 C 
ENDBRANCH  26  27
ENDBRANCH  25  26
ENDBRANCH  21  24
ENDBRANCH   1  20
BRANCH  12  29
HETATM   29  O3  UNL     1      28.636   2.071  53.139  1.00  0.00    -0.354 OA
HETATM   30  C19 UNL     1      29.560   2.243  54.192  1.00  0.00     0.210 C 
ENDBRANCH  12  29
TORSDOF 9
ENDMDL
MODEL 4
REMARK VINA RESULT:      -7.3      3.814      7.325
REMARK  9 active torsions:
REMARK  status: ('A' for Active; 'I' for Inactive)
REMARK    1  A    between atoms: O1_2  and  C2_3 
REMARK    2  A    between atoms: C2_3  and  C3_4 
REMARK    3  A    between atoms: C4_5  and  C5_6 
REMARK       I    between atoms: C5_6  and  N1_8 
REMARK    4  A    between atoms: N1_8  and  C6_9 
REMARK    5  A    between atoms: C9_12  and  N2_13 
REMARK    6  A    between atoms: N2_13  and  C10_14 
REMARK    7  A    between atoms: C10_14  and  C11_15 
REMARK    8  A    between atoms: C11_15  and  C12_16 
REMARK    9  A    between atoms: C18_26  and  O3_27 
ROOT
HETATM    1  C6  UNL     1      23.063   1.472  51.737  1.00  0.00     0.070 A 
HETATM    2  C7  UNL     1      23.897   0.661  52.479  1.00  0.00     0.048 A 
HETATM    3  C8  UNL     1      25.233   1.003  52.528  1.00  0.00     0.023 A 
HETATM    4  C9  UNL     1      26.144   0.253  53.243  1.00  0.00     0.063 A 
HETATM    5  C13 UNL     1      27.472   0.635  53.263  1.00  0.00     0.089 A 
HETATM    6  C14 UNL     1      28.473  -0.114  53.997  1.00  0.00     0.103 C 
HETATM    7  N3  UNL     1      29.287  -0.723  54.572  1.00  0.00    -0.191 NA
HETATM    8  C15 UNL     1      27.956   1.749  52.596  1.00  0.00     0.142 A 
HETATM    9  N4  UNL     1      27.038   2.460  51.907  1.00  0.00    -0.259 NA
HETATM   10  C16 UNL     1      25.737   2.105  51.873  1.00  0.00     0.071 A 
HETATM   11  C17 UNL     1      24.884   2.897  51.142  1.00  0.00     0.071 A 
HETATM   12  C18 UNL     1      23.538   2.598  51.060  1.00  0.00     0.097 A 
ENDROOT
BRANCH   4  13
HETATM   13  N2  UNL     1      25.752  -0.896  53.954  1.00  0.00    -0.387 N 
HETATM   14  H8  UNL     1      25.791  -1.834  53.495  1.00  0.00     0.159 HD
BRANCH  13  15
HETATM   15  C10 UNL     1      25.318  -0.632  55.314  1.00  0.00     0.129 C 
BRANCH  15  16
HETATM   16  C11 UNL     1      24.116  -1.430  55.686  1.00  0.00     0.158 C 
BRANCH  16  17
HETATM   17  C12 UNL     1      22.916  -1.322  55.102  1.00  0.00     0.136 A 
HETATM   18  F1  UNL     1      21.914  -2.207  54.768  1.00  0.00    -0.323 F 
HETATM   19 BR1  UNL     1      21.170  -1.441  54.298  1.00  0.00     0.040 Br
ENDBRANCH  16  17
ENDBRANCH  15  16
ENDBRANCH  13  15
ENDBRANCH   4  13
BRANCH   1  20
HETATM   20  N1  UNL     1      21.691   1.097  51.703  1.00  0.00    -0.314 N 
HETATM   21  C5  UNL     1      20.766   0.674  50.719  1.00  0.00     0.301 C 
HETATM   22  O2  UNL     1      21.055   0.538  49.506  1.00  0.00    -0.258 OA
HETATM   23  H6  UNL     1      21.441   1.208  52.715  1.00  0.00     0.170 HD
BRANCH  21  24
HETATM   24  C4  UNL     1      19.434   0.394  51.172  1.00  0.00    -0.003 C 
HETATM   25  C3  UNL     1      18.292   0.167  51.542  1.00  0.00    -0.070 C 
BRANCH  25  26
HETATM   26  C2  UNL     1      16.918  -0.111  52.000  1.00  0.00     0.261 C 
BRANCH  26  27
HETATM   27  O1  UNL     1      16.964  -0.650  53.283  1.00  0.00    -0.384 OA
HETATM   28  C1  UNL     1      17.478  -1.944  53.223  1.00  0.00     0.202 C 
ENDBRANCH  26  27
ENDBRANCH  25  26
ENDBRANCH  21  24
ENDBRANCH   1  20
BRANCH  12  29
HETATM   29  O3  UNL     1      22.572   3.301  50.366  1.00  0.00    -0.354 OA
HETATM   30  C19 UNL     1      22.115   4.593  50.704  1.00  0.00     0.210 C 
ENDBRANCH  12  29
TORSDOF 9
ENDMDL
MODEL 5
REMARK VINA RESULT:      -7.3      2.227      2.865
REMARK  9 active torsions:
REMARK  status: ('A' for Active; 'I' for Inactive)
REMARK    1  A    between atoms: O1_2  and  C2_3 
REMARK    2  A    between atoms: C2_3  and  C3_4 
REMARK    3  A    between atoms: C4_5  and  C5_6 
REMARK       I    between atoms: C5_6  and  N1_8 
REMARK    4  A    between atoms: N1_8  and  C6_9 
REMARK    5  A    between atoms: C9_12  and  N2_13 
REMARK    6  A    between atoms: N2_13  and  C10_14 
REMARK    7  A    between atoms: C10_14  and  C11_15 
REMARK    8  A    between atoms: C11_15  and  C12_16 
REMARK    9  A    between atoms: C18_26  and  O3_27 
ROOT
HETATM    1  C6  UNL     1      25.808   4.296  49.516  1.00  0.00     0.070 A 
HETATM    2  C7  UNL     1      26.378   3.398  50.394  1.00  0.00     0.048 A 
HETATM    3  C8  UNL     1      25.527   2.553  51.077  1.00  0.00     0.023 A 
HETATM    4  C9  UNL     1      26.003   1.621  51.977  1.00  0.00     0.063 A 
HETATM    5  C13 UNL     1      25.113   0.796  52.637  1.00  0.00     0.089 A 
HETATM    6  C14 UNL     1      25.557  -0.201  53.592  1.00  0.00     0.103 C 
HETATM    7  N3  UNL     1      25.906  -0.994  54.375  1.00  0.00    -0.191 NA
HETATM    8  C15 UNL     1      23.741   0.847  52.447  1.00  0.00     0.142 A 
HETATM    9  N4  UNL     1      23.310   1.768  51.561  1.00  0.00    -0.259 NA
HETATM   10  C16 UNL     1      24.161   2.585  50.905  1.00  0.00     0.071 A 
HETATM   11  C17 UNL     1      23.619   3.489  50.024  1.00  0.00     0.071 A 
HETATM   12  C18 UNL     1      24.426   4.357  49.316  1.00  0.00     0.097 A 
ENDROOT
BRANCH   4  13
HETATM   13  N2  UNL     1      27.380   1.491  52.239  1.00  0.00    -0.387 N 
HETATM   14  H8  UNL     1      27.964   0.849  51.657  1.00  0.00     0.159 HD
BRANCH  13  15
HETATM   15  C10 UNL     1      27.853   2.306  53.343  1.00  0.00     0.129 C 
BRANCH  15  16
HETATM   16  C11 UNL     1      28.955   1.646  54.097  1.00  0.00     0.158 C 
BRANCH  16  17
HETATM   17  C12 UNL     1      29.268   0.346  54.015  1.00  0.00     0.136 A 
HETATM   18  F1  UNL     1      29.892  -0.446  53.076  1.00  0.00    -0.323 F 
HETATM   19 BR1  UNL     1      29.826  -1.460  53.649  1.00  0.00     0.040 Br
ENDBRANCH  16  17
ENDBRANCH  15  16
ENDBRANCH  13  15
ENDBRANCH   4  13
BRANCH   1  20
HETATM   20  N1  UNL     1      26.707   5.155  48.826  1.00  0.00    -0.314 N 
HETATM   21  C5  UNL     1      27.039   6.531  48.853  1.00  0.00     0.301 C 
HETATM   22  O2  UNL     1      26.499   7.361  49.623  1.00  0.00    -0.258 OA
HETATM   23  H6  UNL     1      27.163   4.468  48.179  1.00  0.00     0.170 HD
BRANCH  21  24
HETATM   24  C4  UNL     1      28.052   6.963  47.934  1.00  0.00    -0.003 C 
HETATM   25  C3  UNL     1      28.900   7.337  47.139  1.00  0.00    -0.070 C 
BRANCH  25  26
HETATM   26  C2  UNL     1      29.933   7.781  46.184  1.00  0.00     0.261 C 
BRANCH  26  27
HETATM   27  O1  UNL     1      29.733   9.128  45.889  1.00  0.00    -0.384 OA
HETATM   28  C1  UNL     1      28.977   9.240  44.725  1.00  0.00     0.202 C 
ENDBRANCH  26  27
ENDBRANCH  25  26
ENDBRANCH  21  24
ENDBRANCH   1  20
BRANCH  12  29
HETATM   29  O3  UNL     1      24.021   5.311  48.403  1.00  0.00    -0.354 OA
HETATM   30  C19 UNL     1      23.122   6.363  48.679  1.00  0.00     0.210 C 
ENDBRANCH  12  29
TORSDOF 9
ENDMDL
MODEL 6
REMARK VINA RESULT:      -7.2      4.119      6.954
REMARK  9 active torsions:
REMARK  status: ('A' for Active; 'I' for Inactive)
REMARK    1  A    between atoms: O1_2  and  C2_3 
REMARK    2  A    between atoms: C2_3  and  C3_4 
REMARK    3  A    between atoms: C4_5  and  C5_6 
REMARK       I    between atoms: C5_6  and  N1_8 
REMARK    4  A    between atoms: N1_8  and  C6_9 
REMARK    5  A    between atoms: C9_12  and  N2_13 
REMARK    6  A    between atoms: N2_13  and  C10_14 
REMARK    7  A    between atoms: C10_14  and  C11_15 
REMARK    8  A    between atoms: C11_15  and  C12_16 
REMARK    9  A    between atoms: C18_26  and  O3_27 
ROOT
HETATM    1  C6  UNL     1      22.439   0.898  52.205  1.00  0.00     0.070 A 
HETATM    2  C7  UNL     1      23.624   1.604  52.224  1.00  0.00     0.048 A 
HETATM    3  C8  UNL     1      24.636   1.121  53.027  1.00  0.00     0.023 A 
HETATM    4  C9  UNL     1      25.857   1.758  53.113  1.00  0.00     0.063 A 
HETATM    5  C13 UNL     1      26.842   1.236  53.930  1.00  0.00     0.089 A 
HETATM    6  C14 UNL     1      28.142   1.864  54.058  1.00  0.00     0.103 C 
HETATM    7  N3  UNL     1      29.187   2.374  54.180  1.00  0.00    -0.191 NA
HETATM    8  C15 UNL     1      26.675   0.086  54.685  1.00  0.00     0.142 A 
HETATM    9  N4  UNL     1      25.471  -0.512  54.578  1.00  0.00    -0.259 NA
HETATM   10  C16 UNL     1      24.495  -0.020  53.787  1.00  0.00     0.071 A 
HETATM   11  C17 UNL     1      23.305  -0.705  53.749  1.00  0.00     0.071 A 
HETATM   12  C18 UNL     1      22.259  -0.262  52.962  1.00  0.00     0.097 A 
ENDROOT
BRANCH   4  13
HETATM   13  N2  UNL     1      26.125   2.932  52.385  1.00  0.00    -0.387 N 
HETATM   14  H8  UNL     1      25.934   3.867  52.812  1.00  0.00     0.159 HD
BRANCH  13  15
HETATM   15  C10 UNL     1      26.664   2.698  51.058  1.00  0.00     0.129 C 
BRANCH  15  16
HETATM   16  C11 UNL     1      26.185   3.703  50.069  1.00  0.00     0.158 C 
BRANCH  16  17
HETATM   17  C12 UNL     1      24.941   3.759  49.577  1.00  0.00     0.136 A 
HETATM   18  F1  UNL     1      24.006   2.823  49.188  1.00  0.00    -0.323 F 
HETATM   19 BR1  UNL     1      23.161   3.561  48.868  1.00  0.00     0.040 Br
ENDBRANCH  16  17
ENDBRANCH  15  16
ENDBRANCH  13  15
ENDBRANCH   4  13
BRANCH   1  20
HETATM   20  N1  UNL     1      21.412   1.419  51.370  1.00  0.00    -0.314 N 
HETATM   21  C5  UNL     1      20.281   2.254  51.532  1.00  0.00     0.301 C 
HETATM   22  O2  UNL     1      19.941   2.758  52.628  1.00  0.00    -0.258 OA
HETATM   23  H6  UNL     1      21.690   1.001  50.449  1.00  0.00     0.170 HD
BRANCH  21  24
HETATM   24  C4  UNL     1      19.506   2.516  50.353  1.00  0.00    -0.003 C 
HETATM   25  C3  UNL     1      18.848   2.718  49.344  1.00  0.00    -0.070 C 
BRANCH  25  26
HETATM   26  C2  UNL     1      18.056   2.976  48.127  1.00  0.00     0.261 C 
BRANCH  26  27
HETATM   27  O1  UNL     1      18.913   3.045  47.031  1.00  0.00    -0.384 OA
HETATM   28  C1  UNL     1      18.167   3.264  45.874  1.00  0.00     0.202 C 
ENDBRANCH  26  27
ENDBRANCH  25  26
ENDBRANCH  21  24
ENDBRANCH   1  20
BRANCH  12  29
HETATM   29  O3  UNL     1      21.015  -0.848  52.828  1.00  0.00    -0.354 OA
HETATM   30  C19 UNL     1      19.980  -0.774  53.784  1.00  0.00     0.210 C 
ENDBRANCH  12  29
TORSDOF 9
ENDMDL
MODEL 7
REMARK VINA RESULT:      -7.2      3.352      5.075
REMARK  9 active torsions:
REMARK  status: ('A' for Active; 'I' for Inactive)
REMARK    1  A    between atoms: O1_2  and  C2_3 
REMARK    2  A    between atoms: C2_3  and  C3_4 
REMARK    3  A    between atoms: C4_5  and  C5_6 
REMARK       I    between atoms: C5_6  and  N1_8 
REMARK    4  A    between atoms: N1_8  and  C6_9 
REMARK    5  A    between atoms: C9_12  and  N2_13 
REMARK    6  A    between atoms: N2_13  and  C10_14 
REMARK    7  A    between atoms: C10_14  and  C11_15 
REMARK    8  A    between atoms: C11_15  and  C12_16 
REMARK    9  A    between atoms: C18_26  and  O3_27 
ROOT
HETATM    1  C6  UNL     1      24.128   1.146  52.074  1.00  0.00     0.070 A 
HETATM    2  C7  UNL     1      22.756   1.181  51.943  1.00  0.00     0.048 A 
HETATM    3  C8  UNL     1      22.025   0.271  52.679  1.00  0.00     0.023 A 
HETATM    4  C9  UNL     1      20.647   0.229  52.615  1.00  0.00     0.063 A 
HETATM    5  C13 UNL     1      19.959  -0.700  53.371  1.00  0.00     0.089 A 
HETATM    6  C14 UNL     1      18.512  -0.789  53.342  1.00  0.00     0.103 C 
HETATM    7  N3  UNL     1      17.347  -0.878  53.311  1.00  0.00    -0.191 NA
HETATM    8  C15 UNL     1      20.580  -1.612  54.210  1.00  0.00     0.142 A 
HETATM    9  N4  UNL     1      21.926  -1.543  54.249  1.00  0.00    -0.259 NA
HETATM   10  C16 UNL     1      22.619  -0.645  53.519  1.00  0.00     0.071 A 
HETATM   11  C17 UNL     1      23.989  -0.659  53.632  1.00  0.00     0.071 A 
HETATM   12  C18 UNL     1      24.766   0.231  52.916  1.00  0.00     0.097 A 
ENDROOT
BRANCH   4  13
HETATM   13  N2  UNL     1      19.924   1.114  51.793  1.00  0.00    -0.387 N 
HETATM   14  H8  UNL     1      19.676   2.067  52.143  1.00  0.00     0.159 HD
BRANCH  13  15
HETATM   15  C10 UNL     1      19.591   0.573  50.488  1.00  0.00     0.129 C 
BRANCH  15  16
HETATM   16  C11 UNL     1      19.767   1.576  49.401  1.00  0.00     0.158 C 
BRANCH  16  17
HETATM   17  C12 UNL     1      20.948   1.977  48.914  1.00  0.00     0.136 A 
HETATM   18  F1  UNL     1      21.727   1.618  47.835  1.00  0.00    -0.323 F 
HETATM   19 BR1  UNL     1      22.605   2.364  48.013  1.00  0.00     0.040 Br
ENDBRANCH  16  17
ENDBRANCH  15  16
ENDBRANCH  13  15
ENDBRANCH   4  13
BRANCH   1  20
HETATM   20  N1  UNL     1      24.856   2.094  51.304  1.00  0.00    -0.314 N 
HETATM   21  C5  UNL     1      24.835   3.497  51.114  1.00  0.00     0.301 C 
HETATM   22  O2  UNL     1      24.031   4.265  51.694  1.00  0.00    -0.258 OA
HETATM   23  H6  UNL     1      25.532   1.459  50.815  1.00  0.00     0.170 HD
BRANCH  21  24
HETATM   24  C4  UNL     1      25.802   4.032  50.199  1.00  0.00    -0.003 C 
HETATM   25  C3  UNL     1      26.639   4.476  49.428  1.00  0.00    -0.070 C 
BRANCH  25  26
HETATM   26  C2  UNL     1      27.643   5.021  48.495  1.00  0.00     0.261 C 
BRANCH  26  27
HETATM   27  O1  UNL     1      27.715   6.403  48.658  1.00  0.00    -0.384 OA
HETATM   28  C1  UNL     1      26.569   6.991  48.130  1.00  0.00     0.202 C 
ENDBRANCH  26  27
ENDBRANCH  25  26
ENDBRANCH  21  24
ENDBRANCH   1  20
BRANCH  12  29
HETATM   29  O3  UNL     1      26.144   0.330  52.932  1.00  0.00    -0.354 OA
HETATM   30  C19 UNL     1      27.033  -0.719  52.614  1.00  0.00     0.210 C 
ENDBRANCH  12  29
TORSDOF 9
ENDMDL
MODEL 8
REMARK VINA RESULT:      -7.0      3.842      6.460
REMARK  9 active torsions:
REMARK  status: ('A' for Active; 'I' for Inactive)
REMARK    1  A    between atoms: O1_2  and  C2_3 
REMARK    2  A    between atoms: C2_3  and  C3_4 
REMARK    3  A    between atoms: C4_5  and  C5_6 
REMARK       I    between atoms: C5_6  and  N1_8 
REMARK    4  A    between atoms: N1_8  and  C6_9 
REMARK    5  A    between atoms: C9_12  and  N2_13 
REMARK    6  A    between atoms: N2_13  and  C10_14 
REMARK    7  A    between atoms: C10_14  and  C11_15 
REMARK    8  A    between atoms: C11_15  and  C12_16 
REMARK    9  A    between atoms: C18_26  and  O3_27 
ROOT
HETATM    1  C6  UNL     1      23.776   1.194  53.010  1.00  0.00     0.070 A 
HETATM    2  C7  UNL     1      23.632   2.377  52.315  1.00  0.00     0.048 A 
HETATM    3  C8  UNL     1      22.347   2.799  52.045  1.00  0.00     0.023 A 
HETATM    4  C9  UNL     1      22.101   3.969  51.355  1.00  0.00     0.063 A 
HETATM    5  C13 UNL     1      20.797   4.352  51.108  1.00  0.00     0.089 A 
HETATM    6  C14 UNL     1      20.480   5.571  50.389  1.00  0.00     0.103 C 
HETATM    7  N3  UNL     1      20.218   6.542  49.794  1.00  0.00    -0.191 NA
HETATM    8  C15 UNL     1      19.696   3.619  51.521  1.00  0.00     0.142 A 
HETATM    9  N4  UNL     1      19.971   2.482  52.193  1.00  0.00    -0.259 NA
HETATM   10  C16 UNL     1      21.237   2.088  52.444  1.00  0.00     0.071 A 
HETATM   11  C17 UNL     1      21.409   0.914  53.137  1.00  0.00     0.071 A 
HETATM   12  C18 UNL     1      22.674   0.446  53.431  1.00  0.00     0.097 A 
ENDROOT
BRANCH   4  13
HETATM   13  N2  UNL     1      23.152   4.784  50.894  1.00  0.00    -0.387 N 
HETATM   14  H8  UNL     1      23.556   5.519  51.518  1.00  0.00     0.159 HD
BRANCH  13  15
HETATM   15  C10 UNL     1      23.577   4.493  49.537  1.00  0.00     0.129 C 
BRANCH  15  16
HETATM   16  C11 UNL     1      25.004   4.072  49.472  1.00  0.00     0.158 C 
BRANCH  16  17
HETATM   17  C12 UNL     1      26.016   4.858  49.085  1.00  0.00     0.136 A 
HETATM   18  F1  UNL     1      27.313   4.642  48.670  1.00  0.00    -0.323 F 
HETATM   19 BR1  UNL     1      27.616   5.754  48.495  1.00  0.00     0.040 Br
ENDBRANCH  16  17
ENDBRANCH  15  16
ENDBRANCH  13  15
ENDBRANCH   4  13
BRANCH   1  20
HETATM   20  N1  UNL     1      25.112   0.782  53.275  1.00  0.00    -0.314 N 
HETATM   21  C5  UNL     1      26.251   1.333  53.908  1.00  0.00     0.301 C 
HETATM   22  O2  UNL     1      26.273   2.474  54.429  1.00  0.00    -0.258 OA
HETATM   23  H6  UNL     1      25.102  -0.173  52.841  1.00  0.00     0.170 HD
BRANCH  21  24
HETATM   24  C4  UNL     1      27.428   0.512  53.935  1.00  0.00    -0.003 C 
HETATM   25  C3  UNL     1      28.437  -0.175  53.972  1.00  0.00    -0.070 C 
BRANCH  25  26
HETATM   26  C2  UNL     1      29.653  -1.009  54.006  1.00  0.00     0.261 C 
BRANCH  26  27
HETATM   27  O1  UNL     1      29.646  -1.871  52.912  1.00  0.00    -0.384 OA
HETATM   28  C1  UNL     1      28.649  -2.829  53.085  1.00  0.00     0.202 C 
ENDBRANCH  26  27
ENDBRANCH  25  26
ENDBRANCH  21  24
ENDBRANCH   1  20
BRANCH  12  29
HETATM   29  O3  UNL     1      22.994  -0.711  54.116  1.00  0.00    -0.354 OA
HETATM   30  C19 UNL     1      22.092  -1.459  54.903  1.00  0.00     0.210 C 
ENDBRANCH  12  29
TORSDOF 9
ENDMDL
MODEL 9
REMARK VINA RESULT:      -7.0      3.557      5.808
REMARK  9 active torsions:
REMARK  status: ('A' for Active; 'I' for Inactive)
REMARK    1  A    between atoms: O1_2  and  C2_3 
REMARK    2  A    between atoms: C2_3  and  C3_4 
REMARK    3  A    between atoms: C4_5  and  C5_6 
REMARK       I    between atoms: C5_6  and  N1_8 
REMARK    4  A    between atoms: N1_8  and  C6_9 
REMARK    5  A    between atoms: C9_12  and  N2_13 
REMARK    6  A    between atoms: N2_13  and  C10_14 
REMARK    7  A    between atoms: C10_14  and  C11_15 
REMARK    8  A    between atoms: C11_15  and  C12_16 
REMARK    9  A    between atoms: C18_26  and  O3_27 
ROOT
HETATM    1  C6  UNL     1      23.789   2.329  50.958  1.00  0.00     0.070 A 
HETATM    2  C7  UNL     1      22.535   2.221  51.522  1.00  0.00     0.048 A 
HETATM    3  C8  UNL     1      21.555   3.073  51.054  1.00  0.00     0.023 A 
HETATM    4  C9  UNL     1      20.270   3.042  51.557  1.00  0.00     0.063 A 
HETATM    5  C13 UNL     1      19.322   3.914  51.057  1.00  0.00     0.089 A 
HETATM    6  C14 UNL     1      17.958   3.925  51.548  1.00  0.00     0.103 C 
HETATM    7  N3  UNL     1      16.862   3.951  51.951  1.00  0.00    -0.191 NA
HETATM    8  C15 UNL     1      19.587   4.838  50.060  1.00  0.00     0.142 A 
HETATM    9  N4  UNL     1      20.852   4.842  49.590  1.00  0.00    -0.259 NA
HETATM   10  C16 UNL     1      21.794   4.000  50.064  1.00  0.00     0.071 A 
HETATM   11  C17 UNL     1      23.052   4.085  49.518  1.00  0.00     0.071 A 
HETATM   12  C18 UNL     1      24.069   3.257  49.951  1.00  0.00     0.097 A 
ENDROOT
BRANCH   4  13
HETATM   13  N2  UNL     1      19.901   2.139  52.572  1.00  0.00    -0.387 N 
HETATM   14  H8  UNL     1      19.962   2.427  53.575  1.00  0.00     0.159 HD
BRANCH  13  15
HETATM   15  C10 UNL     1      19.455   0.847  52.083  1.00  0.00     0.129 C 
BRANCH  15  16
HETATM   16  C11 UNL     1      19.744  -0.250  53.048  1.00  0.00     0.158 C 
BRANCH  16  17
HETATM   17  C12 UNL     1      20.945  -0.501  53.583  1.00  0.00     0.136 A 
HETATM   18  F1  UNL     1      22.232  -0.568  53.096  1.00  0.00    -0.323 F 
HETATM   19 BR1  UNL     1      22.772  -0.824  54.098  1.00  0.00     0.040 Br
ENDBRANCH  16  17
ENDBRANCH  15  16
ENDBRANCH  13  15
ENDBRANCH   4  13
BRANCH   1  20
HETATM   20  N1  UNL     1      24.780   1.439  51.458  1.00  0.00    -0.314 N 
HETATM   21  C5  UNL     1      25.576   1.340  52.625  1.00  0.00     0.301 C 
HETATM   22  O2  UNL     1      25.530   2.163  53.570  1.00  0.00    -0.258 OA
HETATM   23  H6  UNL     1      24.824   0.747  50.672  1.00  0.00     0.170 HD
BRANCH  21  24
HETATM   24  C4  UNL     1      26.474   0.223  52.692  1.00  0.00    -0.003 C 
HETATM   25  C3  UNL     1      27.230  -0.733  52.768  1.00  0.00    -0.070 C 
BRANCH  25  26
HETATM   26  C2  UNL     1      28.150  -1.882  52.851  1.00  0.00     0.261 C 
BRANCH  26  27
HETATM   27  O1  UNL     1      29.058  -1.667  53.887  1.00  0.00    -0.384 OA
HETATM   28  C1  UNL     1      29.954  -0.667  53.516  1.00  0.00     0.202 C 
ENDBRANCH  26  27
ENDBRANCH  25  26
ENDBRANCH  21  24
ENDBRANCH   1  20
BRANCH  12  29
HETATM   29  O3  UNL     1      25.372   3.232  49.495  1.00  0.00    -0.354 OA
HETATM   30  C19 UNL     1      26.224   4.355  49.423  1.00  0.00     0.210 C 
ENDBRANCH  12  29
TORSDOF 9
ENDMDL
