MODEL 1
REMARK VINA RESULT:      -7.2      0.000      0.000
REMARK  6 active torsions:
REMARK  status: ('A' for Active; 'I' for Inactive)
REMARK    1  A    between atoms: N1_2  and  C2_3 
REMARK    2  A    between atoms: C3_4  and  N2_5 
REMARK    3  A    between atoms: N2_5  and  C4_6 
REMARK    4  A    between atoms: C11_15  and  O1_16 
REMARK    5  A    between atoms: O1_16  and  C12_17 
REMARK    6  A    between atoms: C14_19  and  O2_20 
ROOT
HETATM    1  C2  UNL     1      24.857   2.429  50.994  1.00  0.00     0.128 A 
HETATM    2  C3  UNL     1      24.876   1.554  52.105  1.00  0.00     0.160 A 
HETATM    3  N3  UNL     1      26.063   1.487  52.543  1.00  0.00    -0.222 NA
HETATM    4  C10 UNL     1      27.246   1.936  52.327  1.00  0.00     0.238 A 
HETATM    5  N4  UNL     1      27.126   2.730  51.296  1.00  0.00    -0.215 NA
HETATM    6  C11 UNL     1      26.051   3.057  50.564  1.00  0.00     0.202 A 
ENDROOT
BRANCH   2   7
HETATM    7  N2  UNL     1      23.751   0.916  52.590  1.00  0.00    -0.339 N 
HETATM    8  H5  UNL     1      24.431   0.150  52.917  1.00  0.00     0.167 HD
BRANCH   7   9
HETATM    9  C4  UNL     1      22.633   0.260  53.085  1.00  0.00     0.033 A 
HETATM   10  C5  UNL     1      21.265   0.302  52.796  1.00  0.00     0.029 A 
HETATM   11  C6  UNL     1      20.370  -0.489  53.441  1.00  0.00     0.002 A 
HETATM   12  C7  UNL     1      20.898  -1.310  54.374  1.00  0.00     0.000 A 
HETATM   13  C8  UNL     1      22.192  -1.466  54.769  1.00  0.00     0.002 A 
HETATM   14  C9  UNL     1      23.092  -0.628  54.077  1.00  0.00     0.029 A 
ENDBRANCH   7   9
ENDBRANCH   2   7
BRANCH   1  15
HETATM   15  N1  UNL     1      23.674   2.654  50.213  1.00  0.00    -0.388 N 
HETATM   16  C1  UNL     1      22.497   3.469  50.314  1.00  0.00     0.146 C 
HETATM   17  H4  UNL     1      23.572   2.126  49.351  1.00  0.00     0.159 HD
ENDBRANCH   1  15
BRANCH   6  18
HETATM   18  O1  UNL     1      25.952   3.881  49.499  1.00  0.00    -0.289 OA
BRANCH  18  19
HETATM   19  C12 UNL     1      26.898   4.702  49.015  1.00  0.00     0.092 A 
HETATM   20  C13 UNL     1      26.144   5.759  49.295  1.00  0.00     0.047 A 
HETATM   21  C14 UNL     1      26.723   6.907  48.949  1.00  0.00     0.082 A 
HETATM   22  C16 UNL     1      28.012   6.505  48.388  1.00  0.00     0.040 A 
HETATM   23  C17 UNL     1      28.154   5.163  48.414  1.00  0.00     0.041 A 
BRANCH  21  24
HETATM   24  O2  UNL     1      26.536   8.250  48.939  1.00  0.00    -0.355 OA
HETATM   25  C15 UNL     1      27.039   9.084  49.966  1.00  0.00     0.210 C 
ENDBRANCH  21  24
ENDBRANCH  18  19
ENDBRANCH   6  18
TORSDOF 6
ENDMDL
MODEL 2
REMARK VINA RESULT:      -7.2      3.986      7.996
REMARK  6 active torsions:
REMARK  status: ('A' for Active; 'I' for Inactive)
REMARK    1  A    between atoms: N1_2  and  C2_3 
REMARK    2  A    between atoms: C3_4  and  N2_5 
REMARK    3  A    between atoms: N2_5  and  C4_6 
REMARK    4  A    between atoms: C11_15  and  O1_16 
REMARK    5  A    between atoms: O1_16  and  C12_17 
REMARK    6  A    between atoms: C14_19  and  O2_20 
ROOT
HETATM    1  C2  UNL     1      23.834   0.823  52.975  1.00  0.00     0.128 A 
HETATM    2  C3  UNL     1      25.059   1.427  52.610  1.00  0.00     0.160 A 
HETATM    3  N3  UNL     1      24.810   2.548  52.074  1.00  0.00    -0.222 NA
HETATM    4  C10 UNL     1      23.835   3.318  51.751  1.00  0.00     0.238 A 
HETATM    5  N4  UNL     1      22.758   2.683  52.128  1.00  0.00    -0.215 NA
HETATM    6  C11 UNL     1      22.609   1.489  52.722  1.00  0.00     0.202 A 
ENDROOT
BRANCH   2   7
HETATM    7  N2  UNL     1      26.291   0.845  52.835  1.00  0.00    -0.339 N 
HETATM    8  H5  UNL     1      26.575   1.803  53.232  1.00  0.00     0.167 HD
BRANCH   7   9
HETATM    9  C4  UNL     1      27.535   0.277  53.071  1.00  0.00     0.033 A 
HETATM   10  C5  UNL     1      28.788   0.781  53.436  1.00  0.00     0.029 A 
HETATM   11  C6  UNL     1      29.861  -0.028  53.623  1.00  0.00     0.002 A 
HETATM   12  C7  UNL     1      29.627  -1.344  53.432  1.00  0.00     0.000 A 
HETATM   13  C8  UNL     1      28.478  -1.985  53.077  1.00  0.00     0.002 A 
HETATM   14  C9  UNL     1      27.386  -1.111  52.890  1.00  0.00     0.029 A 
ENDBRANCH   7   9
ENDBRANCH   2   7
BRANCH   1  15
HETATM   15  N1  UNL     1      23.763  -0.500  53.528  1.00  0.00    -0.388 N 
HETATM   16  C1  UNL     1      23.970  -1.105  54.813  1.00  0.00     0.146 C 
HETATM   17  H4  UNL     1      23.513  -1.260  52.901  1.00  0.00     0.159 HD
ENDBRANCH   1  15
BRANCH   6  18
HETATM   18  O1  UNL     1      21.483   0.850  53.102  1.00  0.00    -0.289 OA
BRANCH  18  19
HETATM   19  C12 UNL     1      20.419   0.553  52.337  1.00  0.00     0.092 A 
HETATM   20  C13 UNL     1      19.865  -0.114  53.342  1.00  0.00     0.047 A 
HETATM   21  C14 UNL     1      18.688  -0.646  53.016  1.00  0.00     0.082 A 
HETATM   22  C16 UNL     1      18.484  -0.243  51.626  1.00  0.00     0.040 A 
HETATM   23  C17 UNL     1      19.523   0.493  51.177  1.00  0.00     0.041 A 
BRANCH  21  24
HETATM   24  O2  UNL     1      17.667  -1.392  53.507  1.00  0.00    -0.355 OA
HETATM   25  C15 UNL     1      17.760  -2.799  53.631  1.00  0.00     0.210 C 
ENDBRANCH  21  24
ENDBRANCH  18  19
ENDBRANCH   6  18
TORSDOF 6
ENDMDL
MODEL 3
REMARK VINA RESULT:      -7.2      2.270      7.996
REMARK  6 active torsions:
REMARK  status: ('A' for Active; 'I' for Inactive)
REMARK    1  A    between atoms: N1_2  and  C2_3 
REMARK    2  A    between atoms: C3_4  and  N2_5 
REMARK    3  A    between atoms: N2_5  and  C4_6 
REMARK    4  A    between atoms: C11_15  and  O1_16 
REMARK    5  A    between atoms: O1_16  and  C12_17 
REMARK    6  A    between atoms: C14_19  and  O2_20 
ROOT
HETATM    1  C2  UNL     1      25.064   2.357  51.194  1.00  0.00     0.128 A 
HETATM    2  C3  UNL     1      26.369   2.871  51.013  1.00  0.00     0.160 A 
HETATM    3  N3  UNL     1      27.165   2.210  51.745  1.00  0.00    -0.222 NA
HETATM    4  C10 UNL     1      27.195   1.242  52.587  1.00  0.00     0.238 A 
HETATM    5  N4  UNL     1      25.958   0.835  52.683  1.00  0.00    -0.215 NA
HETATM    6  C11 UNL     1      24.843   1.273  52.079  1.00  0.00     0.202 A 
ENDROOT
BRANCH   2   7
HETATM    7  N2  UNL     1      26.664   3.915  50.159  1.00  0.00    -0.339 N 
HETATM    8  H5  UNL     1      27.600   3.969  50.687  1.00  0.00     0.167 HD
BRANCH   7   9
HETATM    9  C4  UNL     1      26.979   4.966  49.310  1.00  0.00     0.033 A 
HETATM   10  C5  UNL     1      28.122   5.339  48.595  1.00  0.00     0.029 A 
HETATM   11  C6  UNL     1      28.146   6.439  47.801  1.00  0.00     0.002 A 
HETATM   12  C7  UNL     1      26.992   7.139  47.756  1.00  0.00     0.000 A 
HETATM   13  C8  UNL     1      25.807   6.912  48.388  1.00  0.00     0.002 A 
HETATM   14  C9  UNL     1      25.821   5.761  49.204  1.00  0.00     0.029 A 
ENDBRANCH   7   9
ENDBRANCH   2   7
BRANCH   1  15
HETATM   15  N1  UNL     1      23.913   2.946  50.572  1.00  0.00    -0.388 N 
HETATM   16  C1  UNL     1      23.312   2.934  49.268  1.00  0.00     0.146 C 
HETATM   17  H4  UNL     1      23.326   3.548  51.142  1.00  0.00     0.159 HD
ENDBRANCH   1  15
BRANCH   6  18
HETATM   18  O1  UNL     1      23.571   0.837  52.196  1.00  0.00    -0.289 OA
BRANCH  18  19
HETATM   19  C12 UNL     1      23.066   0.051  53.161  1.00  0.00     0.092 A 
HETATM   20  C13 UNL     1      21.844   0.199  52.662  1.00  0.00     0.047 A 
HETATM   21  C14 UNL     1      20.922  -0.456  53.364  1.00  0.00     0.082 A 
HETATM   22  C16 UNL     1      21.678  -1.105  54.434  1.00  0.00     0.040 A 
HETATM   23  C17 UNL     1      22.993  -0.817  54.340  1.00  0.00     0.041 A 
BRANCH  21  24
HETATM   24  O2  UNL     1      19.592  -0.716  53.422  1.00  0.00    -0.355 OA
HETATM   25  C15 UNL     1      18.711  -0.350  52.376  1.00  0.00     0.210 C 
ENDBRANCH  21  24
ENDBRANCH  18  19
ENDBRANCH   6  18
TORSDOF 6
ENDMDL
MODEL 4
REMARK VINA RESULT:      -7.1      4.257      5.956
REMARK  6 active torsions:
REMARK  status: ('A' for Active; 'I' for Inactive)
REMARK    1  A    between atoms: N1_2  and  C2_3 
REMARK    2  A    between atoms: C3_4  and  N2_5 
REMARK    3  A    between atoms: N2_5  and  C4_6 
REMARK    4  A    between atoms: C11_15  and  O1_16 
REMARK    5  A    between atoms: O1_16  and  C12_17 
REMARK    6  A    between atoms: C14_19  and  O2_20 
ROOT
HETATM    1  C2  UNL     1      22.414   0.141  52.546  1.00  0.00     0.128 A 
HETATM    2  C3  UNL     1      21.489   0.697  51.632  1.00  0.00     0.160 A 
HETATM    3  N3  UNL     1      22.099   1.538  50.907  1.00  0.00    -0.222 NA
HETATM    4  C10 UNL     1      23.258   2.055  50.717  1.00  0.00     0.238 A 
HETATM    5  N4  UNL     1      24.036   1.482  51.596  1.00  0.00    -0.215 NA
HETATM    6  C11 UNL     1      23.769   0.554  52.528  1.00  0.00     0.202 A 
ENDROOT
BRANCH   2   7
HETATM    7  N2  UNL     1      20.157   0.335  51.583  1.00  0.00    -0.339 N 
HETATM    8  H5  UNL     1      20.517  -0.615  51.230  1.00  0.00     0.167 HD
BRANCH   7   9
HETATM    9  C4  UNL     1      18.825  -0.048  51.527  1.00  0.00     0.033 A 
HETATM   10  C5  UNL     1      17.812   0.067  50.569  1.00  0.00     0.029 A 
HETATM   11  C6  UNL     1      16.566  -0.431  50.777  1.00  0.00     0.002 A 
HETATM   12  C7  UNL     1      16.384  -1.040  51.968  1.00  0.00     0.000 A 
HETATM   13  C8  UNL     1      17.258  -1.230  52.996  1.00  0.00     0.002 A 
HETATM   14  C9  UNL     1      18.540  -0.698  52.744  1.00  0.00     0.029 A 
ENDBRANCH   7   9
ENDBRANCH   2   7
BRANCH   1  15
HETATM   15  N1  UNL     1      22.020  -0.785  53.571  1.00  0.00    -0.388 N 
HETATM   16  C1  UNL     1      21.556  -0.703  54.927  1.00  0.00     0.146 C 
HETATM   17  H4  UNL     1      22.063  -1.776  53.352  1.00  0.00     0.159 HD
ENDBRANCH   1  15
BRANCH   6  18
HETATM   18  O1  UNL     1      24.591  -0.024  53.428  1.00  0.00    -0.289 OA
BRANCH  18  19
HETATM   19  C12 UNL     1      25.847  -0.455  53.224  1.00  0.00     0.092 A 
HETATM   20  C13 UNL     1      26.298   0.378  54.155  1.00  0.00     0.047 A 
HETATM   21  C14 UNL     1      27.619   0.304  54.310  1.00  0.00     0.082 A 
HETATM   22  C16 UNL     1      28.037  -0.720  53.354  1.00  0.00     0.040 A 
HETATM   23  C17 UNL     1      26.978  -1.207  52.672  1.00  0.00     0.041 A 
BRANCH  21  24
HETATM   24  O2  UNL     1      28.654   0.824  55.015  1.00  0.00    -0.355 OA
HETATM   25  C15 UNL     1      29.405   1.926  54.540  1.00  0.00     0.210 C 
ENDBRANCH  21  24
ENDBRANCH  18  19
ENDBRANCH   6  18
TORSDOF 6
ENDMDL
MODEL 5
REMARK VINA RESULT:      -7.0      3.915      7.215
REMARK  6 active torsions:
REMARK  status: ('A' for Active; 'I' for Inactive)
REMARK    1  A    between atoms: N1_2  and  C2_3 
REMARK    2  A    between atoms: C3_4  and  N2_5 
REMARK    3  A    between atoms: N2_5  and  C4_6 
REMARK    4  A    between atoms: C11_15  and  O1_16 
REMARK    5  A    between atoms: O1_16  and  C12_17 
REMARK    6  A    between atoms: C14_19  and  O2_20 
ROOT
HETATM    1  C2  UNL     1      23.609   0.409  52.872  1.00  0.00     0.128 A 
HETATM    2  C3  UNL     1      24.364  -0.372  53.778  1.00  0.00     0.160 A 
HETATM    3  N3  UNL     1      23.565  -0.935  54.584  1.00  0.00    -0.222 NA
HETATM    4  C10 UNL     1      22.316  -1.040  54.860  1.00  0.00     0.238 A 
HETATM    5  N4  UNL     1      21.707  -0.296  53.976  1.00  0.00    -0.215 NA
HETATM    6  C11 UNL     1      22.197   0.450  52.974  1.00  0.00     0.202 A 
ENDROOT
BRANCH   2   7
HETATM    7  N2  UNL     1      25.741  -0.470  53.734  1.00  0.00    -0.339 N 
HETATM    8  H5  UNL     1      25.616  -0.536  52.668  1.00  0.00     0.167 HD
BRANCH   7   9
HETATM    9  C4  UNL     1      27.123  -0.569  53.668  1.00  0.00     0.033 A 
HETATM   10  C5  UNL     1      28.014  -1.507  53.135  1.00  0.00     0.029 A 
HETATM   11  C6  UNL     1      29.359  -1.336  53.196  1.00  0.00     0.002 A 
HETATM   12  C7  UNL     1      29.766  -0.203  53.807  1.00  0.00     0.000 A 
HETATM   13  C8  UNL     1      29.033   0.797  54.372  1.00  0.00     0.002 A 
HETATM   14  C9  UNL     1      27.641   0.584  54.290  1.00  0.00     0.029 A 
ENDBRANCH   7   9
ENDBRANCH   2   7
BRANCH   1  15
HETATM   15  N1  UNL     1      24.224   1.248  51.883  1.00  0.00    -0.388 N 
HETATM   16  C1  UNL     1      24.858   2.535  51.856  1.00  0.00     0.146 C 
HETATM   17  H4  UNL     1      24.247   0.908  50.926  1.00  0.00     0.159 HD
ENDBRANCH   1  15
BRANCH   6  18
HETATM   18  O1  UNL     1      21.547   1.215  52.072  1.00  0.00    -0.289 OA
BRANCH  18  19
HETATM   19  C12 UNL     1      20.264   1.108  51.688  1.00  0.00     0.092 A 
HETATM   20  C13 UNL     1      20.040   2.370  52.037  1.00  0.00     0.047 A 
HETATM   21  C14 UNL     1      18.779   2.742  51.827  1.00  0.00     0.082 A 
HETATM   22  C16 UNL     1      18.142   1.553  51.262  1.00  0.00     0.040 A 
HETATM   23  C17 UNL     1      19.021   0.534  51.162  1.00  0.00     0.041 A 
BRANCH  21  24
HETATM   24  O2  UNL     1      17.928   3.791  51.949  1.00  0.00    -0.355 OA
HETATM   25  C15 UNL     1      16.663   3.808  51.313  1.00  0.00     0.210 C 
ENDBRANCH  21  24
ENDBRANCH  18  19
ENDBRANCH   6  18
TORSDOF 6
ENDMDL
MODEL 6
REMARK VINA RESULT:      -7.0      4.513      7.991
REMARK  6 active torsions:
REMARK  status: ('A' for Active; 'I' for Inactive)
REMARK    1  A    between atoms: N1_2  and  C2_3 
REMARK    2  A    between atoms: C3_4  and  N2_5 
REMARK    3  A    between atoms: N2_5  and  C4_6 
REMARK    4  A    between atoms: C11_15  and  O1_16 
REMARK    5  A    between atoms: O1_16  and  C12_17 
REMARK    6  A    between atoms: C14_19  and  O2_20 
ROOT
HETATM    1  C2  UNL     1      23.708  -0.137  53.588  1.00  0.00     0.128 A 
HETATM    2  C3  UNL     1      24.725  -0.652  54.424  1.00  0.00     0.160 A 
HETATM    3  N3  UNL     1      24.182  -1.339  55.339  1.00  0.00    -0.222 NA
HETATM    4  C10 UNL     1      23.035  -1.726  55.766  1.00  0.00     0.238 A 
HETATM    5  N4  UNL     1      22.170  -1.209  54.936  1.00  0.00    -0.215 NA
HETATM    6  C11 UNL     1      22.348  -0.433  53.857  1.00  0.00     0.202 A 
ENDROOT
BRANCH   2   7
HETATM    7  N2  UNL     1      26.070  -0.417  54.218  1.00  0.00    -0.339 N 
HETATM    8  H5  UNL     1      26.188  -1.478  54.347  1.00  0.00     0.167 HD
BRANCH   7   9
HETATM    9  C4  UNL     1      27.425  -0.201  54.012  1.00  0.00     0.033 A 
HETATM   10  C5  UNL     1      28.287   0.882  54.215  1.00  0.00     0.029 A 
HETATM   11  C6  UNL     1      29.613   0.808  53.936  1.00  0.00     0.002 A 
HETATM   12  C7  UNL     1      30.031  -0.382  53.453  1.00  0.00     0.000 A 
HETATM   13  C8  UNL     1      29.326  -1.519  53.200  1.00  0.00     0.002 A 
HETATM   14  C9  UNL     1      27.953  -1.403  53.501  1.00  0.00     0.029 A 
ENDBRANCH   7   9
ENDBRANCH   2   7
BRANCH   1  15
HETATM   15  N1  UNL     1      23.985   0.761  52.502  1.00  0.00    -0.388 N 
HETATM   16  C1  UNL     1      23.925   2.178  52.280  1.00  0.00     0.146 C 
HETATM   17  H4  UNL     1      24.306   0.357  51.627  1.00  0.00     0.159 HD
ENDBRANCH   1  15
BRANCH   6  18
HETATM   18  O1  UNL     1      21.436   0.093  53.013  1.00  0.00    -0.289 OA
BRANCH  18  19
HETATM   19  C12 UNL     1      20.142  -0.248  52.899  1.00  0.00     0.092 A 
HETATM   20  C13 UNL     1      20.088   0.304  51.692  1.00  0.00     0.047 A 
HETATM   21  C14 UNL     1      18.880   0.208  51.139  1.00  0.00     0.082 A 
HETATM   22  C16 UNL     1      18.085  -0.509  52.135  1.00  0.00     0.040 A 
HETATM   23  C17 UNL     1      18.825  -0.805  53.224  1.00  0.00     0.041 A 
BRANCH  21  24
HETATM   24  O2  UNL     1      18.173   0.529  50.027  1.00  0.00    -0.355 OA
HETATM   25  C15 UNL     1      16.843   0.086  49.831  1.00  0.00     0.210 C 
ENDBRANCH  21  24
ENDBRANCH  18  19
ENDBRANCH   6  18
TORSDOF 6
ENDMDL
MODEL 7
REMARK VINA RESULT:      -6.9      1.474      2.791
REMARK  6 active torsions:
REMARK  status: ('A' for Active; 'I' for Inactive)
REMARK    1  A    between atoms: N1_2  and  C2_3 
REMARK    2  A    between atoms: C3_4  and  N2_5 
REMARK    3  A    between atoms: N2_5  and  C4_6 
REMARK    4  A    between atoms: C11_15  and  O1_16 
REMARK    5  A    between atoms: O1_16  and  C12_17 
REMARK    6  A    between atoms: C14_19  and  O2_20 
ROOT
HETATM    1  C2  UNL     1      24.479   2.746  50.683  1.00  0.00     0.128 A 
HETATM    2  C3  UNL     1      23.170   2.273  50.931  1.00  0.00     0.160 A 
HETATM    3  N3  UNL     1      22.400   2.736  50.038  1.00  0.00    -0.222 NA
HETATM    4  C10 UNL     1      22.399   3.482  48.993  1.00  0.00     0.238 A 
HETATM    5  N4  UNL     1      23.639   3.863  48.844  1.00  0.00    -0.215 NA
HETATM    6  C11 UNL     1      24.732   3.590  49.573  1.00  0.00     0.202 A 
ENDROOT
BRANCH   2   7
HETATM    7  N2  UNL     1      22.850   1.438  51.984  1.00  0.00    -0.339 N 
HETATM    8  H5  UNL     1      22.864   2.331  52.583  1.00  0.00     0.167 HD
BRANCH   7   9
HETATM    9  C4  UNL     1      22.527   0.617  53.054  1.00  0.00     0.033 A 
HETATM   10  C5  UNL     1      21.344   0.320  53.739  1.00  0.00     0.029 A 
HETATM   11  C6  UNL     1      21.312  -0.564  54.769  1.00  0.00     0.002 A 
HETATM   12  C7  UNL     1      22.499  -1.128  55.076  1.00  0.00     0.000 A 
HETATM   13  C8  UNL     1      23.726  -0.946  54.513  1.00  0.00     0.002 A 
HETATM   14  C9  UNL     1      23.719  -0.020  53.449  1.00  0.00     0.029 A 
ENDBRANCH   7   9
ENDBRANCH   2   7
BRANCH   1  15
HETATM   15  N1  UNL     1      25.576   2.474  51.568  1.00  0.00    -0.388 N 
HETATM   16  C1  UNL     1      26.619   1.493  51.664  1.00  0.00     0.146 C 
HETATM   17  H4  UNL     1      25.706   3.094  52.362  1.00  0.00     0.159 HD
ENDBRANCH   1  15
BRANCH   6  18
HETATM   18  O1  UNL     1      26.007   3.998  49.401  1.00  0.00    -0.289 OA
BRANCH  18  19
HETATM   19  C12 UNL     1      26.425   5.183  48.926  1.00  0.00     0.092 A 
HETATM   20  C13 UNL     1      27.652   4.702  48.766  1.00  0.00     0.047 A 
HETATM   21  C14 UNL     1      28.497   5.609  48.280  1.00  0.00     0.082 A 
HETATM   22  C16 UNL     1      27.679   6.808  48.109  1.00  0.00     0.040 A 
HETATM   23  C17 UNL     1      26.404   6.584  48.492  1.00  0.00     0.041 A 
BRANCH  21  24
HETATM   24  O2  UNL     1      29.789   5.792  47.909  1.00  0.00    -0.355 OA
HETATM   25  C15 UNL     1      30.633   6.720  48.565  1.00  0.00     0.210 C 
ENDBRANCH  21  24
ENDBRANCH  18  19
ENDBRANCH   6  18
TORSDOF 6
ENDMDL
MODEL 8
REMARK VINA RESULT:      -6.8      2.823      5.383
REMARK  6 active torsions:
REMARK  status: ('A' for Active; 'I' for Inactive)
REMARK    1  A    between atoms: N1_2  and  C2_3 
REMARK    2  A    between atoms: C3_4  and  N2_5 
REMARK    3  A    between atoms: N2_5  and  C4_6 
REMARK    4  A    between atoms: C11_15  and  O1_16 
REMARK    5  A    between atoms: O1_16  and  C12_17 
REMARK    6  A    between atoms: C14_19  and  O2_20 
ROOT
HETATM    1  C2  UNL     1      24.496   1.725  52.616  1.00  0.00     0.128 A 
HETATM    2  C3  UNL     1      24.666   0.389  53.046  1.00  0.00     0.160 A 
HETATM    3  N3  UNL     1      23.528  -0.089  53.331  1.00  0.00    -0.222 NA
HETATM    4  C10 UNL     1      22.282   0.219  53.363  1.00  0.00     0.238 A 
HETATM    5  N4  UNL     1      22.226   1.456  52.948  1.00  0.00    -0.215 NA
HETATM    6  C11 UNL     1      23.199   2.294  52.561  1.00  0.00     0.202 A 
ENDROOT
BRANCH   2   7
HETATM    7  N2  UNL     1      25.896  -0.237  53.114  1.00  0.00    -0.339 N 
HETATM    8  H5  UNL     1      25.797  -0.358  52.051  1.00  0.00     0.167 HD
BRANCH   7   9
HETATM    9  C4  UNL     1      27.130  -0.868  53.162  1.00  0.00     0.033 A 
HETATM   10  C5  UNL     1      27.585  -2.155  52.856  1.00  0.00     0.029 A 
HETATM   11  C6  UNL     1      28.891  -2.504  52.981  1.00  0.00     0.002 A 
HETATM   12  C7  UNL     1      29.708  -1.522  53.419  1.00  0.00     0.000 A 
HETATM   13  C8  UNL     1      29.423  -0.234  53.757  1.00  0.00     0.002 A 
HETATM   14  C9  UNL     1      28.057   0.091  53.616  1.00  0.00     0.029 A 
ENDBRANCH   7   9
ENDBRANCH   2   7
BRANCH   1  15
HETATM   15  N1  UNL     1      25.606   2.580  52.303  1.00  0.00    -0.388 N 
HETATM   16  C1  UNL     1      26.551   2.709  51.231  1.00  0.00     0.146 C 
HETATM   17  H4  UNL     1      25.848   3.303  52.974  1.00  0.00     0.159 HD
ENDBRANCH   1  15
BRANCH   6  18
HETATM   18  O1  UNL     1      23.117   3.573  52.137  1.00  0.00    -0.289 OA
BRANCH  18  19
HETATM   19  C12 UNL     1      22.090   4.152  51.493  1.00  0.00     0.092 A 
HETATM   20  C13 UNL     1      22.712   5.325  51.528  1.00  0.00     0.047 A 
HETATM   21  C14 UNL     1      22.001   6.298  50.961  1.00  0.00     0.082 A 
HETATM   22  C16 UNL     1      20.781   5.633  50.505  1.00  0.00     0.040 A 
HETATM   23  C17 UNL     1      20.802   4.319  50.813  1.00  0.00     0.041 A 
BRANCH  21  24
HETATM   24  O2  UNL     1      22.020   7.624  50.675  1.00  0.00    -0.355 OA
HETATM   25  C15 UNL     1      23.095   8.223  49.975  1.00  0.00     0.210 C 
ENDBRANCH  21  24
ENDBRANCH  18  19
ENDBRANCH   6  18
TORSDOF 6
ENDMDL
MODEL 9
REMARK VINA RESULT:      -6.6      2.804      7.901
REMARK  6 active torsions:
REMARK  status: ('A' for Active; 'I' for Inactive)
REMARK    1  A    between atoms: N1_2  and  C2_3 
REMARK    2  A    between atoms: C3_4  and  N2_5 
REMARK    3  A    between atoms: N2_5  and  C4_6 
REMARK    4  A    between atoms: C11_15  and  O1_16 
REMARK    5  A    between atoms: O1_16  and  C12_17 
REMARK    6  A    between atoms: C14_19  and  O2_20 
ROOT
HETATM    1  C2  UNL     1      24.471   4.291  51.004  1.00  0.00     0.128 A 
HETATM    2  C3  UNL     1      23.589   5.124  50.277  1.00  0.00     0.160 A 
HETATM    3  N3  UNL     1      22.425   4.992  50.758  1.00  0.00    -0.222 NA
HETATM    4  C10 UNL     1      21.774   4.368  51.672  1.00  0.00     0.238 A 
HETATM    5  N4  UNL     1      22.665   3.636  52.286  1.00  0.00    -0.215 NA
HETATM    6  C11 UNL     1      23.982   3.501  52.074  1.00  0.00     0.202 A 
ENDROOT
BRANCH   2   7
HETATM    7  N2  UNL     1      23.993   5.930  49.231  1.00  0.00    -0.339 N 
HETATM    8  H5  UNL     1      24.937   5.423  49.318  1.00  0.00     0.167 HD
BRANCH   7   9
HETATM    9  C4  UNL     1      24.418   6.731  48.181  1.00  0.00     0.033 A 
HETATM   10  C5  UNL     1      23.782   7.340  47.094  1.00  0.00     0.029 A 
HETATM   11  C6  UNL     1      24.459   8.109  46.204  1.00  0.00     0.002 A 
HETATM   12  C7  UNL     1      25.781   8.239  46.447  1.00  0.00     0.000 A 
HETATM   13  C8  UNL     1      26.541   7.715  47.449  1.00  0.00     0.002 A 
HETATM   14  C9  UNL     1      25.803   6.921  48.352  1.00  0.00     0.029 A 
ENDBRANCH   7   9
ENDBRANCH   2   7
BRANCH   1  15
HETATM   15  N1  UNL     1      25.854   4.141  50.651  1.00  0.00    -0.388 N 
HETATM   16  C1  UNL     1      26.599   3.492  49.610  1.00  0.00     0.146 C 
HETATM   17  H4  UNL     1      26.545   4.577  51.255  1.00  0.00     0.159 HD
ENDBRANCH   1  15
BRANCH   6  18
HETATM   18  O1  UNL     1      24.885   2.735  52.721  1.00  0.00    -0.289 OA
BRANCH  18  19
HETATM   19  C12 UNL     1      24.725   1.470  53.145  1.00  0.00     0.092 A 
HETATM   20  C13 UNL     1      25.936   1.483  53.690  1.00  0.00     0.047 A 
HETATM   21  C14 UNL     1      26.246   0.327  54.273  1.00  0.00     0.082 A 
HETATM   22  C16 UNL     1      25.064  -0.508  54.069  1.00  0.00     0.040 A 
HETATM   23  C17 UNL     1      24.112   0.159  53.383  1.00  0.00     0.041 A 
BRANCH  21  24
HETATM   24  O2  UNL     1      27.232  -0.306  54.957  1.00  0.00    -0.355 OA
HETATM   25  C15 UNL     1      28.586   0.097  54.865  1.00  0.00     0.210 C 
ENDBRANCH  21  24
ENDBRANCH  18  19
ENDBRANCH   6  18
TORSDOF 6
ENDMDL
