MODEL 1
REMARK VINA RESULT:      -7.8      0.000      0.000
REMARK  9 active torsions:
REMARK  status: ('A' for Active; 'I' for Inactive)
REMARK    1  A    between atoms: O1_2  and  C2_3 
REMARK    2  A    between atoms: C2_3  and  C3_4 
REMARK    3  A    between atoms: C7_10  and  C8_11 
REMARK    4  A    between atoms: C7_10  and  C9_13 
REMARK    5  A    between atoms: C9_13  and  N2_14 
REMARK    6  A    between atoms: N2_14  and  C10_15 
REMARK    7  A    between atoms: C12_18  and  C13_19 
REMARK    8  A    between atoms: C14_21  and  N4_22 
REMARK    9  A    between atoms: N4_22  and  C15_23 
ROOT
HETATM    1  C10 UNL     1      26.381   2.845  51.446  1.00  0.00     0.724 A 
HETATM    2  N3  UNL     1      27.540   2.447  51.960  1.00  0.00    -0.075 NA
HETATM    3  C11 UNL     1      27.673   1.430  52.811  1.00  0.00     0.149 A 
HETATM    4  C12 UNL     1      26.585   0.707  53.225  1.00  0.00     0.035 A 
HETATM    5  C14 UNL     1      25.355   1.112  52.695  1.00  0.00     0.157 A 
HETATM    6  N6  UNL     1      25.316   2.149  51.841  1.00  0.00    -0.045 NA
ENDROOT
BRANCH   1   7
HETATM    7  N2  UNL     1      26.175   3.941  50.556  1.00  0.00    -0.220 N 
HETATM    8  H18 UNL     1      26.793   4.777  50.586  1.00  0.00     0.177 HD
BRANCH   7   9
HETATM    9  C9  UNL     1      25.091   3.845  49.630  1.00  0.00     0.172 C 
BRANCH   9  10
HETATM   10  C7  UNL     1      24.222   5.087  49.550  1.00  0.00     0.084 C 
HETATM   11  C3  UNL     1      24.256   5.790  50.874  1.00  0.00     0.103 C 
HETATM   12  S1  UNL     1      23.096   5.060  52.057  1.00  0.00    -0.158 SA
HETATM   13  C4  UNL     1      21.690   4.330  51.240  1.00  0.00     0.093 C 
HETATM   14  C5  UNL     1      22.196   3.774  49.928  1.00  0.00     0.127 C 
HETATM   15  N1  UNL     1      22.926   4.669  49.129  1.00  0.00    -0.403 N 
HETATM   16  C6  UNL     1      22.646   4.672  47.743  1.00  0.00     0.144 C 
BRANCH  11  17
HETATM   17  C2  UNL     1      24.084   7.256  50.858  1.00  0.00     0.184 C 
BRANCH  17  18
HETATM   18  O1  UNL     1      22.794   7.673  50.876  1.00  0.00    -0.395 OA
HETATM   19  C1  UNL     1      22.186   8.198  49.784  1.00  0.00     0.201 C 
ENDBRANCH  17  18
ENDBRANCH  11  17
BRANCH  10  20
HETATM   20  C8  UNL     1      24.777   5.962  48.457  1.00  0.00     0.255 C 
HETATM   21  F1  UNL     1      26.123   6.051  48.386  1.00  0.00    -0.253 F 
ENDBRANCH  10  20
ENDBRANCH   9  10
ENDBRANCH   7   9
ENDBRANCH   1   7
BRANCH   5  22
HETATM   22  N4  UNL     1      24.156   0.501  53.034  1.00  0.00    -0.340 N 
HETATM   23  H22 UNL     1      24.168  -0.144  53.885  1.00  0.00     0.167 HD
BRANCH  22  24
HETATM   24  C15 UNL     1      22.800   0.161  52.985  1.00  0.00     0.033 C 
HETATM   25  C16 UNL     1      21.952   0.554  52.033  1.00  0.00     0.031 C 
HETATM   26  C17 UNL     1      20.722   0.662  51.359  1.00  0.00     0.028 C 
HETATM   27  C18 UNL     1      19.581   0.119  51.710  1.00  0.00     0.160 C 
HETATM   28  O2  UNL     1      18.526  -0.602  52.366  1.00  0.00    -0.276 OA
HETATM   29  N5  UNL     1      18.727  -0.841  53.770  1.00  0.00    -0.197 NA
HETATM   30  C19 UNL     1      20.048  -1.172  53.772  1.00  0.00     0.145 C 
HETATM   31  H26 UNL     1      18.110  -1.634  54.031  1.00  0.00     0.154 HD
HETATM   32  C20 UNL     1      21.230  -1.346  54.496  1.00  0.00    -0.008 C 
HETATM   33  C21 UNL     1      22.416  -0.752  54.135  1.00  0.00     0.026 C 
ENDBRANCH  22  24
ENDBRANCH   5  22
BRANCH   4  34
HETATM   34  C13 UNL     1      26.676  -0.427  54.176  1.00  0.00     0.266 C 
HETATM   35  F2  UNL     1      26.313   0.061  55.426  1.00  0.00    -0.250 F 
ENDBRANCH   4  34
TORSDOF 9
ENDMDL
MODEL 2
REMARK VINA RESULT:      -7.5      3.008      5.557
REMARK  9 active torsions:
REMARK  status: ('A' for Active; 'I' for Inactive)
REMARK    1  A    between atoms: O1_2  and  C2_3 
REMARK    2  A    between atoms: C2_3  and  C3_4 
REMARK    3  A    between atoms: C7_10  and  C8_11 
REMARK    4  A    between atoms: C7_10  and  C9_13 
REMARK    5  A    between atoms: C9_13  and  N2_14 
REMARK    6  A    between atoms: N2_14  and  C10_15 
REMARK    7  A    between atoms: C12_18  and  C13_19 
REMARK    8  A    between atoms: C14_21  and  N4_22 
REMARK    9  A    between atoms: N4_22  and  C15_23 
ROOT
HETATM    1  C10 UNL     1      21.386   2.777  52.337  1.00  0.00     0.724 A 
HETATM    2  N3  UNL     1      20.436   2.046  52.910  1.00  0.00    -0.075 NA
HETATM    3  C11 UNL     1      20.636   0.839  53.440  1.00  0.00     0.149 A 
HETATM    4  C12 UNL     1      21.876   0.257  53.425  1.00  0.00     0.035 A 
HETATM    5  C14 UNL     1      22.889   1.012  52.825  1.00  0.00     0.157 A 
HETATM    6  N6  UNL     1      22.596   2.221  52.316  1.00  0.00    -0.045 NA
ENDROOT
BRANCH   1   7
HETATM    7  N2  UNL     1      21.225   4.058  51.729  1.00  0.00    -0.220 N 
HETATM    8  H18 UNL     1      20.327   4.326  51.278  1.00  0.00     0.177 HD
BRANCH   7   9
HETATM    9  C9  UNL     1      22.341   4.950  51.763  1.00  0.00     0.172 C 
BRANCH   9  10
HETATM   10  C7  UNL     1      22.736   5.514  50.411  1.00  0.00     0.084 C 
HETATM   11  C3  UNL     1      22.207   4.613  49.336  1.00  0.00     0.103 C 
HETATM   12  S1  UNL     1      23.288   3.189  49.053  1.00  0.00    -0.158 SA
HETATM   13  C4  UNL     1      24.990   3.567  49.426  1.00  0.00     0.093 C 
HETATM   14  C5  UNL     1      24.970   4.540  50.584  1.00  0.00     0.127 C 
HETATM   15  N1  UNL     1      24.152   5.669  50.416  1.00  0.00    -0.403 N 
HETATM   16  C6  UNL     1      24.682   6.915  50.825  1.00  0.00     0.144 C 
BRANCH  11  17
HETATM   17  C2  UNL     1      21.872   5.240  48.042  1.00  0.00     0.184 C 
BRANCH  17  18
HETATM   18  O1  UNL     1      20.599   5.030  47.626  1.00  0.00    -0.395 OA
HETATM   19  C1  UNL     1      19.588   4.760  48.488  1.00  0.00     0.201 C 
ENDBRANCH  17  18
ENDBRANCH  11  17
BRANCH  10  20
HETATM   20  C8  UNL     1      22.144   6.894  50.301  1.00  0.00     0.255 C 
HETATM   21  F1  UNL     1      21.355   7.291  51.323  1.00  0.00    -0.253 F 
ENDBRANCH  10  20
ENDBRANCH   9  10
ENDBRANCH   7   9
ENDBRANCH   1   7
BRANCH   5  22
HETATM   22  N4  UNL     1      24.194   0.553  52.705  1.00  0.00    -0.340 N 
HETATM   23  H22 UNL     1      24.354  -0.278  52.053  1.00  0.00     0.167 HD
BRANCH  22  24
HETATM   24  C15 UNL     1      25.578   0.478  52.894  1.00  0.00     0.033 C 
HETATM   25  C16 UNL     1      26.281  -0.656  52.914  1.00  0.00     0.031 C 
HETATM   26  C17 UNL     1      27.425  -1.469  53.019  1.00  0.00     0.028 C 
HETATM   27  C18 UNL     1      28.657  -1.071  53.222  1.00  0.00     0.160 C 
HETATM   28  O2  UNL     1      29.856  -0.312  53.444  1.00  0.00    -0.276 OA
HETATM   29  N5  UNL     1      29.660   0.989  54.026  1.00  0.00    -0.197 NA
HETATM   30  C19 UNL     1      28.565   1.402  53.330  1.00  0.00     0.145 C 
HETATM   31  H26 UNL     1      30.510   1.545  53.812  1.00  0.00     0.154 HD
HETATM   32  C20 UNL     1      27.487   2.285  53.222  1.00  0.00    -0.008 C 
HETATM   33  C21 UNL     1      26.194   1.857  53.036  1.00  0.00     0.026 C 
ENDBRANCH  22  24
ENDBRANCH   5  22
BRANCH   4  34
HETATM   34  C13 UNL     1      22.151  -1.085  53.993  1.00  0.00     0.266 C 
HETATM   35  F2  UNL     1      22.503  -0.898  55.325  1.00  0.00    -0.250 F 
ENDBRANCH   4  34
TORSDOF 9
ENDMDL
MODEL 3
REMARK VINA RESULT:      -7.5      2.883      5.419
REMARK  9 active torsions:
REMARK  status: ('A' for Active; 'I' for Inactive)
REMARK    1  A    between atoms: O1_2  and  C2_3 
REMARK    2  A    between atoms: C2_3  and  C3_4 
REMARK    3  A    between atoms: C7_10  and  C8_11 
REMARK    4  A    between atoms: C7_10  and  C9_13 
REMARK    5  A    between atoms: C9_13  and  N2_14 
REMARK    6  A    between atoms: N2_14  and  C10_15 
REMARK    7  A    between atoms: C12_18  and  C13_19 
REMARK    8  A    between atoms: C14_21  and  N4_22 
REMARK    9  A    between atoms: N4_22  and  C15_23 
ROOT
HETATM    1  C10 UNL     1      21.435   2.276  52.298  1.00  0.00     0.724 A 
HETATM    2  N3  UNL     1      20.468   1.681  52.988  1.00  0.00    -0.075 NA
HETATM    3  C11 UNL     1      20.654   0.632  53.789  1.00  0.00     0.149 A 
HETATM    4  C12 UNL     1      21.898   0.081  53.955  1.00  0.00     0.035 A 
HETATM    5  C14 UNL     1      22.929   0.694  53.235  1.00  0.00     0.157 A 
HETATM    6  N6  UNL     1      22.649   1.749  52.451  1.00  0.00    -0.045 NA
ENDROOT
BRANCH   1   7
HETATM    7  N2  UNL     1      21.290   3.379  51.406  1.00  0.00    -0.220 N 
HETATM    8  H18 UNL     1      20.437   3.974  51.425  1.00  0.00     0.177 HD
BRANCH   7   9
HETATM    9  C9  UNL     1      22.356   3.632  50.488  1.00  0.00     0.172 C 
BRANCH   9  10
HETATM   10  C7  UNL     1      22.646   5.103  50.251  1.00  0.00     0.084 C 
HETATM   11  C3  UNL     1      21.361   5.870  50.330  1.00  0.00     0.103 C 
HETATM   12  S1  UNL     1      20.437   5.805  48.774  1.00  0.00    -0.158 SA
HETATM   13  C4  UNL     1      21.520   5.625  47.370  1.00  0.00     0.093 C 
HETATM   14  C5  UNL     1      22.682   4.773  47.830  1.00  0.00     0.127 C 
HETATM   15  N1  UNL     1      23.325   5.203  49.002  1.00  0.00    -0.403 N 
HETATM   16  C6  UNL     1      24.739   5.169  49.011  1.00  0.00     0.144 C 
BRANCH  11  17
HETATM   17  C2  UNL     1      21.444   7.269  50.794  1.00  0.00     0.184 C 
BRANCH  17  18
HETATM   18  O1  UNL     1      21.490   8.191  49.802  1.00  0.00    -0.395 OA
HETATM   19  C1  UNL     1      22.650   8.767  49.399  1.00  0.00     0.201 C 
ENDBRANCH  17  18
ENDBRANCH  11  17
BRANCH  10  20
HETATM   20  C8  UNL     1      23.613   5.554  51.313  1.00  0.00     0.255 C 
HETATM   21  F1  UNL     1      23.990   4.622  52.215  1.00  0.00    -0.253 F 
ENDBRANCH  10  20
ENDBRANCH   9  10
ENDBRANCH   7   9
ENDBRANCH   1   7
BRANCH   5  22
HETATM   22  N4  UNL     1      24.241   0.241  53.274  1.00  0.00    -0.340 N 
HETATM   23  H22 UNL     1      24.385  -0.817  53.259  1.00  0.00     0.167 HD
BRANCH  22  24
HETATM   24  C15 UNL     1      25.638   0.279  53.308  1.00  0.00     0.033 C 
HETATM   25  C16 UNL     1      26.430  -0.789  53.198  1.00  0.00     0.031 C 
HETATM   26  C17 UNL     1      27.642  -1.503  53.140  1.00  0.00     0.028 C 
HETATM   27  C18 UNL     1      28.852  -1.008  53.228  1.00  0.00     0.160 C 
HETATM   28  O2  UNL     1      30.002  -0.157  53.355  1.00  0.00    -0.276 OA
HETATM   29  N5  UNL     1      29.766   1.099  54.017  1.00  0.00    -0.197 NA
HETATM   30  C19 UNL     1      28.570   1.442  53.464  1.00  0.00     0.145 C 
HETATM   31  H26 UNL     1      30.538   1.735  53.739  1.00  0.00     0.154 HD
HETATM   32  C20 UNL     1      27.418   2.231  53.515  1.00  0.00    -0.008 C 
HETATM   33  C21 UNL     1      26.152   1.699  53.449  1.00  0.00     0.026 C 
ENDBRANCH  22  24
ENDBRANCH   5  22
BRANCH   4  34
HETATM   34  C13 UNL     1      22.159  -1.090  54.827  1.00  0.00     0.266 C 
HETATM   35  F2  UNL     1      21.057  -1.930  54.718  1.00  0.00    -0.250 F 
ENDBRANCH   4  34
TORSDOF 9
ENDMDL
MODEL 4
REMARK VINA RESULT:      -7.4      6.463      8.657
REMARK  9 active torsions:
REMARK  status: ('A' for Active; 'I' for Inactive)
REMARK    1  A    between atoms: O1_2  and  C2_3 
REMARK    2  A    between atoms: C2_3  and  C3_4 
REMARK    3  A    between atoms: C7_10  and  C8_11 
REMARK    4  A    between atoms: C7_10  and  C9_13 
REMARK    5  A    between atoms: C9_13  and  N2_14 
REMARK    6  A    between atoms: N2_14  and  C10_15 
REMARK    7  A    between atoms: C12_18  and  C13_19 
REMARK    8  A    between atoms: C14_21  and  N4_22 
REMARK    9  A    between atoms: N4_22  and  C15_23 
ROOT
HETATM    1  C10 UNL     1      30.007   5.637  47.906  1.00  0.00     0.724 A 
HETATM    2  N3  UNL     1      29.720   6.934  47.878  1.00  0.00    -0.075 NA
HETATM    3  C11 UNL     1      28.534   7.447  48.206  1.00  0.00     0.149 A 
HETATM    4  C12 UNL     1      27.500   6.641  48.605  1.00  0.00     0.035 A 
HETATM    5  C14 UNL     1      27.783   5.272  48.640  1.00  0.00     0.157 A 
HETATM    6  N6  UNL     1      29.009   4.843  48.293  1.00  0.00    -0.045 NA
ENDROOT
BRANCH   1   7
HETATM    7  N2  UNL     1      31.244   5.030  47.539  1.00  0.00    -0.220 N 
HETATM    8  H18 UNL     1      31.317   4.435  46.690  1.00  0.00     0.177 HD
BRANCH   7   9
HETATM    9  C9  UNL     1      32.373   5.270  48.383  1.00  0.00     0.172 C 
BRANCH   9  10
HETATM   10  C7  UNL     1      33.554   5.918  47.684  1.00  0.00     0.084 C 
HETATM   11  C3  UNL     1      33.285   5.955  46.210  1.00  0.00     0.103 C 
HETATM   12  S1  UNL     1      33.682   4.380  45.410  1.00  0.00    -0.158 SA
HETATM   13  C4  UNL     1      34.986   3.515  46.264  1.00  0.00     0.093 C 
HETATM   14  C5  UNL     1      34.817   3.827  47.735  1.00  0.00     0.127 C 
HETATM   15  N1  UNL     1      34.719   5.190  48.061  1.00  0.00    -0.403 N 
HETATM   16  C6  UNL     1      35.446   5.636  49.189  1.00  0.00     0.144 C 
BRANCH  11  17
HETATM   17  C2  UNL     1      33.895   7.061  45.446  1.00  0.00     0.184 C 
BRANCH  17  18
HETATM   18  O1  UNL     1      33.031   7.744  44.655  1.00  0.00    -0.395 OA
HETATM   19  C1  UNL     1      31.702   7.808  44.917  1.00  0.00     0.201 C 
ENDBRANCH  17  18
ENDBRANCH  11  17
BRANCH  10  20
HETATM   20  C8  UNL     1      33.707   7.308  48.242  1.00  0.00     0.255 C 
HETATM   21  F1  UNL     1      32.700   7.754  49.025  1.00  0.00    -0.253 F 
ENDBRANCH  10  20
ENDBRANCH   9  10
ENDBRANCH   7   9
ENDBRANCH   1   7
BRANCH   5  22
HETATM   22  N4  UNL     1      26.837   4.320  48.996  1.00  0.00    -0.340 N 
HETATM   23  H22 UNL     1      26.355   3.799  48.198  1.00  0.00     0.167 HD
BRANCH  22  24
HETATM   24  C15 UNL     1      26.036   3.511  49.808  1.00  0.00     0.033 C 
HETATM   25  C16 UNL     1      26.499   2.604  50.670  1.00  0.00     0.031 C 
HETATM   26  C17 UNL     1      26.433   1.594  51.647  1.00  0.00     0.028 C 
HETATM   27  C18 UNL     1      25.350   1.082  52.178  1.00  0.00     0.160 C 
HETATM   28  O2  UNL     1      24.000   0.752  52.542  1.00  0.00    -0.276 OA
HETATM   29  N5  UNL     1      23.003   1.070  51.555  1.00  0.00    -0.197 NA
HETATM   30  C19 UNL     1      23.449   2.289  51.144  1.00  0.00     0.145 C 
HETATM   31  H26 UNL     1      22.092   1.117  52.052  1.00  0.00     0.154 HD
HETATM   32  C20 UNL     1      23.422   3.306  50.187  1.00  0.00    -0.008 C 
HETATM   33  C21 UNL     1      24.563   3.818  49.616  1.00  0.00     0.026 C 
ENDBRANCH  22  24
ENDBRANCH   5  22
BRANCH   4  34
HETATM   34  C13 UNL     1      26.160   7.159  48.973  1.00  0.00     0.266 C 
HETATM   35  F2  UNL     1      26.081   7.132  50.360  1.00  0.00    -0.250 F 
ENDBRANCH   4  34
TORSDOF 9
ENDMDL
MODEL 5
REMARK VINA RESULT:      -7.4      2.960      5.536
REMARK  9 active torsions:
REMARK  status: ('A' for Active; 'I' for Inactive)
REMARK    1  A    between atoms: O1_2  and  C2_3 
REMARK    2  A    between atoms: C2_3  and  C3_4 
REMARK    3  A    between atoms: C7_10  and  C8_11 
REMARK    4  A    between atoms: C7_10  and  C9_13 
REMARK    5  A    between atoms: C9_13  and  N2_14 
REMARK    6  A    between atoms: N2_14  and  C10_15 
REMARK    7  A    between atoms: C12_18  and  C13_19 
REMARK    8  A    between atoms: C14_21  and  N4_22 
REMARK    9  A    between atoms: N4_22  and  C15_23 
ROOT
HETATM    1  C10 UNL     1      21.466   2.102  51.803  1.00  0.00     0.724 A 
HETATM    2  N3  UNL     1      20.493   1.238  52.071  1.00  0.00    -0.075 NA
HETATM    3  C11 UNL     1      20.654   0.125  52.787  1.00  0.00     0.149 A 
HETATM    4  C12 UNL     1      21.877  -0.210  53.309  1.00  0.00     0.035 A 
HETATM    5  C14 UNL     1      22.914   0.689  53.036  1.00  0.00     0.157 A 
HETATM    6  N6  UNL     1      22.659   1.788  52.305  1.00  0.00    -0.045 NA
ENDROOT
BRANCH   1   7
HETATM    7  N2  UNL     1      21.359   3.290  51.021  1.00  0.00    -0.220 N 
HETATM    8  H18 UNL     1      20.580   3.415  50.342  1.00  0.00     0.177 HD
BRANCH   7   9
HETATM    9  C9  UNL     1      22.359   4.294  51.204  1.00  0.00     0.172 C 
BRANCH   9  10
HETATM   10  C7  UNL     1      22.938   4.846  49.914  1.00  0.00     0.084 C 
HETATM   11  C3  UNL     1      24.363   5.246  50.153  1.00  0.00     0.103 C 
HETATM   12  S1  UNL     1      24.487   6.888  50.906  1.00  0.00    -0.158 SA
HETATM   13  C4  UNL     1      23.120   7.933  50.443  1.00  0.00     0.093 C 
HETATM   14  C5  UNL     1      21.914   7.029  50.310  1.00  0.00     0.127 C 
HETATM   15  N1  UNL     1      22.085   5.904  49.486  1.00  0.00    -0.403 N 
HETATM   16  C6  UNL     1      21.029   5.589  48.600  1.00  0.00     0.144 C 
BRANCH  11  17
HETATM   17  C2  UNL     1      25.284   5.162  49.003  1.00  0.00     0.184 C 
BRANCH  17  18
HETATM   18  O1  UNL     1      26.347   4.342  49.189  1.00  0.00    -0.395 OA
HETATM   19  C1  UNL     1      26.437   3.498  50.248  1.00  0.00     0.201 C 
ENDBRANCH  17  18
ENDBRANCH  11  17
BRANCH  10  20
HETATM   20  C8  UNL     1      22.847   3.762  48.873  1.00  0.00     0.255 C 
HETATM   21  F1  UNL     1      23.486   2.605  49.154  1.00  0.00    -0.253 F 
ENDBRANCH  10  20
ENDBRANCH   9  10
ENDBRANCH   7   9
ENDBRANCH   1   7
BRANCH   5  22
HETATM   22  N4  UNL     1      24.216   0.482  53.469  1.00  0.00    -0.340 N 
HETATM   23  H22 UNL     1      24.342   0.163  54.481  1.00  0.00     0.167 HD
BRANCH  22  24
HETATM   24  C15 UNL     1      25.612   0.399  53.429  1.00  0.00     0.033 C 
HETATM   25  C16 UNL     1      26.301  -0.729  53.247  1.00  0.00     0.031 C 
HETATM   26  C17 UNL     1      27.441  -1.542  53.105  1.00  0.00     0.028 C 
HETATM   27  C18 UNL     1      28.693  -1.155  53.140  1.00  0.00     0.160 C 
HETATM   28  O2  UNL     1      29.918  -0.409  53.228  1.00  0.00    -0.276 OA
HETATM   29  N5  UNL     1      29.826   0.840  53.935  1.00  0.00    -0.197 NA
HETATM   30  C19 UNL     1      28.637   1.302  53.457  1.00  0.00     0.145 C 
HETATM   31  H26 UNL     1      30.636   1.416  53.633  1.00  0.00     0.154 HD
HETATM   32  C20 UNL     1      27.563   2.184  53.591  1.00  0.00    -0.008 C 
HETATM   33  C21 UNL     1      26.253   1.765  53.580  1.00  0.00     0.026 C 
ENDBRANCH  22  24
ENDBRANCH   5  22
BRANCH   4  34
HETATM   34  C13 UNL     1      22.112  -1.438  54.105  1.00  0.00     0.266 C 
HETATM   35  F2  UNL     1      20.907  -1.763  54.716  1.00  0.00    -0.250 F 
ENDBRANCH   4  34
TORSDOF 9
ENDMDL
MODEL 6
REMARK VINA RESULT:      -7.2      4.520      6.748
REMARK  9 active torsions:
REMARK  status: ('A' for Active; 'I' for Inactive)
REMARK    1  A    between atoms: O1_2  and  C2_3 
REMARK    2  A    between atoms: C2_3  and  C3_4 
REMARK    3  A    between atoms: C7_10  and  C8_11 
REMARK    4  A    between atoms: C7_10  and  C9_13 
REMARK    5  A    between atoms: C9_13  and  N2_14 
REMARK    6  A    between atoms: N2_14  and  C10_15 
REMARK    7  A    between atoms: C12_18  and  C13_19 
REMARK    8  A    between atoms: C14_21  and  N4_22 
REMARK    9  A    between atoms: N4_22  and  C15_23 
ROOT
HETATM    1  C10 UNL     1      25.651   5.973  49.178  1.00  0.00     0.724 A 
HETATM    2  N3  UNL     1      24.420   6.218  49.615  1.00  0.00    -0.075 NA
HETATM    3  C11 UNL     1      23.776   5.460  50.502  1.00  0.00     0.149 A 
HETATM    4  C12 UNL     1      24.361   4.342  51.037  1.00  0.00     0.035 A 
HETATM    5  C14 UNL     1      25.657   4.069  50.588  1.00  0.00     0.157 A 
HETATM    6  N6  UNL     1      26.231   4.889  49.691  1.00  0.00    -0.045 NA
ENDROOT
BRANCH   1   7
HETATM    7  N2  UNL     1      26.378   6.730  48.211  1.00  0.00    -0.220 N 
HETATM    8  H18 UNL     1      25.906   7.110  47.366  1.00  0.00     0.177 HD
BRANCH   7   9
HETATM    9  C9  UNL     1      27.771   6.940  48.448  1.00  0.00     0.172 C 
BRANCH   9  10
HETATM   10  C7  UNL     1      28.235   8.370  48.244  1.00  0.00     0.084 C 
HETATM   11  C3  UNL     1      27.364   9.021  47.212  1.00  0.00     0.103 C 
HETATM   12  S1  UNL     1      27.892   8.614  45.528  1.00  0.00    -0.158 SA
HETATM   13  C4  UNL     1      29.645   8.302  45.443  1.00  0.00     0.093 C 
HETATM   14  C5  UNL     1      30.029   7.647  46.751  1.00  0.00     0.127 C 
HETATM   15  N1  UNL     1      29.620   8.322  47.913  1.00  0.00    -0.403 N 
HETATM   16  C6  UNL     1      30.559   8.419  48.966  1.00  0.00     0.144 C 
BRANCH  11  17
HETATM   17  C2  UNL     1      27.166  10.479  47.326  1.00  0.00     0.184 C 
BRANCH  17  18
HETATM   18  O1  UNL     1      28.049  11.226  46.620  1.00  0.00    -0.395 OA
HETATM   19  C1  UNL     1      29.075  11.888  47.210  1.00  0.00     0.201 C 
ENDBRANCH  17  18
ENDBRANCH  11  17
BRANCH  10  20
HETATM   20  C8  UNL     1      28.126   9.078  49.569  1.00  0.00     0.255 C 
HETATM   21  F1  UNL     1      27.140   8.660  50.392  1.00  0.00    -0.253 F 
ENDBRANCH  10  20
ENDBRANCH   9  10
ENDBRANCH   7   9
ENDBRANCH   1   7
BRANCH   5  22
HETATM   22  N4  UNL     1      26.378   2.961  51.012  1.00  0.00    -0.340 N 
HETATM   23  H22 UNL     1      26.872   2.390  50.256  1.00  0.00     0.167 HD
BRANCH  22  24
HETATM   24  C15 UNL     1      26.945   2.021  51.878  1.00  0.00     0.033 C 
HETATM   25  C16 UNL     1      27.848   2.303  52.819  1.00  0.00     0.031 C 
HETATM   26  C17 UNL     1      28.740   2.046  53.877  1.00  0.00     0.028 C 
HETATM   27  C18 UNL     1      28.985   0.885  54.435  1.00  0.00     0.160 C 
HETATM   28  O2  UNL     1      29.015  -0.501  54.809  1.00  0.00    -0.276 OA
HETATM   29  N5  UNL     1      28.594  -1.422  53.787  1.00  0.00    -0.197 NA
HETATM   30  C19 UNL     1      27.523  -0.748  53.281  1.00  0.00     0.145 C 
HETATM   31  H26 UNL     1      28.329  -2.303  54.267  1.00  0.00     0.154 HD
HETATM   32  C20 UNL     1      26.606  -0.582  52.241  1.00  0.00    -0.008 C 
HETATM   33  C21 UNL     1      26.375   0.635  51.644  1.00  0.00     0.026 C 
ENDBRANCH  22  24
ENDBRANCH   5  22
BRANCH   4  34
HETATM   34  C13 UNL     1      23.686   3.462  52.020  1.00  0.00     0.266 C 
HETATM   35  F2  UNL     1      24.115   3.858  53.282  1.00  0.00    -0.250 F 
ENDBRANCH   4  34
TORSDOF 9
ENDMDL
MODEL 7
REMARK VINA RESULT:      -7.2      4.810      6.945
REMARK  9 active torsions:
REMARK  status: ('A' for Active; 'I' for Inactive)
REMARK    1  A    between atoms: O1_2  and  C2_3 
REMARK    2  A    between atoms: C2_3  and  C3_4 
REMARK    3  A    between atoms: C7_10  and  C8_11 
REMARK    4  A    between atoms: C7_10  and  C9_13 
REMARK    5  A    between atoms: C9_13  and  N2_14 
REMARK    6  A    between atoms: N2_14  and  C10_15 
REMARK    7  A    between atoms: C12_18  and  C13_19 
REMARK    8  A    between atoms: C14_21  and  N4_22 
REMARK    9  A    between atoms: N4_22  and  C15_23 
ROOT
HETATM    1  C10 UNL     1      26.357   6.306  49.136  1.00  0.00     0.724 A 
HETATM    2  N3  UNL     1      25.187   6.535  48.549  1.00  0.00    -0.075 NA
HETATM    3  C11 UNL     1      24.157   5.689  48.576  1.00  0.00     0.149 A 
HETATM    4  C12 UNL     1      24.244   4.489  49.232  1.00  0.00     0.035 A 
HETATM    5  C14 UNL     1      25.469   4.230  49.855  1.00  0.00     0.157 A 
HETATM    6  N6  UNL     1      26.454   5.142  49.776  1.00  0.00    -0.045 NA
ENDROOT
BRANCH   1   7
HETATM    7  N2  UNL     1      27.501   7.158  49.116  1.00  0.00    -0.220 N 
HETATM    8  H18 UNL     1      27.966   7.449  49.999  1.00  0.00     0.177 HD
BRANCH   7   9
HETATM    9  C9  UNL     1      27.976   7.596  47.841  1.00  0.00     0.172 C 
BRANCH   9  10
HETATM   10  C7  UNL     1      29.487   7.693  47.733  1.00  0.00     0.084 C 
HETATM   11  C3  UNL     1      30.044   8.106  49.062  1.00  0.00     0.103 C 
HETATM   12  S1  UNL     1      29.951   9.898  49.306  1.00  0.00    -0.158 SA
HETATM   13  C4  UNL     1      30.038  10.781  47.759  1.00  0.00     0.093 C 
HETATM   14  C5  UNL     1      29.341   9.917  46.732  1.00  0.00     0.127 C 
HETATM   15  N1  UNL     1      29.778   8.584  46.660  1.00  0.00    -0.403 N 
HETATM   16  C6  UNL     1      29.958   8.033  45.370  1.00  0.00     0.144 C 
BRANCH  11  17
HETATM   17  C2  UNL     1      31.402   7.635  49.395  1.00  0.00     0.184 C 
BRANCH  17  18
HETATM   18  O1  UNL     1      32.403   8.422  48.931  1.00  0.00    -0.395 OA
HETATM   19  C1  UNL     1      33.298   7.990  48.008  1.00  0.00     0.201 C 
ENDBRANCH  17  18
ENDBRANCH  11  17
BRANCH  10  20
HETATM   20  C8  UNL     1      30.003   6.337  47.328  1.00  0.00     0.255 C 
HETATM   21  F1  UNL     1      29.345   5.270  47.832  1.00  0.00    -0.253 F 
ENDBRANCH  10  20
ENDBRANCH   9  10
ENDBRANCH   7   9
ENDBRANCH   1   7
BRANCH   5  22
HETATM   22  N4  UNL     1      25.728   3.049  50.537  1.00  0.00    -0.340 N 
HETATM   23  H22 UNL     1      25.928   2.184  49.942  1.00  0.00     0.167 HD
BRANCH  22  24
HETATM   24  C15 UNL     1      25.931   2.174  51.608  1.00  0.00     0.033 C 
HETATM   25  C16 UNL     1      27.083   2.030  52.265  1.00  0.00     0.031 C 
HETATM   26  C17 UNL     1      27.970   1.511  53.226  1.00  0.00     0.028 C 
HETATM   27  C18 UNL     1      27.706   0.602  54.132  1.00  0.00     0.160 C 
HETATM   28  O2  UNL     1      27.091  -0.385  54.976  1.00  0.00    -0.276 OA
HETATM   29  N5  UNL     1      25.939  -1.040  54.416  1.00  0.00    -0.197 NA
HETATM   30  C19 UNL     1      25.315   0.023  53.836  1.00  0.00     0.145 C 
HETATM   31  H26 UNL     1      25.405  -1.440  55.211  1.00  0.00     0.154 HD
HETATM   32  C20 UNL     1      24.364   0.493  52.928  1.00  0.00    -0.008 C 
HETATM   33  C21 UNL     1      24.658   1.428  51.963  1.00  0.00     0.026 C 
ENDBRANCH  22  24
ENDBRANCH   5  22
BRANCH   4  34
HETATM   34  C13 UNL     1      23.132   3.509  49.285  1.00  0.00     0.266 C 
HETATM   35  F2  UNL     1      23.388   2.550  48.312  1.00  0.00    -0.250 F 
ENDBRANCH   4  34
TORSDOF 9
ENDMDL
MODEL 8
REMARK VINA RESULT:      -7.2      5.647      7.674
REMARK  9 active torsions:
REMARK  status: ('A' for Active; 'I' for Inactive)
REMARK    1  A    between atoms: O1_2  and  C2_3 
REMARK    2  A    between atoms: C2_3  and  C3_4 
REMARK    3  A    between atoms: C7_10  and  C8_11 
REMARK    4  A    between atoms: C7_10  and  C9_13 
REMARK    5  A    between atoms: C9_13  and  N2_14 
REMARK    6  A    between atoms: N2_14  and  C10_15 
REMARK    7  A    between atoms: C12_18  and  C13_19 
REMARK    8  A    between atoms: C14_21  and  N4_22 
REMARK    9  A    between atoms: N4_22  and  C15_23 
ROOT
HETATM    1  C10 UNL     1      27.957   5.484  48.480  1.00  0.00     0.724 A 
HETATM    2  N3  UNL     1      26.912   6.258  48.210  1.00  0.00    -0.075 NA
HETATM    3  C11 UNL     1      25.674   6.025  48.646  1.00  0.00     0.149 A 
HETATM    4  C12 UNL     1      25.392   4.934  49.425  1.00  0.00     0.035 A 
HETATM    5  C14 UNL     1      26.481   4.106  49.718  1.00  0.00     0.157 A 
HETATM    6  N6  UNL     1      27.696   4.419  49.236  1.00  0.00    -0.045 NA
ENDROOT
BRANCH   1   7
HETATM    7  N2  UNL     1      29.295   5.667  48.018  1.00  0.00    -0.220 N 
HETATM    8  H18 UNL     1      29.826   4.880  47.594  1.00  0.00     0.177 HD
BRANCH   7   9
HETATM    9  C9  UNL     1      29.872   6.966  48.165  1.00  0.00     0.172 C 
BRANCH   9  10
HETATM   10  C7  UNL     1      30.955   7.291  47.152  1.00  0.00     0.084 C 
HETATM   11  C3  UNL     1      31.763   6.056  46.893  1.00  0.00     0.103 C 
HETATM   12  S1  UNL     1      33.031   5.798  48.159  1.00  0.00    -0.158 SA
HETATM   13  C4  UNL     1      33.583   7.339  48.865  1.00  0.00     0.093 C 
HETATM   14  C5  UNL     1      32.380   8.257  48.886  1.00  0.00     0.127 C 
HETATM   15  N1  UNL     1      31.697   8.393  47.667  1.00  0.00    -0.403 N 
HETATM   16  C6  UNL     1      31.292   9.697  47.297  1.00  0.00     0.144 C 
BRANCH  11  17
HETATM   17  C2  UNL     1      32.372   5.923  45.554  1.00  0.00     0.184 C 
BRANCH  17  18
HETATM   18  O1  UNL     1      33.632   6.413  45.456  1.00  0.00    -0.395 OA
HETATM   19  C1  UNL     1      33.910   7.576  44.815  1.00  0.00     0.201 C 
ENDBRANCH  17  18
ENDBRANCH  11  17
BRANCH  10  20
HETATM   20  C8  UNL     1      30.276   7.768  45.896  1.00  0.00     0.255 C 
HETATM   21  F1  UNL     1      28.925   7.751  45.901  1.00  0.00    -0.253 F 
ENDBRANCH  10  20
ENDBRANCH   9  10
ENDBRANCH   7   9
ENDBRANCH   1   7
BRANCH   5  22
HETATM   22  N4  UNL     1      26.358   2.947  50.472  1.00  0.00    -0.340 N 
HETATM   23  H22 UNL     1      26.135   2.048  49.940  1.00  0.00     0.167 HD
BRANCH  22  24
HETATM   24  C15 UNL     1      26.351   2.107  51.591  1.00  0.00     0.033 C 
HETATM   25  C16 UNL     1      27.391   1.917  52.405  1.00  0.00     0.031 C 
HETATM   26  C17 UNL     1      28.101   1.383  53.496  1.00  0.00     0.028 C 
HETATM   27  C18 UNL     1      27.652   0.533  54.387  1.00  0.00     0.160 C 
HETATM   28  O2  UNL     1      26.860  -0.373  55.172  1.00  0.00    -0.276 OA
HETATM   29  N5  UNL     1      25.751  -0.975  54.480  1.00  0.00    -0.197 NA
HETATM   30  C19 UNL     1      25.288   0.100  53.784  1.00  0.00     0.145 C 
HETATM   31  H26 UNL     1      25.087  -1.304  55.208  1.00  0.00     0.154 HD
HETATM   32  C20 UNL     1      24.504   0.592  52.738  1.00  0.00    -0.008 C 
HETATM   33  C21 UNL     1      24.992   1.463  51.792  1.00  0.00     0.026 C 
ENDBRANCH  22  24
ENDBRANCH   5  22
BRANCH   4  34
HETATM   34  C13 UNL     1      24.032   4.624  49.929  1.00  0.00     0.266 C 
HETATM   35  F2  UNL     1      24.020   4.938  51.283  1.00  0.00    -0.250 F 
ENDBRANCH   4  34
TORSDOF 9
ENDMDL
MODEL 9
REMARK VINA RESULT:      -7.2      5.261      9.341
REMARK  9 active torsions:
REMARK  status: ('A' for Active; 'I' for Inactive)
REMARK    1  A    between atoms: O1_2  and  C2_3 
REMARK    2  A    between atoms: C2_3  and  C3_4 
REMARK    3  A    between atoms: C7_10  and  C8_11 
REMARK    4  A    between atoms: C7_10  and  C9_13 
REMARK    5  A    between atoms: C9_13  and  N2_14 
REMARK    6  A    between atoms: N2_14  and  C10_15 
REMARK    7  A    between atoms: C12_18  and  C13_19 
REMARK    8  A    between atoms: C14_21  and  N4_22 
REMARK    9  A    between atoms: N4_22  and  C15_23 
ROOT
HETATM    1  C10 UNL     1      26.673   4.846  49.035  1.00  0.00     0.724 A 
HETATM    2  N3  UNL     1      26.236   6.089  49.210  1.00  0.00    -0.075 NA
HETATM    3  C11 UNL     1      26.952   7.180  48.937  1.00  0.00     0.149 A 
HETATM    4  C12 UNL     1      28.227   7.085  48.444  1.00  0.00     0.035 A 
HETATM    5  C14 UNL     1      28.704   5.783  48.255  1.00  0.00     0.157 A 
HETATM    6  N6  UNL     1      27.911   4.740  48.557  1.00  0.00    -0.045 NA
ENDROOT
BRANCH   1   7
HETATM    7  N2  UNL     1      25.965   3.645  49.336  1.00  0.00    -0.220 N 
HETATM    8  H18 UNL     1      25.611   3.028  48.577  1.00  0.00     0.177 HD
BRANCH   7   9
HETATM    9  C9  UNL     1      25.759   3.326  50.714  1.00  0.00     0.172 C 
BRANCH   9  10
HETATM   10  C7  UNL     1      24.349   2.876  51.052  1.00  0.00     0.084 C 
HETATM   11  C3  UNL     1      23.534   2.848  49.794  1.00  0.00     0.103 C 
HETATM   12  S1  UNL     1      22.902   4.489  49.361  1.00  0.00    -0.158 SA
HETATM   13  C4  UNL     1      22.653   5.503  50.805  1.00  0.00     0.093 C 
HETATM   14  C5  UNL     1      23.737   5.124  51.789  1.00  0.00     0.127 C 
HETATM   15  N1  UNL     1      23.858   3.752  52.063  1.00  0.00    -0.403 N 
HETATM   16  C6  UNL     1      24.046   3.379  53.414  1.00  0.00     0.144 C 
BRANCH  11  17
HETATM   17  C2  UNL     1      22.434   1.866  49.731  1.00  0.00     0.184 C 
BRANCH  17  18
HETATM   18  O1  UNL     1      21.233   2.335  50.150  1.00  0.00    -0.395 OA
HETATM   19  C1  UNL     1      20.704   2.004  51.354  1.00  0.00     0.201 C 
ENDBRANCH  17  18
ENDBRANCH  11  17
BRANCH  10  20
HETATM   20  C8  UNL     1      24.443   1.505  51.668  1.00  0.00     0.255 C 
HETATM   21  F1  UNL     1      25.654   0.908  51.618  1.00  0.00    -0.253 F 
ENDBRANCH  10  20
ENDBRANCH   9  10
ENDBRANCH   7   9
ENDBRANCH   1   7
BRANCH   5  22
HETATM   22  N4  UNL     1      29.983   5.515  47.788  1.00  0.00    -0.340 N 
HETATM   23  H22 UNL     1      30.227   5.882  46.815  1.00  0.00     0.167 HD
BRANCH  22  24
HETATM   24  C15 UNL     1      31.299   5.040  47.773  1.00  0.00     0.033 C 
HETATM   25  C16 UNL     1      31.709   3.961  47.104  1.00  0.00     0.031 C 
HETATM   26  C17 UNL     1      32.619   2.993  46.640  1.00  0.00     0.028 C 
HETATM   27  C18 UNL     1      33.900   2.924  46.908  1.00  0.00     0.160 C 
HETATM   28  O2  UNL     1      35.234   3.142  47.394  1.00  0.00    -0.276 OA
HETATM   29  N5  UNL     1      35.328   3.909  48.607  1.00  0.00    -0.197 NA
HETATM   30  C19 UNL     1      34.397   4.871  48.358  1.00  0.00     0.145 C 
HETATM   31  H26 UNL     1      36.296   4.283  48.652  1.00  0.00     0.154 HD
HETATM   32  C20 UNL     1      33.568   5.881  48.852  1.00  0.00    -0.008 C 
HETATM   33  C21 UNL     1      32.220   5.930  48.586  1.00  0.00     0.026 C 
ENDBRANCH  22  24
ENDBRANCH   5  22
BRANCH   4  34
HETATM   34  C13 UNL     1      29.068   8.265  48.132  1.00  0.00     0.266 C 
HETATM   35  F2  UNL     1      29.915   8.459  49.218  1.00  0.00    -0.250 F 
ENDBRANCH   4  34
TORSDOF 9
ENDMDL
