MODEL 1
REMARK VINA RESULT:      -9.2      0.000      0.000
REMARK  3 active torsions:
REMARK  status: ('A' for Active; 'I' for Inactive)
REMARK    1  A    between atoms: C14_16  and  C15_17 
REMARK    2  A    between atoms: C15_17  and  N2_19 
REMARK    3  A    between atoms: N2_19  and  C16_20 
ROOT
HETATM    1  C1  UNL     1      20.813   2.524  48.526  1.00  0.00    -0.011 C 
HETATM    2  C2  UNL     1      21.368   1.937  49.658  1.00  0.00     0.027 A 
HETATM    3  C3  UNL     1      22.851   2.092  50.030  1.00  0.00    -0.018 A 
HETATM    4  C4  UNL     1      23.193   2.963  48.880  1.00  0.00     0.018 C 
HETATM    5  C5  UNL     1      22.238   1.311  50.954  1.00  0.00     0.003 A 
HETATM    6  C6  UNL     1      21.099   0.657  51.466  1.00  0.00     0.035 C 
HETATM    7  C7  UNL     1      19.710   0.488  51.099  1.00  0.00     0.122 C 
HETATM    8  N1  UNL     1      19.122  -0.356  52.174  1.00  0.00    -0.397 N 
HETATM    9  C8  UNL     1      17.716  -0.590  51.736  1.00  0.00     0.148 C 
HETATM   10  C9  UNL     1      19.090  -1.078  53.449  1.00  0.00     0.066 C 
HETATM   11  C10 UNL     1      20.258  -1.071  53.980  1.00  0.00     0.071 A 
HETATM   12  C11 UNL     1      21.513  -1.220  54.832  1.00  0.00     0.046 A 
HETATM   13  C12 UNL     1      21.857  -0.491  53.765  1.00  0.00     0.111 A 
HETATM   14  F1  UNL     1      23.095  -0.414  54.223  1.00  0.00    -0.383 F 
HETATM   15  C13 UNL     1      22.993   0.345  53.074  1.00  0.00     0.199 A 
HETATM   16  C14 UNL     1      23.345   1.138  51.938  1.00  0.00     0.001 C 
ENDROOT
BRANCH  16  17
HETATM   17  C15 UNL     1      24.706   1.581  52.200  1.00  0.00     0.107 C 
HETATM   18  S1  UNL     1      24.629   2.908  53.074  1.00  0.00    -0.060 SA
BRANCH  17  19
HETATM   19  N2  UNL     1      26.038   1.131  51.903  1.00  0.00    -0.347 N 
HETATM   20  H18 UNL     1      26.284   1.264  50.890  1.00  0.00     0.167 HD
BRANCH  19  21
HETATM   21  C16 UNL     1      27.169   0.577  52.524  1.00  0.00     0.033 A 
HETATM   22  C17 UNL     1      28.308   1.100  53.152  1.00  0.00     0.029 A 
HETATM   23  C18 UNL     1      29.377   0.390  53.741  1.00  0.00     0.002 A 
HETATM   24  C19 UNL     1      29.065  -0.936  53.572  1.00  0.00     0.000 A 
HETATM   25  C20 UNL     1      28.104  -1.697  53.045  1.00  0.00     0.002 A 
HETATM   26  C21 UNL     1      27.120  -0.843  52.496  1.00  0.00     0.029 A 
ENDBRANCH  19  21
ENDBRANCH  17  19
ENDBRANCH  16  17
TORSDOF 3
ENDMDL
MODEL 2
REMARK VINA RESULT:      -9.1      1.517      3.780
REMARK  3 active torsions:
REMARK  status: ('A' for Active; 'I' for Inactive)
REMARK    1  A    between atoms: C14_16  and  C15_17 
REMARK    2  A    between atoms: C15_17  and  N2_19 
REMARK    3  A    between atoms: N2_19  and  C16_20 
ROOT
HETATM    1  C1  UNL     1      20.159  -1.381  54.095  1.00  0.00    -0.011 C 
HETATM    2  C2  UNL     1      21.036  -0.580  53.371  1.00  0.00     0.027 A 
HETATM    3  C3  UNL     1      22.500  -0.366  53.787  1.00  0.00    -0.018 A 
HETATM    4  C4  UNL     1      22.435  -1.245  54.980  1.00  0.00     0.018 C 
HETATM    5  C5  UNL     1      22.247   0.344  52.660  1.00  0.00     0.003 A 
HETATM    6  C6  UNL     1      21.383   0.774  51.632  1.00  0.00     0.035 C 
HETATM    7  C7  UNL     1      19.997   0.594  51.257  1.00  0.00     0.122 C 
HETATM    8  N1  UNL     1      19.824   1.385  50.009  1.00  0.00    -0.397 N 
HETATM    9  C8  UNL     1      18.374   1.258  49.686  1.00  0.00     0.148 C 
HETATM   10  C9  UNL     1      20.245   2.200  48.866  1.00  0.00     0.066 C 
HETATM   11  C10 UNL     1      21.486   2.503  48.984  1.00  0.00     0.071 A 
HETATM   12  C11 UNL     1      22.919   3.007  48.862  1.00  0.00     0.046 A 
HETATM   13  C12 UNL     1      22.864   2.275  49.979  1.00  0.00     0.111 A 
HETATM   14  F1  UNL     1      24.144   2.519  50.197  1.00  0.00    -0.383 F 
HETATM   15  C13 UNL     1      23.681   1.650  51.166  1.00  0.00     0.199 A 
HETATM   16  C14 UNL     1      23.614   0.851  52.349  1.00  0.00     0.001 C 
ENDROOT
BRANCH  16  17
HETATM   17  C15 UNL     1      24.991   0.748  52.808  1.00  0.00     0.107 C 
HETATM   18  S1  UNL     1      25.441   2.180  53.332  1.00  0.00    -0.060 SA
BRANCH  17  19
HETATM   19  N2  UNL     1      25.991  -0.278  52.923  1.00  0.00    -0.347 N 
HETATM   20  H18 UNL     1      25.588  -1.239  52.793  1.00  0.00     0.167 HD
BRANCH  19  21
HETATM   21  C16 UNL     1      27.369  -0.443  53.136  1.00  0.00     0.033 A 
HETATM   22  C17 UNL     1      28.431   0.418  53.446  1.00  0.00     0.029 A 
HETATM   23  C18 UNL     1      29.791   0.086  53.634  1.00  0.00     0.002 A 
HETATM   24  C19 UNL     1      29.858  -1.273  53.449  1.00  0.00     0.000 A 
HETATM   25  C20 UNL     1      29.060  -2.302  53.163  1.00  0.00     0.002 A 
HETATM   26  C21 UNL     1      27.746  -1.806  53.001  1.00  0.00     0.029 A 
ENDBRANCH  19  21
ENDBRANCH  17  19
ENDBRANCH  16  17
TORSDOF 3
ENDMDL
MODEL 3
REMARK VINA RESULT:      -9.0      2.007      7.583
REMARK  3 active torsions:
REMARK  status: ('A' for Active; 'I' for Inactive)
REMARK    1  A    between atoms: C14_16  and  C15_17 
REMARK    2  A    between atoms: C15_17  and  N2_19 
REMARK    3  A    between atoms: N2_19  and  C16_20 
ROOT
HETATM    1  C1  UNL     1      23.391  -1.735  55.740  1.00  0.00    -0.011 C 
HETATM    2  C2  UNL     1      23.531  -0.870  54.660  1.00  0.00     0.027 A 
HETATM    3  C3  UNL     1      22.353  -0.473  53.757  1.00  0.00    -0.018 A 
HETATM    4  C4  UNL     1      21.339  -1.263  54.496  1.00  0.00     0.018 C 
HETATM    5  C5  UNL     1      23.481   0.134  53.313  1.00  0.00     0.003 A 
HETATM    6  C6  UNL     1      24.863   0.400  53.398  1.00  0.00     0.035 C 
HETATM    7  C7  UNL     1      25.977   0.003  54.232  1.00  0.00     0.122 C 
HETATM    8  N1  UNL     1      27.153   0.731  53.685  1.00  0.00    -0.397 N 
HETATM    9  C8  UNL     1      28.304   0.245  54.500  1.00  0.00     0.148 C 
HETATM   10  C9  UNL     1      27.863   1.687  52.830  1.00  0.00     0.066 C 
HETATM   11  C10 UNL     1      27.051   2.186  51.971  1.00  0.00     0.071 A 
HETATM   12  C11 UNL     1      26.328   2.932  50.856  1.00  0.00     0.046 A 
HETATM   13  C12 UNL     1      25.412   2.174  51.467  1.00  0.00     0.111 A 
HETATM   14  F1  UNL     1      24.490   2.626  50.635  1.00  0.00    -0.383 F 
HETATM   15  C13 UNL     1      23.889   1.801  51.566  1.00  0.00     0.199 A 
HETATM   16  C14 UNL     1      22.916   0.998  52.237  1.00  0.00     0.001 C 
ENDROOT
BRANCH  16  17
HETATM   17  C15 UNL     1      21.642   1.390  51.652  1.00  0.00     0.107 C 
HETATM   18  S1  UNL     1      21.401   2.925  51.989  1.00  0.00    -0.060 SA
BRANCH  17  19
HETATM   19  N2  UNL     1      20.609   0.775  50.864  1.00  0.00    -0.347 N 
HETATM   20  H18 UNL     1      20.957   0.480  49.918  1.00  0.00     0.167 HD
BRANCH  19  21
HETATM   21  C16 UNL     1      19.258   0.402  50.932  1.00  0.00     0.033 A 
HETATM   22  C17 UNL     1      18.151   0.535  50.082  1.00  0.00     0.029 A 
HETATM   23  C18 UNL     1      16.829   0.092  50.303  1.00  0.00     0.002 A 
HETATM   24  C19 UNL     1      16.851  -0.504  51.539  1.00  0.00     0.000 A 
HETATM   25  C20 UNL     1      17.708  -0.769  52.527  1.00  0.00     0.002 A 
HETATM   26  C21 UNL     1      18.974  -0.262  52.156  1.00  0.00     0.029 A 
ENDBRANCH  19  21
ENDBRANCH  17  19
ENDBRANCH  16  17
TORSDOF 3
ENDMDL
MODEL 4
REMARK VINA RESULT:      -8.9      3.062      5.153
REMARK  3 active torsions:
REMARK  status: ('A' for Active; 'I' for Inactive)
REMARK    1  A    between atoms: C14_16  and  C15_17 
REMARK    2  A    between atoms: C15_17  and  N2_19 
REMARK    3  A    between atoms: N2_19  and  C16_20 
ROOT
HETATM    1  C1  UNL     1      26.586  -0.381  53.096  1.00  0.00    -0.011 C 
HETATM    2  C2  UNL     1      25.520   0.457  52.788  1.00  0.00     0.027 A 
HETATM    3  C3  UNL     1      25.710   1.835  52.133  1.00  0.00    -0.018 A 
HETATM    4  C4  UNL     1      27.187   1.741  52.038  1.00  0.00     0.018 C 
HETATM    5  C5  UNL     1      24.388   1.621  52.348  1.00  0.00     0.003 A 
HETATM    6  C6  UNL     1      23.319   0.826  52.811  1.00  0.00     0.035 C 
HETATM    7  C7  UNL     1      23.144  -0.458  53.453  1.00  0.00     0.122 C 
HETATM    8  N1  UNL     1      21.674  -0.612  53.624  1.00  0.00    -0.397 N 
HETATM    9  C8  UNL     1      21.518  -1.898  54.362  1.00  0.00     0.148 C 
HETATM   10  C9  UNL     1      20.259  -0.263  53.465  1.00  0.00     0.066 C 
HETATM   11  C10 UNL     1      20.157   0.885  52.903  1.00  0.00     0.071 A 
HETATM   12  C11 UNL     1      19.739   2.203  52.260  1.00  0.00     0.046 A 
HETATM   13  C12 UNL     1      21.074   2.167  52.227  1.00  0.00     0.111 A 
HETATM   14  F1  UNL     1      21.087   3.350  51.638  1.00  0.00    -0.383 F 
HETATM   15  C13 UNL     1      22.382   2.878  51.724  1.00  0.00     0.199 A 
HETATM   16  C14 UNL     1      23.809   2.821  51.680  1.00  0.00     0.001 C 
ENDROOT
BRANCH  16  17
HETATM   17  C15 UNL     1      24.203   3.977  50.888  1.00  0.00     0.107 C 
HETATM   18  S1  UNL     1      23.722   5.283  51.655  1.00  0.00    -0.060 SA
BRANCH  17  19
HETATM   19  N2  UNL     1      24.905   4.223  49.658  1.00  0.00    -0.347 N 
HETATM   20  H18 UNL     1      24.611   3.563  48.896  1.00  0.00     0.167 HD
BRANCH  19  21
HETATM   21  C16 UNL     1      25.864   5.084  49.100  1.00  0.00     0.033 A 
HETATM   22  C17 UNL     1      25.851   6.402  48.623  1.00  0.00     0.029 A 
HETATM   23  C18 UNL     1      26.927   7.140  48.084  1.00  0.00     0.002 A 
HETATM   24  C19 UNL     1      28.004   6.289  48.124  1.00  0.00     0.000 A 
HETATM   25  C20 UNL     1      28.305   5.046  48.503  1.00  0.00     0.002 A 
HETATM   26  C21 UNL     1      27.131   4.446  49.012  1.00  0.00     0.029 A 
ENDBRANCH  19  21
ENDBRANCH  17  19
ENDBRANCH  16  17
TORSDOF 3
ENDMDL
MODEL 5
REMARK VINA RESULT:      -8.3      2.892      5.430
REMARK  3 active torsions:
REMARK  status: ('A' for Active; 'I' for Inactive)
REMARK    1  A    between atoms: C14_16  and  C15_17 
REMARK    2  A    between atoms: C15_17  and  N2_19 
REMARK    3  A    between atoms: N2_19  and  C16_20 
ROOT
HETATM    1  C1  UNL     1      26.961   1.101  52.624  1.00  0.00    -0.011 C 
HETATM    2  C2  UNL     1      25.623   1.234  52.270  1.00  0.00     0.027 A 
HETATM    3  C3  UNL     1      25.153   2.150  51.129  1.00  0.00    -0.018 A 
HETATM    4  C4  UNL     1      26.511   2.611  50.753  1.00  0.00     0.018 C 
HETATM    5  C5  UNL     1      24.076   1.549  51.692  1.00  0.00     0.003 A 
HETATM    6  C6  UNL     1      23.492   0.682  52.638  1.00  0.00     0.035 C 
HETATM    7  C7  UNL     1      23.933  -0.159  53.730  1.00  0.00     0.122 C 
HETATM    8  N1  UNL     1      22.694  -0.786  54.264  1.00  0.00    -0.397 N 
HETATM    9  C8  UNL     1      23.157  -1.580  55.440  1.00  0.00     0.148 C 
HETATM   10  C9  UNL     1      21.269  -1.125  54.302  1.00  0.00     0.066 C 
HETATM   11  C10 UNL     1      20.643  -0.471  53.394  1.00  0.00     0.071 A 
HETATM   12  C11 UNL     1      19.658   0.163  52.419  1.00  0.00     0.046 A 
HETATM   13  C12 UNL     1      20.866   0.644  52.109  1.00  0.00     0.111 A 
HETATM   14  F1  UNL     1      20.327   1.360  51.138  1.00  0.00    -0.383 F 
HETATM   15  C13 UNL     1      21.698   1.520  51.106  1.00  0.00     0.199 A 
HETATM   16  C14 UNL     1      22.998   2.014  50.773  1.00  0.00     0.001 C 
ENDROOT
BRANCH  16  17
HETATM   17  C15 UNL     1      22.805   2.771  49.545  1.00  0.00     0.107 C 
HETATM   18  S1  UNL     1      22.045   1.835  48.508  1.00  0.00    -0.060 SA
BRANCH  17  19
HETATM   19  N2  UNL     1      23.094   4.094  49.064  1.00  0.00    -0.347 N 
HETATM   20  H18 UNL     1      22.473   4.367  48.263  1.00  0.00     0.167 HD
BRANCH  19  21
HETATM   21  C16 UNL     1      23.932   5.191  49.319  1.00  0.00     0.033 A 
HETATM   22  C17 UNL     1      24.930   5.861  48.598  1.00  0.00     0.029 A 
HETATM   23  C18 UNL     1      25.695   6.975  49.005  1.00  0.00     0.002 A 
HETATM   24  C19 UNL     1      25.252   7.273  50.270  1.00  0.00     0.000 A 
HETATM   25  C20 UNL     1      24.364   6.840  51.166  1.00  0.00     0.002 A 
HETATM   26  C21 UNL     1      23.690   5.727  50.613  1.00  0.00     0.029 A 
ENDBRANCH  19  21
ENDBRANCH  17  19
ENDBRANCH  16  17
TORSDOF 3
ENDMDL
MODEL 6
REMARK VINA RESULT:      -8.2      1.865      6.617
REMARK  3 active torsions:
REMARK  status: ('A' for Active; 'I' for Inactive)
REMARK    1  A    between atoms: C14_16  and  C15_17 
REMARK    2  A    between atoms: C15_17  and  N2_19 
REMARK    3  A    between atoms: N2_19  and  C16_20 
ROOT
HETATM    1  C1  UNL     1      26.715   3.782  49.442  1.00  0.00    -0.011 C 
HETATM    2  C2  UNL     1      25.787   3.155  50.268  1.00  0.00     0.027 A 
HETATM    3  C3  UNL     1      24.286   3.486  50.230  1.00  0.00    -0.018 A 
HETATM    4  C4  UNL     1      24.393   4.492  49.146  1.00  0.00     0.018 C 
HETATM    5  C5  UNL     1      24.511   2.538  51.172  1.00  0.00     0.003 A 
HETATM    6  C6  UNL     1      25.371   1.682  51.892  1.00  0.00     0.035 C 
HETATM    7  C7  UNL     1      26.787   1.392  51.946  1.00  0.00     0.122 C 
HETATM    8  N1  UNL     1      26.930   0.334  52.982  1.00  0.00    -0.397 N 
HETATM    9  C8  UNL     1      28.401   0.110  53.085  1.00  0.00     0.148 C 
HETATM   10  C9  UNL     1      26.475  -0.663  53.955  1.00  0.00     0.066 C 
HETATM   11  C10 UNL     1      25.201  -0.590  54.088  1.00  0.00     0.071 A 
HETATM   12  C11 UNL     1      23.725  -0.727  54.442  1.00  0.00     0.046 A 
HETATM   13  C12 UNL     1      23.809   0.231  53.514  1.00  0.00     0.111 A 
HETATM   14  F1  UNL     1      22.498   0.389  53.565  1.00  0.00    -0.383 F 
HETATM   15  C13 UNL     1      23.011   1.209  52.579  1.00  0.00     0.199 A 
HETATM   16  C14 UNL     1      23.111   2.221  51.575  1.00  0.00     0.001 C 
ENDROOT
BRANCH  16  17
HETATM   17  C15 UNL     1      21.734   2.541  51.229  1.00  0.00     0.107 C 
HETATM   18  S1  UNL     1      21.371   3.934  51.905  1.00  0.00    -0.060 SA
BRANCH  17  19
HETATM   19  N2  UNL     1      20.678   1.955  50.449  1.00  0.00    -0.347 N 
HETATM   20  H18 UNL     1      20.799   2.136  49.422  1.00  0.00     0.167 HD
BRANCH  19  21
HETATM   21  C16 UNL     1      19.515   1.182  50.590  1.00  0.00     0.033 A 
HETATM   22  C17 UNL     1      18.341   1.018  49.841  1.00  0.00     0.029 A 
HETATM   23  C18 UNL     1      17.241   0.179  50.125  1.00  0.00     0.002 A 
HETATM   24  C19 UNL     1      17.565  -0.453  51.301  1.00  0.00     0.000 A 
HETATM   25  C20 UNL     1      18.555  -0.499  52.193  1.00  0.00     0.002 A 
HETATM   26  C21 UNL     1      19.567   0.393  51.770  1.00  0.00     0.029 A 
ENDBRANCH  19  21
ENDBRANCH  17  19
ENDBRANCH  16  17
TORSDOF 3
ENDMDL
MODEL 7
REMARK VINA RESULT:      -8.2      2.955      6.833
REMARK  3 active torsions:
REMARK  status: ('A' for Active; 'I' for Inactive)
REMARK    1  A    between atoms: C14_16  and  C15_17 
REMARK    2  A    between atoms: C15_17  and  N2_19 
REMARK    3  A    between atoms: N2_19  and  C16_20 
ROOT
HETATM    1  C1  UNL     1      26.740   3.901  49.443  1.00  0.00    -0.011 C 
HETATM    2  C2  UNL     1      25.730   3.268  50.161  1.00  0.00     0.027 A 
HETATM    3  C3  UNL     1      24.244   3.620  49.989  1.00  0.00    -0.018 A 
HETATM    4  C4  UNL     1      24.466   4.650  48.945  1.00  0.00     0.018 C 
HETATM    5  C5  UNL     1      24.368   2.646  50.924  1.00  0.00     0.003 A 
HETATM    6  C6  UNL     1      25.146   1.762  51.700  1.00  0.00     0.035 C 
HETATM    7  C7  UNL     1      26.547   1.452  51.882  1.00  0.00     0.122 C 
HETATM    8  N1  UNL     1      26.577   0.368  52.900  1.00  0.00    -0.397 N 
HETATM    9  C8  UNL     1      28.030   0.121  53.137  1.00  0.00     0.148 C 
HETATM   10  C9  UNL     1      26.021  -0.647  53.800  1.00  0.00     0.066 C 
HETATM   11  C10 UNL     1      24.741  -0.559  53.813  1.00  0.00     0.071 A 
HETATM   12  C11 UNL     1      23.237  -0.685  54.022  1.00  0.00     0.046 A 
HETATM   13  C12 UNL     1      23.419   0.294  53.130  1.00  0.00     0.111 A 
HETATM   14  F1  UNL     1      22.111   0.469  53.060  1.00  0.00    -0.383 F 
HETATM   15  C13 UNL     1      22.725   1.305  52.149  1.00  0.00     0.199 A 
HETATM   16  C14 UNL     1      22.932   2.339  51.184  1.00  0.00     0.001 C 
ENDROOT
BRANCH  16  17
HETATM   17  C15 UNL     1      21.598   2.686  50.717  1.00  0.00     0.107 C 
HETATM   18  S1  UNL     1      21.035   1.453  49.884  1.00  0.00    -0.060 SA
BRANCH  17  19
HETATM   19  N2  UNL     1      20.695   3.798  50.834  1.00  0.00    -0.347 N 
HETATM   20  H18 UNL     1      19.855   3.564  51.420  1.00  0.00     0.167 HD
BRANCH  19  21
HETATM   21  C16 UNL     1      20.554   5.137  50.440  1.00  0.00     0.033 A 
HETATM   22  C17 UNL     1      19.640   5.842  49.643  1.00  0.00     0.029 A 
HETATM   23  C18 UNL     1      19.637   7.222  49.341  1.00  0.00     0.002 A 
HETATM   24  C19 UNL     1      20.727   7.737  49.998  1.00  0.00     0.000 A 
HETATM   25  C20 UNL     1      21.723   7.335  50.789  1.00  0.00     0.002 A 
HETATM   26  C21 UNL     1      21.587   5.942  50.990  1.00  0.00     0.029 A 
ENDBRANCH  19  21
ENDBRANCH  17  19
ENDBRANCH  16  17
TORSDOF 3
ENDMDL
MODEL 8
REMARK VINA RESULT:      -8.1      1.822      2.621
REMARK  3 active torsions:
REMARK  status: ('A' for Active; 'I' for Inactive)
REMARK    1  A    between atoms: C14_16  and  C15_17 
REMARK    2  A    between atoms: C15_17  and  N2_19 
REMARK    3  A    between atoms: N2_19  and  C16_20 
ROOT
HETATM    1  C1  UNL     1      22.885   2.766  49.713  1.00  0.00    -0.011 C 
HETATM    2  C2  UNL     1      22.404   1.843  50.637  1.00  0.00     0.027 A 
HETATM    3  C3  UNL     1      23.305   1.174  51.687  1.00  0.00    -0.018 A 
HETATM    4  C4  UNL     1      24.542   1.883  51.281  1.00  0.00     0.018 C 
HETATM    5  C5  UNL     1      22.039   0.708  51.821  1.00  0.00     0.003 A 
HETATM    6  C6  UNL     1      20.683   0.668  51.435  1.00  0.00     0.035 C 
HETATM    7  C7  UNL     1      19.843   1.278  50.427  1.00  0.00     0.122 C 
HETATM    8  N1  UNL     1      18.482   0.726  50.669  1.00  0.00    -0.397 N 
HETATM    9  C8  UNL     1      17.649   1.297  49.571  1.00  0.00     0.148 C 
HETATM   10  C9  UNL     1      17.445  -0.030  51.376  1.00  0.00     0.066 C 
HETATM   11  C10 UNL     1      17.971  -0.684  52.346  1.00  0.00     0.071 A 
HETATM   12  C11 UNL     1      18.315  -1.554  53.549  1.00  0.00     0.046 A 
HETATM   13  C12 UNL     1      19.455  -0.978  53.155  1.00  0.00     0.111 A 
HETATM   14  F1  UNL     1      20.100  -1.600  54.127  1.00  0.00    -0.383 F 
HETATM   15  C13 UNL     1      20.978  -0.760  53.470  1.00  0.00     0.199 A 
HETATM   16  C14 UNL     1      22.187  -0.124  53.049  1.00  0.00     0.001 C 
ENDROOT
BRANCH  16  17
HETATM   17  C15 UNL     1      23.165  -0.472  54.070  1.00  0.00     0.107 C 
HETATM   18  S1  UNL     1      22.495  -1.532  55.048  1.00  0.00    -0.060 SA
BRANCH  17  19
HETATM   19  N2  UNL     1      24.526  -0.134  54.386  1.00  0.00    -0.347 N 
HETATM   20  H18 UNL     1      24.588   0.549  55.181  1.00  0.00     0.167 HD
BRANCH  19  21
HETATM   21  C16 UNL     1      25.843  -0.428  54.001  1.00  0.00     0.033 A 
HETATM   22  C17 UNL     1      26.428  -1.214  52.998  1.00  0.00     0.029 A 
HETATM   23  C18 UNL     1      27.803  -1.406  52.737  1.00  0.00     0.002 A 
HETATM   24  C19 UNL     1      28.457  -0.653  53.681  1.00  0.00     0.000 A 
HETATM   25  C20 UNL     1      28.184   0.155  54.707  1.00  0.00     0.002 A 
HETATM   26  C21 UNL     1      26.779   0.238  54.838  1.00  0.00     0.029 A 
ENDBRANCH  19  21
ENDBRANCH  17  19
ENDBRANCH  16  17
TORSDOF 3
ENDMDL
MODEL 9
REMARK VINA RESULT:      -8.0      2.490      6.673
REMARK  3 active torsions:
REMARK  status: ('A' for Active; 'I' for Inactive)
REMARK    1  A    between atoms: C14_16  and  C15_17 
REMARK    2  A    between atoms: C15_17  and  N2_19 
REMARK    3  A    between atoms: N2_19  and  C16_20 
ROOT
HETATM    1  C1  UNL     1      26.859   3.910  49.395  1.00  0.00    -0.011 C 
HETATM    2  C2  UNL     1      25.780   3.366  50.086  1.00  0.00     0.027 A 
HETATM    3  C3  UNL     1      24.346   3.896  49.933  1.00  0.00    -0.018 A 
HETATM    4  C4  UNL     1      24.688   4.940  48.938  1.00  0.00     0.018 C 
HETATM    5  C5  UNL     1      24.353   2.872  50.823  1.00  0.00     0.003 A 
HETATM    6  C6  UNL     1      25.020   1.869  51.556  1.00  0.00     0.035 C 
HETATM    7  C7  UNL     1      26.375   1.390  51.719  1.00  0.00     0.122 C 
HETATM    8  N1  UNL     1      26.277   0.264  52.686  1.00  0.00    -0.397 N 
HETATM    9  C8  UNL     1      27.690  -0.160  52.908  1.00  0.00     0.148 C 
HETATM   10  C9  UNL     1      25.604  -0.719  53.540  1.00  0.00     0.066 C 
HETATM   11  C10 UNL     1      24.343  -0.484  53.560  1.00  0.00     0.071 A 
HETATM   12  C11 UNL     1      22.834  -0.444  53.767  1.00  0.00     0.046 A 
HETATM   13  C12 UNL     1      23.131   0.548  52.921  1.00  0.00     0.111 A 
HETATM   14  F1  UNL     1      21.852   0.876  52.862  1.00  0.00    -0.383 F 
HETATM   15  C13 UNL     1      22.562   1.676  51.988  1.00  0.00     0.199 A 
HETATM   16  C14 UNL     1      22.890   2.722  51.071  1.00  0.00     0.001 C 
ENDROOT
BRANCH  16  17
HETATM   17  C15 UNL     1      21.607   3.242  50.625  1.00  0.00     0.107 C 
HETATM   18  S1  UNL     1      20.796   3.713  51.909  1.00  0.00    -0.060 SA
BRANCH  17  19
HETATM   19  N2  UNL     1      20.930   3.450  49.374  1.00  0.00    -0.347 N 
HETATM   20  H18 UNL     1      19.986   2.990  49.354  1.00  0.00     0.167 HD
BRANCH  19  21
HETATM   21  C16 UNL     1      21.091   4.095  48.137  1.00  0.00     0.033 A 
HETATM   22  C17 UNL     1      20.796   5.373  47.642  1.00  0.00     0.029 A 
HETATM   23  C18 UNL     1      21.030   5.876  46.344  1.00  0.00     0.002 A 
HETATM   24  C19 UNL     1      21.616   4.841  45.657  1.00  0.00     0.000 A 
HETATM   25  C20 UNL     1      22.003   3.580  45.852  1.00  0.00     0.002 A 
HETATM   26  C21 UNL     1      21.698   3.229  47.187  1.00  0.00     0.029 A 
ENDBRANCH  19  21
ENDBRANCH  17  19
ENDBRANCH  16  17
TORSDOF 3
ENDMDL
