MODEL 1
REMARK VINA RESULT:      -7.5      0.000      0.000
REMARK  3 active torsions:
REMARK  status: ('A' for Active; 'I' for Inactive)
REMARK    1  A    between atoms: O1_1  and  C1_2 
REMARK    2  A    between atoms: C1_2  and  C2_3 
REMARK    3  A    between atoms: C17_22  and  O2_23 
ROOT
HETATM    1  C2  UNL     1      31.314   8.672  48.279  1.00  0.00    -0.025 C 
HETATM    2  C3  UNL     1      32.054   8.983  47.178  1.00  0.00    -0.005 C 
HETATM    3  C4  UNL     1      33.191   8.411  46.480  1.00  0.00     0.072 C 
HETATM    4  C5  UNL     1      34.457   9.067  46.812  1.00  0.00    -0.011 C 
HETATM    5  C6  UNL     1      35.225   8.483  47.743  1.00  0.00     0.024 C 
HETATM    6  C7  UNL     1      34.800   7.222  48.412  1.00  0.00     0.039 C 
HETATM    7  N1  UNL     1      33.632   7.653  48.830  1.00  0.00    -0.255 NA
HETATM    8  C8  UNL     1      32.538   6.732  49.015  1.00  0.00     0.068 C 
HETATM    9  C9  UNL     1      32.631   5.399  48.794  1.00  0.00     0.037 C 
HETATM   10  C10 UNL     1      33.940   4.997  48.226  1.00  0.00    -0.054 C 
HETATM   11  C11 UNL     1      33.861   4.017  47.346  1.00  0.00    -0.018 C 
HETATM   12  C12 UNL     1      35.042   3.456  46.643  1.00  0.00     0.049 C 
HETATM   13  C13 UNL     1      34.916   3.656  45.138  1.00  0.00     0.145 C 
HETATM   14  N2  UNL     1      34.812   5.108  44.911  1.00  0.00    -0.313 N 
HETATM   15  N3  UNL     1      34.668   5.637  43.619  1.00  0.00    -0.173 NA
HETATM   16  C14 UNL     1      34.247   6.831  43.357  1.00  0.00     0.253 C 
HETATM   17  N4  UNL     1      34.020   7.327  44.650  1.00  0.00    -0.256 NA
HETATM   18  C15 UNL     1      33.087   8.129  45.032  1.00  0.00     0.103 C 
HETATM   19  C16 UNL     1      35.076   5.806  48.763  1.00  0.00     0.097 C 
HETATM   20  C17 UNL     1      31.380   7.584  49.356  1.00  0.00     0.201 C 
HETATM   21  H14 UNL     1      34.841   5.818  45.695  1.00  0.00     0.182 HD
ENDROOT
BRANCH   1  22
HETATM   22  C1  UNL     1      30.152   9.541  48.709  1.00  0.00     0.201 C 
BRANCH  22  23
HETATM   23  O1  UNL     1      30.166   9.665  50.082  1.00  0.00    -0.397 OA
HETATM   24  H1  UNL     1      31.061  10.049  50.332  1.00  0.00     0.209 HD
ENDBRANCH  22  23
ENDBRANCH   1  22
BRANCH  20  25
HETATM   25  O2  UNL     1      30.168   6.911  49.266  1.00  0.00    -0.385 OA
HETATM   26  H20 UNL     1      30.086   6.349  48.456  1.00  0.00     0.210 HD
ENDBRANCH  20  25
TORSDOF 3
ENDMDL
MODEL 2
REMARK VINA RESULT:      -7.2      3.753      6.949
REMARK  3 active torsions:
REMARK  status: ('A' for Active; 'I' for Inactive)
REMARK    1  A    between atoms: O1_1  and  C1_2 
REMARK    2  A    between atoms: C1_2  and  C2_3 
REMARK    3  A    between atoms: C17_22  and  O2_23 
ROOT
HETATM    1  C2  UNL     1      30.938   6.761  48.748  1.00  0.00    -0.025 C 
HETATM    2  C3  UNL     1      31.260   8.084  48.722  1.00  0.00    -0.005 C 
HETATM    3  C4  UNL     1      30.645   9.306  48.233  1.00  0.00     0.072 C 
HETATM    4  C5  UNL     1      31.178   9.737  46.940  1.00  0.00    -0.011 C 
HETATM    5  C6  UNL     1      30.478   9.403  45.846  1.00  0.00     0.024 C 
HETATM    6  C7  UNL     1      29.215   8.622  45.948  1.00  0.00     0.039 C 
HETATM    7  N1  UNL     1      29.709   7.616  46.633  1.00  0.00    -0.255 NA
HETATM    8  C8  UNL     1      28.866   6.855  47.523  1.00  0.00     0.068 C 
HETATM    9  C9  UNL     1      27.547   7.101  47.703  1.00  0.00     0.037 C 
HETATM   10  C10 UNL     1      27.080   8.310  46.983  1.00  0.00    -0.054 C 
HETATM   11  C11 UNL     1      26.166   9.002  47.637  1.00  0.00    -0.018 C 
HETATM   12  C12 UNL     1      25.560  10.251  47.113  1.00  0.00     0.049 C 
HETATM   13  C13 UNL     1      25.864  11.424  48.038  1.00  0.00     0.145 C 
HETATM   14  N2  UNL     1      27.331  11.541  48.105  1.00  0.00    -0.313 N 
HETATM   15  N3  UNL     1      27.951  12.524  48.892  1.00  0.00    -0.173 NA
HETATM   16  C14 UNL     1      29.187  12.495  49.266  1.00  0.00     0.253 C 
HETATM   17  N4  UNL     1      29.617  11.294  48.680  1.00  0.00    -0.256 NA
HETATM   18  C15 UNL     1      30.464  10.447  49.155  1.00  0.00     0.103 C 
HETATM   19  C16 UNL     1      27.763   8.497  45.666  1.00  0.00     0.097 C 
HETATM   20  C17 UNL     1      29.783   5.915  48.201  1.00  0.00     0.201 C 
HETATM   21  H14 UNL     1      27.986  10.903  47.572  1.00  0.00     0.182 HD
ENDROOT
BRANCH   1  22
HETATM   22  C1  UNL     1      31.867   5.745  49.377  1.00  0.00     0.201 C 
BRANCH  22  23
HETATM   23  O1  UNL     1      31.518   5.572  50.700  1.00  0.00    -0.397 OA
HETATM   24  H1  UNL     1      30.714   4.969  50.713  1.00  0.00     0.209 HD
ENDBRANCH  22  23
ENDBRANCH   1  22
BRANCH  20  25
HETATM   25  O2  UNL     1      29.214   5.314  49.317  1.00  0.00    -0.385 OA
HETATM   26  H20 UNL     1      29.870   4.865  49.904  1.00  0.00     0.210 HD
ENDBRANCH  20  25
TORSDOF 3
ENDMDL
MODEL 3
REMARK VINA RESULT:      -7.1     10.855     12.707
REMARK  3 active torsions:
REMARK  status: ('A' for Active; 'I' for Inactive)
REMARK    1  A    between atoms: O1_1  and  C1_2 
REMARK    2  A    between atoms: C1_2  and  C2_3 
REMARK    3  A    between atoms: C17_22  and  O2_23 
ROOT
HETATM    1  C2  UNL     1      22.495   2.677  48.574  1.00  0.00    -0.025 C 
HETATM    2  C3  UNL     1      23.544   3.192  49.275  1.00  0.00    -0.005 C 
HETATM    3  C4  UNL     1      24.058   3.082  50.629  1.00  0.00     0.072 C 
HETATM    4  C5  UNL     1      23.675   4.209  51.481  1.00  0.00    -0.011 C 
HETATM    5  C6  UNL     1      22.614   4.039  52.282  1.00  0.00     0.024 C 
HETATM    6  C7  UNL     1      21.857   2.757  52.297  1.00  0.00     0.039 C 
HETATM    7  N1  UNL     1      21.607   2.708  51.009  1.00  0.00    -0.255 NA
HETATM    8  C8  UNL     1      21.433   1.438  50.346  1.00  0.00     0.068 C 
HETATM    9  C9  UNL     1      21.497   0.244  50.981  1.00  0.00     0.037 C 
HETATM   10  C10 UNL     1      21.884   0.366  52.407  1.00  0.00    -0.054 C 
HETATM   11  C11 UNL     1      22.656  -0.614  52.837  1.00  0.00    -0.018 C 
HETATM   12  C12 UNL     1      23.171  -0.696  54.226  1.00  0.00     0.049 C 
HETATM   13  C13 UNL     1      24.695  -0.655  54.236  1.00  0.00     0.145 C 
HETATM   14  N2  UNL     1      25.087   0.617  53.606  1.00  0.00    -0.313 N 
HETATM   15  N3  UNL     1      26.438   0.966  53.442  1.00  0.00    -0.173 NA
HETATM   16  C14 UNL     1      26.869   1.872  52.628  1.00  0.00     0.253 C 
HETATM   17  N4  UNL     1      25.667   2.313  52.054  1.00  0.00    -0.256 NA
HETATM   18  C15 UNL     1      25.470   2.696  50.839  1.00  0.00     0.103 C 
HETATM   19  C16 UNL     1      21.328   1.594  53.053  1.00  0.00     0.097 C 
HETATM   20  C17 UNL     1      21.304   1.774  48.913  1.00  0.00     0.201 C 
HETATM   21  H14 UNL     1      24.387   1.325  53.249  1.00  0.00     0.182 HD
ENDROOT
BRANCH   1  22
HETATM   22  C1  UNL     1      22.280   3.033  47.119  1.00  0.00     0.201 C 
BRANCH  22  23
HETATM   23  O1  UNL     1      20.943   3.299  46.911  1.00  0.00    -0.397 OA
HETATM   24  H1  UNL     1      20.464   3.066  47.764  1.00  0.00     0.209 HD
ENDBRANCH  22  23
ENDBRANCH   1  22
BRANCH  20  25
HETATM   25  O2  UNL     1      21.441   0.667  48.084  1.00  0.00    -0.385 OA
HETATM   26  H20 UNL     1      22.169   0.756  47.421  1.00  0.00     0.210 HD
ENDBRANCH  20  25
TORSDOF 3
ENDMDL
MODEL 4
REMARK VINA RESULT:      -6.6     11.218     13.200
REMARK  3 active torsions:
REMARK  status: ('A' for Active; 'I' for Inactive)
REMARK    1  A    between atoms: O1_1  and  C1_2 
REMARK    2  A    between atoms: C1_2  and  C2_3 
REMARK    3  A    between atoms: C17_22  and  O2_23 
ROOT
HETATM    1  C2  UNL     1      24.695   3.293  50.105  1.00  0.00    -0.025 C 
HETATM    2  C3  UNL     1      23.977   3.611  48.992  1.00  0.00    -0.005 C 
HETATM    3  C4  UNL     1      22.588   3.520  48.575  1.00  0.00     0.072 C 
HETATM    4  C5  UNL     1      22.321   2.362  47.721  1.00  0.00    -0.011 C 
HETATM    5  C6  UNL     1      21.814   1.270  48.310  1.00  0.00     0.024 C 
HETATM    6  C7  UNL     1      21.541   1.239  49.773  1.00  0.00     0.039 C 
HETATM    7  N1  UNL     1      22.746   1.585  50.164  1.00  0.00    -0.255 NA
HETATM    8  C8  UNL     1      22.937   2.287  51.410  1.00  0.00     0.068 C 
HETATM    9  C9  UNL     1      21.927   2.618  52.248  1.00  0.00     0.037 C 
HETATM   10  C10 UNL     1      20.589   2.293  51.699  1.00  0.00    -0.054 C 
HETATM   11  C11 UNL     1      19.656   3.174  52.009  1.00  0.00    -0.018 C 
HETATM   12  C12 UNL     1      18.245   3.057  51.563  1.00  0.00     0.049 C 
HETATM   13  C13 UNL     1      17.858   4.246  50.692  1.00  0.00     0.145 C 
HETATM   14  N2  UNL     1      18.774   4.241  49.539  1.00  0.00    -0.313 N 
HETATM   15  N3  UNL     1      18.696   5.225  48.539  1.00  0.00    -0.173 NA
HETATM   16  C14 UNL     1      19.637   5.490  47.694  1.00  0.00     0.253 C 
HETATM   17  N4  UNL     1      20.620   4.568  48.088  1.00  0.00    -0.256 NA
HETATM   18  C15 UNL     1      21.898   4.732  48.083  1.00  0.00     0.103 C 
HETATM   19  C16 UNL     1      20.586   1.035  50.892  1.00  0.00     0.097 C 
HETATM   20  C17 UNL     1      24.378   2.615  51.442  1.00  0.00     0.201 C 
HETATM   21  H14 UNL     1      19.526   3.510  49.401  1.00  0.00     0.182 HD
ENDROOT
BRANCH   1  22
HETATM   22  C1  UNL     1      26.185   3.552  50.173  1.00  0.00     0.201 C 
BRANCH  22  23
HETATM   23  O1  UNL     1      26.403   4.912  50.242  1.00  0.00    -0.397 OA
HETATM   24  H1  UNL     1      27.391   5.055  50.125  1.00  0.00     0.209 HD
ENDBRANCH  22  23
ENDBRANCH   1  22
BRANCH  20  25
HETATM   25  O2  UNL     1      24.695   3.559  52.411  1.00  0.00    -0.385 OA
HETATM   26  H20 UNL     1      23.914   4.063  52.745  1.00  0.00     0.210 HD
ENDBRANCH  20  25
TORSDOF 3
ENDMDL
MODEL 5
REMARK VINA RESULT:      -6.6     10.835     12.803
REMARK  3 active torsions:
REMARK  status: ('A' for Active; 'I' for Inactive)
REMARK    1  A    between atoms: O1_1  and  C1_2 
REMARK    2  A    between atoms: C1_2  and  C2_3 
REMARK    3  A    between atoms: C17_22  and  O2_23 
ROOT
HETATM    1  C2  UNL     1      23.064   6.470  50.797  1.00  0.00    -0.025 C 
HETATM    2  C3  UNL     1      21.909   6.005  50.243  1.00  0.00    -0.005 C 
HETATM    3  C4  UNL     1      21.253   4.717  50.105  1.00  0.00     0.072 C 
HETATM    4  C5  UNL     1      21.457   4.107  48.790  1.00  0.00    -0.011 C 
HETATM    5  C6  UNL     1      22.430   3.191  48.684  1.00  0.00     0.024 C 
HETATM    6  C7  UNL     1      23.269   2.817  49.856  1.00  0.00     0.039 C 
HETATM    7  N1  UNL     1      23.666   4.031  50.158  1.00  0.00    -0.255 NA
HETATM    8  C8  UNL     1      24.003   4.372  51.519  1.00  0.00     0.068 C 
HETATM    9  C9  UNL     1      23.952   3.494  52.548  1.00  0.00     0.037 C 
HETATM   10  C10 UNL     1      23.397   2.176  52.158  1.00  0.00    -0.054 C 
HETATM   11  C11 UNL     1      22.653   1.612  53.090  1.00  0.00    -0.018 C 
HETATM   12  C12 UNL     1      21.990   0.295  52.918  1.00  0.00     0.049 C 
HETATM   13  C13 UNL     1      20.477   0.439  53.018  1.00  0.00     0.145 C 
HETATM   14  N2  UNL     1      20.070   1.373  51.955  1.00  0.00    -0.313 N 
HETATM   15  N3  UNL     1      18.725   1.739  51.778  1.00  0.00    -0.173 NA
HETATM   16  C14 UNL     1      18.326   2.773  51.113  1.00  0.00     0.253 C 
HETATM   17  N4  UNL     1      19.552   3.314  50.696  1.00  0.00    -0.256 NA
HETATM   18  C15 UNL     1      19.858   4.560  50.568  1.00  0.00     0.103 C 
HETATM   19  C16 UNL     1      23.790   1.772  50.773  1.00  0.00     0.097 C 
HETATM   20  C17 UNL     1      24.269   5.825  51.490  1.00  0.00     0.201 C 
HETATM   21  H14 UNL     1      20.755   1.812  51.278  1.00  0.00     0.182 HD
ENDROOT
BRANCH   1  22
HETATM   22  C1  UNL     1      23.417   7.941  50.745  1.00  0.00     0.201 C 
BRANCH  22  23
HETATM   23  O1  UNL     1      24.789   8.074  50.697  1.00  0.00    -0.397 OA
HETATM   24  H1  UNL     1      25.159   7.567  51.482  1.00  0.00     0.209 HD
ENDBRANCH  22  23
ENDBRANCH   1  22
BRANCH  20  25
HETATM   25  O2  UNL     1      24.305   6.393  52.757  1.00  0.00    -0.385 OA
HETATM   26  H20 UNL     1      23.449   6.803  53.033  1.00  0.00     0.210 HD
ENDBRANCH  20  25
TORSDOF 3
ENDMDL
MODEL 6
REMARK VINA RESULT:      -6.6     11.305     13.218
REMARK  3 active torsions:
REMARK  status: ('A' for Active; 'I' for Inactive)
REMARK    1  A    between atoms: O1_1  and  C1_2 
REMARK    2  A    between atoms: C1_2  and  C2_3 
REMARK    3  A    between atoms: C17_22  and  O2_23 
ROOT
HETATM    1  C2  UNL     1      22.140   5.212  51.509  1.00  0.00    -0.025 C 
HETATM    2  C3  UNL     1      21.168   4.276  51.322  1.00  0.00    -0.005 C 
HETATM    3  C4  UNL     1      21.073   2.829  51.398  1.00  0.00     0.072 C 
HETATM    4  C5  UNL     1      21.151   2.180  50.088  1.00  0.00    -0.011 C 
HETATM    5  C6  UNL     1      22.345   1.698  49.713  1.00  0.00     0.024 C 
HETATM    6  C7  UNL     1      23.539   1.824  50.593  1.00  0.00     0.039 C 
HETATM    7  N1  UNL     1      23.479   3.126  50.752  1.00  0.00    -0.255 NA
HETATM    8  C8  UNL     1      23.996   3.741  51.950  1.00  0.00     0.068 C 
HETATM    9  C9  UNL     1      24.574   3.048  52.960  1.00  0.00     0.037 C 
HETATM   10  C10 UNL     1      24.514   1.580  52.765  1.00  0.00    -0.054 C 
HETATM   11  C11 UNL     1      24.333   0.900  53.881  1.00  0.00    -0.018 C 
HETATM   12  C12 UNL     1      24.235  -0.581  53.925  1.00  0.00     0.049 C 
HETATM   13  C13 UNL     1      22.875  -1.012  54.461  1.00  0.00     0.145 C 
HETATM   14  N2  UNL     1      21.863  -0.448  53.552  1.00  0.00    -0.313 N 
HETATM   15  N3  UNL     1      20.490  -0.647  53.771  1.00  0.00    -0.173 NA
HETATM   16  C14 UNL     1      19.550   0.063  53.239  1.00  0.00     0.253 C 
HETATM   17  N4  UNL     1      20.299   0.972  52.476  1.00  0.00    -0.256 NA
HETATM   18  C15 UNL     1      20.034   2.213  52.249  1.00  0.00     0.103 C 
HETATM   19  C16 UNL     1      24.656   1.183  51.331  1.00  0.00     0.097 C 
HETATM   20  C17 UNL     1      23.638   5.169  51.828  1.00  0.00     0.201 C 
HETATM   21  H14 UNL     1      22.110   0.128  52.700  1.00  0.00     0.182 HD
ENDROOT
BRANCH   1  22
HETATM   22  C1  UNL     1      21.846   6.687  51.339  1.00  0.00     0.201 C 
BRANCH  22  23
HETATM   23  O1  UNL     1      22.938   7.302  50.766  1.00  0.00    -0.397 OA
HETATM   24  H1  UNL     1      22.945   7.039  49.795  1.00  0.00     0.209 HD
ENDBRANCH  22  23
ENDBRANCH   1  22
BRANCH  20  25
HETATM   25  O2  UNL     1      23.775   5.865  53.023  1.00  0.00    -0.385 OA
HETATM   26  H20 UNL     1      24.134   6.779  52.911  1.00  0.00     0.210 HD
ENDBRANCH  20  25
TORSDOF 3
ENDMDL
MODEL 7
REMARK VINA RESULT:      -6.5      9.739     11.998
REMARK  3 active torsions:
REMARK  status: ('A' for Active; 'I' for Inactive)
REMARK    1  A    between atoms: O1_1  and  C1_2 
REMARK    2  A    between atoms: C1_2  and  C2_3 
REMARK    3  A    between atoms: C17_22  and  O2_23 
ROOT
HETATM    1  C2  UNL     1      25.621   2.586  51.131  1.00  0.00    -0.025 C 
HETATM    2  C3  UNL     1      24.371   2.105  51.379  1.00  0.00    -0.005 C 
HETATM    3  C4  UNL     1      23.009   2.516  51.087  1.00  0.00     0.072 C 
HETATM    4  C5  UNL     1      22.357   3.181  52.216  1.00  0.00    -0.011 C 
HETATM    5  C6  UNL     1      22.352   4.522  52.218  1.00  0.00     0.024 C 
HETATM    6  C7  UNL     1      22.990   5.297  51.119  1.00  0.00     0.039 C 
HETATM    7  N1  UNL     1      24.174   4.735  51.198  1.00  0.00    -0.255 NA
HETATM    8  C8  UNL     1      25.019   4.643  50.032  1.00  0.00     0.068 C 
HETATM    9  C9  UNL     1      24.673   5.125  48.815  1.00  0.00     0.037 C 
HETATM   10  C10 UNL     1      23.288   5.650  48.771  1.00  0.00    -0.054 C 
HETATM   11  C11 UNL     1      22.666   5.421  47.630  1.00  0.00    -0.018 C 
HETATM   12  C12 UNL     1      21.270   5.849  47.363  1.00  0.00     0.049 C 
HETATM   13  C13 UNL     1      20.381   4.641  47.092  1.00  0.00     0.145 C 
HETATM   14  N2  UNL     1      20.447   3.790  48.292  1.00  0.00    -0.313 N 
HETATM   15  N3  UNL     1      19.745   2.576  48.367  1.00  0.00    -0.173 NA
HETATM   16  C14 UNL     1      19.997   1.632  49.213  1.00  0.00     0.253 C 
HETATM   17  N4  UNL     1      21.073   2.188  49.923  1.00  0.00    -0.256 NA
HETATM   18  C15 UNL     1      22.095   1.571  50.409  1.00  0.00     0.103 C 
HETATM   19  C16 UNL     1      22.883   6.317  50.046  1.00  0.00     0.097 C 
HETATM   20  C17 UNL     1      26.185   3.849  50.471  1.00  0.00     0.201 C 
HETATM   21  H14 UNL     1      21.016   4.042  49.148  1.00  0.00     0.182 HD
ENDROOT
BRANCH   1  22
HETATM   22  C1  UNL     1      26.851   1.844  51.608  1.00  0.00     0.201 C 
BRANCH  22  23
HETATM   23  O1  UNL     1      27.756   2.752  52.117  1.00  0.00    -0.397 OA
HETATM   24  H1  UNL     1      28.296   2.266  52.812  1.00  0.00     0.209 HD
ENDBRANCH  22  23
ENDBRANCH   1  22
BRANCH  20  25
HETATM   25  O2  UNL     1      26.956   3.390  49.410  1.00  0.00    -0.385 OA
HETATM   26  H20 UNL     1      27.870   3.767  49.392  1.00  0.00     0.210 HD
ENDBRANCH  20  25
TORSDOF 3
ENDMDL
MODEL 8
REMARK VINA RESULT:      -6.5      3.252      5.914
REMARK  3 active torsions:
REMARK  status: ('A' for Active; 'I' for Inactive)
REMARK    1  A    between atoms: O1_1  and  C1_2 
REMARK    2  A    between atoms: C1_2  and  C2_3 
REMARK    3  A    between atoms: C17_22  and  O2_23 
ROOT
HETATM    1  C2  UNL     1      27.103   8.241  49.348  1.00  0.00    -0.025 C 
HETATM    2  C3  UNL     1      27.700   7.482  48.387  1.00  0.00    -0.005 C 
HETATM    3  C4  UNL     1      28.724   7.680  47.376  1.00  0.00     0.072 C 
HETATM    4  C5  UNL     1      28.174   7.917  46.041  1.00  0.00    -0.011 C 
HETATM    5  C6  UNL     1      28.072   9.191  45.636  1.00  0.00     0.024 C 
HETATM    6  C7  UNL     1      28.497  10.315  46.515  1.00  0.00     0.039 C 
HETATM    7  N1  UNL     1      27.760   9.990  47.552  1.00  0.00    -0.255 NA
HETATM    8  C8  UNL     1      28.179  10.345  48.886  1.00  0.00     0.068 C 
HETATM    9  C9  UNL     1      29.316  11.029  49.159  1.00  0.00     0.037 C 
HETATM   10  C10 UNL     1      30.149  11.272  47.957  1.00  0.00    -0.054 C 
HETATM   11  C11 UNL     1      31.447  11.207  48.186  1.00  0.00    -0.018 C 
HETATM   12  C12 UNL     1      32.471  11.410  47.130  1.00  0.00     0.049 C 
HETATM   13  C13 UNL     1      33.316  10.154  46.955  1.00  0.00     0.145 C 
HETATM   14  N2  UNL     1      32.391   9.069  46.586  1.00  0.00    -0.313 N 
HETATM   15  N3  UNL     1      32.850   7.760  46.364  1.00  0.00    -0.173 NA
HETATM   16  C14 UNL     1      32.100   6.708  46.365  1.00  0.00     0.253 C 
HETATM   17  N4  UNL     1      30.843   7.274  46.633  1.00  0.00    -0.256 NA
HETATM   18  C15 UNL     1      29.887   6.768  47.333  1.00  0.00     0.103 C 
HETATM   19  C16 UNL     1      29.333  11.523  46.731  1.00  0.00     0.097 C 
HETATM   20  C17 UNL     1      27.187   9.709  49.777  1.00  0.00     0.201 C 
HETATM   21  H14 UNL     1      31.349   9.213  46.470  1.00  0.00     0.182 HD
ENDROOT
BRANCH   1  22
HETATM   22  C1  UNL     1      26.037   7.658  50.251  1.00  0.00     0.201 C 
BRANCH  22  23
HETATM   23  O1  UNL     1      25.108   8.635  50.542  1.00  0.00    -0.397 OA
HETATM   24  H1  UNL     1      25.201   8.843  51.521  1.00  0.00     0.209 HD
ENDBRANCH  22  23
ENDBRANCH   1  22
BRANCH  20  25
HETATM   25  O2  UNL     1      27.595   9.676  51.105  1.00  0.00    -0.385 OA
HETATM   26  H20 UNL     1      26.907   9.994  51.739  1.00  0.00     0.210 HD
ENDBRANCH  20  25
TORSDOF 3
ENDMDL
MODEL 9
REMARK VINA RESULT:      -6.4     10.338     12.397
REMARK  3 active torsions:
REMARK  status: ('A' for Active; 'I' for Inactive)
REMARK    1  A    between atoms: O1_1  and  C1_2 
REMARK    2  A    between atoms: C1_2  and  C2_3 
REMARK    3  A    between atoms: C17_22  and  O2_23 
ROOT
HETATM    1  C2  UNL     1      24.309   0.683  52.622  1.00  0.00    -0.025 C 
HETATM    2  C3  UNL     1      23.008   0.707  52.216  1.00  0.00    -0.005 C 
HETATM    3  C4  UNL     1      22.149   1.629  51.495  1.00  0.00     0.072 C 
HETATM    4  C5  UNL     1      21.292   2.423  52.377  1.00  0.00    -0.011 C 
HETATM    5  C6  UNL     1      21.709   3.659  52.687  1.00  0.00     0.024 C 
HETATM    6  C7  UNL     1      22.994   4.194  52.159  1.00  0.00     0.039 C 
HETATM    7  N1  UNL     1      23.758   3.215  52.584  1.00  0.00    -0.255 NA
HETATM    8  C8  UNL     1      24.972   2.877  51.882  1.00  0.00     0.068 C 
HETATM    9  C9  UNL     1      25.407   3.529  50.778  1.00  0.00     0.037 C 
HETATM   10  C10 UNL     1      24.448   4.550  50.292  1.00  0.00    -0.054 C 
HETATM   11  C11 UNL     1      24.395   4.650  48.977  1.00  0.00    -0.018 C 
HETATM   12  C12 UNL     1      23.501   5.599  48.268  1.00  0.00     0.049 C 
HETATM   13  C13 UNL     1      22.512   4.847  47.385  1.00  0.00     0.145 C 
HETATM   14  N2  UNL     1      21.739   3.964  48.273  1.00  0.00    -0.313 N 
HETATM   15  N3  UNL     1      20.741   3.113  47.770  1.00  0.00    -0.173 NA
HETATM   16  C14 UNL     1      20.257   2.094  48.401  1.00  0.00     0.253 C 
HETATM   17  N4  UNL     1      20.990   2.146  49.598  1.00  0.00    -0.256 NA
HETATM   18  C15 UNL     1      21.413   1.155  50.303  1.00  0.00     0.103 C 
HETATM   19  C16 UNL     1      23.728   5.241  51.404  1.00  0.00     0.097 C 
HETATM   20  C17 UNL     1      25.480   1.669  52.564  1.00  0.00     0.201 C 
HETATM   21  H14 UNL     1      21.888   3.923  49.320  1.00  0.00     0.182 HD
ENDROOT
BRANCH   1  22
HETATM   22  C1  UNL     1      24.868  -0.504  53.376  1.00  0.00     0.201 C 
BRANCH  22  23
HETATM   23  O1  UNL     1      25.673  -0.050  54.399  1.00  0.00    -0.397 OA
HETATM   24  H1  UNL     1      25.146   0.646  54.898  1.00  0.00     0.209 HD
ENDBRANCH  22  23
ENDBRANCH   1  22
BRANCH  20  25
HETATM   25  O2  UNL     1      26.469   1.015  51.839  1.00  0.00    -0.385 OA
HETATM   26  H20 UNL     1      26.114   0.393  51.157  1.00  0.00     0.210 HD
ENDBRANCH  20  25
TORSDOF 3
ENDMDL
