MODEL 1
REMARK VINA RESULT:      -8.3      0.000      0.000
REMARK  0 active torsions:
REMARK  status: ('A' for Active; 'I' for Inactive)
ROOT
HETATM    1  C1  UNL     1      22.045   2.168  49.295  1.00  0.00     0.184 C 
HETATM    2  N1  UNL     1      22.969   2.527  50.325  1.00  0.00    -0.271 N 
HETATM    3  C2  UNL     1      22.669   1.642  51.386  1.00  0.00     0.156 C 
HETATM    4  C3  UNL     1      22.551   0.798  52.407  1.00  0.00     0.119 C 
HETATM    5  O1  UNL     1      21.184   0.753  52.380  1.00  0.00    -0.345 OA
HETATM    6  C4  UNL     1      20.309   0.322  53.400  1.00  0.00     0.202 C 
HETATM    7  C5  UNL     1      21.127  -0.073  54.587  1.00  0.00     0.202 C 
HETATM    8  O2  UNL     1      22.374  -0.642  54.152  1.00  0.00    -0.346 OA
HETATM    9  C6  UNL     1      23.293   0.041  53.375  1.00  0.00     0.107 C 
HETATM   10  C7  UNL     1      24.552  -0.200  53.751  1.00  0.00    -0.023 C 
HETATM   11  C8  UNL     1      25.101  -1.043  54.810  1.00  0.00     0.185 C 
HETATM   12  N2  UNL     1      26.211  -0.449  55.487  1.00  0.00    -0.301 NA
HETATM   13  C9  UNL     1      27.089   0.272  54.904  1.00  0.00     0.088 C 
HETATM   14  C10 UNL     1      26.946   0.617  53.496  1.00  0.00     0.030 C 
HETATM   15  C11 UNL     1      27.321   2.105  53.259  1.00  0.00     0.015 C 
HETATM   16  C12 UNL     1      26.932   2.578  51.885  1.00  0.00     0.018 C 
HETATM   17  C13 UNL     1      26.413   2.172  50.663  1.00  0.00    -0.021 C 
HETATM   18  C14 UNL     1      26.264   3.272  49.631  1.00  0.00     0.029 C 
HETATM   19  C15 UNL     1      24.781   3.319  49.211  1.00  0.00     0.201 C 
HETATM   20  O3  UNL     1      23.947   3.522  50.306  1.00  0.00    -0.279 OA
HETATM   21  C16 UNL     1      25.529   0.524  52.962  1.00  0.00     0.049 C 
ENDROOT
TORSDOF 0
ENDMDL
MODEL 2
REMARK VINA RESULT:      -8.1      2.154      4.640
REMARK  0 active torsions:
REMARK  status: ('A' for Active; 'I' for Inactive)
ROOT
HETATM    1  C1  UNL     1      25.030   3.908  50.763  1.00  0.00     0.184 C 
HETATM    2  N1  UNL     1      24.013   2.905  50.748  1.00  0.00    -0.271 N 
HETATM    3  C2  UNL     1      24.527   1.874  51.567  1.00  0.00     0.156 C 
HETATM    4  C3  UNL     1      24.857   0.888  52.397  1.00  0.00     0.119 C 
HETATM    5  O1  UNL     1      26.178   0.856  52.040  1.00  0.00    -0.345 OA
HETATM    6  C4  UNL     1      27.110  -0.182  52.256  1.00  0.00     0.202 C 
HETATM    7  C5  UNL     1      26.409  -1.311  52.939  1.00  0.00     0.202 C 
HETATM    8  O2  UNL     1      25.396  -0.794  53.820  1.00  0.00    -0.346 OA
HETATM    9  C6  UNL     1      24.341  -0.010  53.391  1.00  0.00     0.107 C 
HETATM   10  C7  UNL     1      23.197  -0.317  54.009  1.00  0.00    -0.023 C 
HETATM   11  C8  UNL     1      22.888  -1.310  55.035  1.00  0.00     0.185 C 
HETATM   12  N2  UNL     1      21.634  -1.964  54.829  1.00  0.00    -0.301 NA
HETATM   13  C9  UNL     1      20.600  -1.376  54.362  1.00  0.00     0.088 C 
HETATM   14  C10 UNL     1      20.678   0.007  53.910  1.00  0.00     0.030 C 
HETATM   15  C11 UNL     1      19.890   0.192  52.585  1.00  0.00     0.015 C 
HETATM   16  C12 UNL     1      20.164   1.523  51.941  1.00  0.00     0.018 C 
HETATM   17  C13 UNL     1      20.815   2.738  52.108  1.00  0.00    -0.021 C 
HETATM   18  C14 UNL     1      20.666   3.710  50.955  1.00  0.00     0.029 C 
HETATM   19  C15 UNL     1      22.081   4.061  50.455  1.00  0.00     0.201 C 
HETATM   20  O3  UNL     1      22.786   2.922  50.081  1.00  0.00    -0.279 OA
HETATM   21  C16 UNL     1      22.074   0.481  53.557  1.00  0.00     0.049 C 
ENDROOT
TORSDOF 0
ENDMDL
MODEL 3
REMARK VINA RESULT:      -7.9      2.230      4.544
REMARK  0 active torsions:
REMARK  status: ('A' for Active; 'I' for Inactive)
ROOT
HETATM    1  C1  UNL     1      26.426   2.994  50.832  1.00  0.00     0.184 C 
HETATM    2  N1  UNL     1      25.828   2.456  52.014  1.00  0.00    -0.271 N 
HETATM    3  C2  UNL     1      24.439   2.631  51.812  1.00  0.00     0.156 C 
HETATM    4  C3  UNL     1      23.115   2.645  51.690  1.00  0.00     0.119 C 
HETATM    5  O1  UNL     1      23.051   3.887  51.118  1.00  0.00    -0.345 OA
HETATM    6  C4  UNL     1      21.931   4.739  51.014  1.00  0.00     0.202 C 
HETATM    7  C5  UNL     1      20.769   4.072  51.676  1.00  0.00     0.202 C 
HETATM    8  O2  UNL     1      20.855   2.648  51.493  1.00  0.00    -0.346 OA
HETATM    9  C6  UNL     1      21.922   1.886  51.934  1.00  0.00     0.107 C 
HETATM   10  C7  UNL     1      21.531   0.713  52.440  1.00  0.00    -0.023 C 
HETATM   11  C8  UNL     1      20.205   0.119  52.595  1.00  0.00     0.185 C 
HETATM   12  N2  UNL     1      20.039  -0.578  53.832  1.00  0.00    -0.301 NA
HETATM   13  C9  UNL     1      20.968  -1.254  54.391  1.00  0.00     0.088 C 
HETATM   14  C10 UNL     1      22.312  -1.267  53.830  1.00  0.00     0.030 C 
HETATM   15  C11 UNL     1      23.374  -1.155  54.958  1.00  0.00     0.015 C 
HETATM   16  C12 UNL     1      24.753  -0.893  54.417  1.00  0.00     0.018 C 
HETATM   17  C13 UNL     1      25.498  -0.779  53.252  1.00  0.00    -0.021 C 
HETATM   18  C14 UNL     1      26.966  -0.462  53.457  1.00  0.00     0.029 C 
HETATM   19  C15 UNL     1      27.273   0.843  52.695  1.00  0.00     0.201 C 
HETATM   20  O3  UNL     1      26.456   1.885  53.122  1.00  0.00    -0.279 OA
HETATM   21  C16 UNL     1      22.634  -0.091  52.928  1.00  0.00     0.049 C 
ENDROOT
TORSDOF 0
ENDMDL
MODEL 4
REMARK VINA RESULT:      -7.6      1.511      4.560
REMARK  0 active torsions:
REMARK  status: ('A' for Active; 'I' for Inactive)
ROOT
HETATM    1  C1  UNL     1      24.889  -1.066  55.459  1.00  0.00     0.184 C 
HETATM    2  N1  UNL     1      25.094  -0.606  54.121  1.00  0.00    -0.271 N 
HETATM    3  C2  UNL     1      23.841  -0.075  53.739  1.00  0.00     0.156 C 
HETATM    4  C3  UNL     1      22.749   0.548  53.305  1.00  0.00     0.119 C 
HETATM    5  O1  UNL     1      21.868  -0.355  53.836  1.00  0.00    -0.345 OA
HETATM    6  C4  UNL     1      20.512  -0.549  53.495  1.00  0.00     0.202 C 
HETATM    7  C5  UNL     1      20.162   0.400  52.395  1.00  0.00     0.202 C 
HETATM    8  O2  UNL     1      20.898   1.625  52.555  1.00  0.00    -0.346 OA
HETATM    9  C6  UNL     1      22.280   1.688  52.570  1.00  0.00     0.107 C 
HETATM   10  C7  UNL     1      22.745   2.755  51.914  1.00  0.00    -0.023 C 
HETATM   11  C8  UNL     1      22.057   3.834  51.211  1.00  0.00     0.185 C 
HETATM   12  N2  UNL     1      22.704   4.219  49.996  1.00  0.00    -0.301 NA
HETATM   13  C9  UNL     1      23.972   4.243  49.849  1.00  0.00     0.088 C 
HETATM   14  C10 UNL     1      24.849   3.771  50.913  1.00  0.00     0.030 C 
HETATM   15  C11 UNL     1      26.012   2.926  50.326  1.00  0.00     0.015 C 
HETATM   16  C12 UNL     1      26.781   2.197  51.393  1.00  0.00     0.018 C 
HETATM   17  C13 UNL     1      26.914   2.031  52.764  1.00  0.00    -0.021 C 
HETATM   18  C14 UNL     1      27.979   1.039  53.190  1.00  0.00     0.029 C 
HETATM   19  C15 UNL     1      27.292  -0.043  54.048  1.00  0.00     0.201 C 
HETATM   20  O3  UNL     1      26.259  -0.663  53.353  1.00  0.00    -0.279 OA
HETATM   21  C16 UNL     1      24.194   2.826  51.901  1.00  0.00     0.049 C 
ENDROOT
TORSDOF 0
ENDMDL
MODEL 5
REMARK VINA RESULT:      -7.5      1.851      4.658
REMARK  0 active torsions:
REMARK  status: ('A' for Active; 'I' for Inactive)
ROOT
HETATM    1  C1  UNL     1      26.059  -0.128  54.383  1.00  0.00     0.184 C 
HETATM    2  N1  UNL     1      25.453   0.178  53.125  1.00  0.00    -0.271 N 
HETATM    3  C2  UNL     1      24.064   0.110  53.381  1.00  0.00     0.156 C 
HETATM    4  C3  UNL     1      22.744   0.181  53.525  1.00  0.00     0.119 C 
HETATM    5  O1  UNL     1      22.645  -0.911  54.346  1.00  0.00    -0.345 OA
HETATM    6  C4  UNL     1      21.495  -1.672  54.644  1.00  0.00     0.202 C 
HETATM    7  C5  UNL     1      20.344  -1.107  53.876  1.00  0.00     0.202 C 
HETATM    8  O2  UNL     1      20.491   0.319  53.756  1.00  0.00    -0.346 OA
HETATM    9  C6  UNL     1      21.576   0.924  53.147  1.00  0.00     0.107 C 
HETATM   10  C7  UNL     1      21.220   1.982  52.413  1.00  0.00    -0.023 C 
HETATM   11  C8  UNL     1      19.915   2.588  52.159  1.00  0.00     0.185 C 
HETATM   12  N2  UNL     1      19.746   3.018  50.806  1.00  0.00    -0.301 NA
HETATM   13  C9  UNL     1      20.686   3.521  50.103  1.00  0.00     0.088 C 
HETATM   14  C10 UNL     1      22.044   3.592  50.626  1.00  0.00     0.030 C 
HETATM   15  C11 UNL     1      23.071   3.200  49.530  1.00  0.00     0.015 C 
HETATM   16  C12 UNL     1      24.452   2.995  50.091  1.00  0.00     0.018 C 
HETATM   17  C13 UNL     1      25.222   3.095  51.242  1.00  0.00    -0.021 C 
HETATM   18  C14 UNL     1      26.670   2.677  51.084  1.00  0.00     0.029 C 
HETATM   19  C15 UNL     1      26.943   1.547  52.097  1.00  0.00     0.201 C 
HETATM   20  O3  UNL     1      26.075   0.476  51.912  1.00  0.00    -0.279 OA
HETATM   21  C16 UNL     1      22.342   2.617  51.749  1.00  0.00     0.049 C 
ENDROOT
TORSDOF 0
ENDMDL
MODEL 6
REMARK VINA RESULT:      -7.5      1.984      5.922
REMARK  0 active torsions:
REMARK  status: ('A' for Active; 'I' for Inactive)
ROOT
HETATM    1  C1  UNL     1      27.852   1.819  52.757  1.00  0.00     0.184 C 
HETATM    2  N1  UNL     1      26.485   1.856  53.174  1.00  0.00    -0.271 N 
HETATM    3  C2  UNL     1      25.797   2.406  52.068  1.00  0.00     0.156 C 
HETATM    4  C3  UNL     1      25.032   2.812  51.060  1.00  0.00     0.119 C 
HETATM    5  O1  UNL     1      25.885   3.796  50.638  1.00  0.00    -0.345 OA
HETATM    6  C4  UNL     1      25.596   4.899  49.806  1.00  0.00     0.202 C 
HETATM    7  C5  UNL     1      24.144   4.856  49.455  1.00  0.00     0.202 C 
HETATM    8  O2  UNL     1      23.708   3.489  49.346  1.00  0.00    -0.346 OA
HETATM    9  C6  UNL     1      23.787   2.579  50.385  1.00  0.00     0.107 C 
HETATM   10  C7  UNL     1      22.713   1.786  50.445  1.00  0.00    -0.023 C 
HETATM   11  C8  UNL     1      21.511   1.721  49.618  1.00  0.00     0.185 C 
HETATM   12  N2  UNL     1      20.319   1.490  50.372  1.00  0.00    -0.301 NA
HETATM   13  C9  UNL     1      20.270   0.736  51.401  1.00  0.00     0.088 C 
HETATM   14  C10 UNL     1      21.484   0.132  51.934  1.00  0.00     0.030 C 
HETATM   15  C11 UNL     1      21.494   0.206  53.484  1.00  0.00     0.015 C 
HETATM   16  C12 UNL     1      22.836  -0.153  54.063  1.00  0.00     0.018 C 
HETATM   17  C13 UNL     1      24.106  -0.617  53.748  1.00  0.00    -0.021 C 
HETATM   18  C14 UNL     1      25.052  -0.747  54.925  1.00  0.00     0.029 C 
HETATM   19  C15 UNL     1      26.291   0.121  54.626  1.00  0.00     0.201 C 
HETATM   20  O3  UNL     1      25.938   1.447  54.392  1.00  0.00    -0.279 OA
HETATM   21  C16 UNL     1      22.767   0.839  51.542  1.00  0.00     0.049 C 
ENDROOT
TORSDOF 0
ENDMDL
MODEL 7
REMARK VINA RESULT:      -7.4      1.965      4.813
REMARK  0 active torsions:
REMARK  status: ('A' for Active; 'I' for Inactive)
ROOT
HETATM    1  C1  UNL     1      19.512  -0.045  52.638  1.00  0.00     0.184 C 
HETATM    2  N1  UNL     1      20.880  -0.426  52.478  1.00  0.00    -0.271 N 
HETATM    3  C2  UNL     1      21.380   0.470  51.505  1.00  0.00     0.156 C 
HETATM    4  C3  UNL     1      21.988   1.320  50.682  1.00  0.00     0.119 C 
HETATM    5  O1  UNL     1      20.952   1.401  49.792  1.00  0.00    -0.345 OA
HETATM    6  C4  UNL     1      20.988   1.858  48.457  1.00  0.00     0.202 C 
HETATM    7  C5  UNL     1      22.395   2.235  48.125  1.00  0.00     0.202 C 
HETATM    8  O2  UNL     1      23.045   2.768  49.293  1.00  0.00    -0.346 OA
HETATM    9  C6  UNL     1      23.200   2.059  50.470  1.00  0.00     0.107 C 
HETATM   10  C7  UNL     1      24.393   2.268  51.034  1.00  0.00    -0.023 C 
HETATM   11  C8  UNL     1      25.523   3.098  50.627  1.00  0.00     0.185 C 
HETATM   12  N2  UNL     1      26.791   2.477  50.850  1.00  0.00    -0.301 NA
HETATM   13  C9  UNL     1      27.044   1.731  51.855  1.00  0.00     0.088 C 
HETATM   14  C10 UNL     1      25.992   1.386  52.803  1.00  0.00     0.030 C 
HETATM   15  C11 UNL     1      26.087  -0.112  53.200  1.00  0.00     0.015 C 
HETATM   16  C12 UNL     1      24.873  -0.579  53.955  1.00  0.00     0.018 C 
HETATM   17  C13 UNL     1      23.679  -0.162  54.528  1.00  0.00    -0.021 C 
HETATM   18  C14 UNL     1      22.860  -1.261  55.175  1.00  0.00     0.029 C 
HETATM   19  C15 UNL     1      21.473  -1.269  54.500  1.00  0.00     0.201 C 
HETATM   20  O3  UNL     1      21.579  -1.447  53.124  1.00  0.00    -0.279 OA
HETATM   21  C16 UNL     1      24.582   1.515  52.258  1.00  0.00     0.049 C 
ENDROOT
TORSDOF 0
ENDMDL
MODEL 8
REMARK VINA RESULT:      -7.4      1.631      2.069
REMARK  0 active torsions:
REMARK  status: ('A' for Active; 'I' for Inactive)
ROOT
HETATM    1  C1  UNL     1      22.657   4.865  48.657  1.00  0.00     0.184 C 
HETATM    2  N1  UNL     1      23.464   4.569  49.799  1.00  0.00    -0.271 N 
HETATM    3  C2  UNL     1      22.695   3.642  50.539  1.00  0.00     0.156 C 
HETATM    4  C3  UNL     1      22.115   2.690  51.264  1.00  0.00     0.119 C 
HETATM    5  O1  UNL     1      20.847   3.194  51.146  1.00  0.00    -0.345 OA
HETATM    6  C4  UNL     1      19.720   2.905  51.945  1.00  0.00     0.202 C 
HETATM    7  C5  UNL     1      20.133   1.944  53.013  1.00  0.00     0.202 C 
HETATM    8  O2  UNL     1      21.146   1.057  52.505  1.00  0.00    -0.346 OA
HETATM    9  C6  UNL     1      22.363   1.492  52.014  1.00  0.00     0.107 C 
HETATM   10  C7  UNL     1      23.370   0.692  52.377  1.00  0.00    -0.023 C 
HETATM   11  C8  UNL     1      23.396  -0.529  53.177  1.00  0.00     0.185 C 
HETATM   12  N2  UNL     1      24.518  -0.602  54.060  1.00  0.00    -0.301 NA
HETATM   13  C9  UNL     1      25.680  -0.165  53.762  1.00  0.00     0.088 C 
HETATM   14  C10 UNL     1      25.905   0.542  52.508  1.00  0.00     0.030 C 
HETATM   15  C11 UNL     1      26.824   1.772  52.733  1.00  0.00     0.015 C 
HETATM   16  C12 UNL     1      26.864   2.680  51.535  1.00  0.00     0.018 C 
HETATM   17  C13 UNL     1      26.443   2.822  50.220  1.00  0.00    -0.021 C 
HETATM   18  C14 UNL     1      26.872   4.108  49.543  1.00  0.00     0.029 C 
HETATM   19  C15 UNL     1      25.597   4.833  49.068  1.00  0.00     0.201 C 
HETATM   20  O3  UNL     1      24.725   5.073  50.125  1.00  0.00    -0.279 OA
HETATM   21  C16 UNL     1      24.659   1.145  51.889  1.00  0.00     0.049 C 
ENDROOT
TORSDOF 0
ENDMDL
MODEL 9
REMARK VINA RESULT:      -7.3      1.891      4.877
REMARK  0 active torsions:
REMARK  status: ('A' for Active; 'I' for Inactive)
ROOT
HETATM    1  C1  UNL     1      20.474  -0.192  53.523  1.00  0.00     0.184 C 
HETATM    2  N1  UNL     1      21.715  -0.276  52.820  1.00  0.00    -0.271 N 
HETATM    3  C2  UNL     1      21.610   0.706  51.808  1.00  0.00     0.156 C 
HETATM    4  C3  UNL     1      21.669   1.666  50.889  1.00  0.00     0.119 C 
HETATM    5  O1  UNL     1      20.372   1.527  50.474  1.00  0.00    -0.345 OA
HETATM    6  C4  UNL     1      19.792   1.982  49.270  1.00  0.00     0.202 C 
HETATM    7  C5  UNL     1      20.855   2.647  48.457  1.00  0.00     0.202 C 
HETATM    8  O2  UNL     1      21.794   3.305  49.326  1.00  0.00    -0.346 OA
HETATM    9  C6  UNL     1      22.532   2.644  50.290  1.00  0.00     0.107 C 
HETATM   10  C7  UNL     1      23.786   3.099  50.369  1.00  0.00    -0.023 C 
HETATM   11  C8  UNL     1      24.482   4.149  49.630  1.00  0.00     0.185 C 
HETATM   12  N2  UNL     1      25.830   3.808  49.298  1.00  0.00    -0.301 NA
HETATM   13  C9  UNL     1      26.596   3.132  50.063  1.00  0.00     0.088 C 
HETATM   14  C10 UNL     1      26.089   2.573  51.309  1.00  0.00     0.030 C 
HETATM   15  C11 UNL     1      26.620   1.128  51.514  1.00  0.00     0.015 C 
HETATM   16  C12 UNL     1      25.914   0.415  52.635  1.00  0.00     0.018 C 
HETATM   17  C13 UNL     1      24.985   0.571  53.654  1.00  0.00    -0.021 C 
HETATM   18  C14 UNL     1      24.716  -0.676  54.472  1.00  0.00     0.029 C 
HETATM   19  C15 UNL     1      23.206  -0.976  54.382  1.00  0.00     0.201 C 
HETATM   20  O3  UNL     1      22.795  -1.127  53.062  1.00  0.00    -0.279 OA
HETATM   21  C16 UNL     1      24.582   2.402  51.360  1.00  0.00     0.049 C 
ENDROOT
TORSDOF 0
ENDMDL
