MODEL 1
REMARK VINA RESULT:      -9.1      0.000      0.000
REMARK  6 active torsions:
REMARK  status: ('A' for Active; 'I' for Inactive)
REMARK    1  A    between atoms: N1_1  and  C1_2 
REMARK    2  A    between atoms: C5_8  and  C6_9 
REMARK    3  A    between atoms: C6_9  and  C7_10 
REMARK    4  A    between atoms: N4_21  and  C17_22 
REMARK    5  A    between atoms: C19_24  and  C20_25 
REMARK    6  A    between atoms: C20_25  and  N5_26 
ROOT
HETATM    1  C1  UNL     1      20.494  -0.381  53.358  1.00  0.00     0.137 A 
HETATM    2  N2  UNL     1      19.190  -0.526  53.016  1.00  0.00    -0.224 NA
HETATM    3  C2  UNL     1      18.713  -0.012  51.872  1.00  0.00     0.237 A 
HETATM    4  N3  UNL     1      19.561   0.651  51.073  1.00  0.00    -0.223 NA
HETATM    5  C3  UNL     1      20.832   0.798  51.396  1.00  0.00     0.146 A 
HETATM    6  C4  UNL     1      21.374   0.299  52.546  1.00  0.00     0.063 A 
HETATM    7  C5  UNL     1      22.714   0.569  52.669  1.00  0.00    -0.021 A 
HETATM    8  C16 UNL     1      23.008   1.280  51.515  1.00  0.00     0.101 A 
HETATM    9  N4  UNL     1      21.875   1.402  50.777  1.00  0.00    -0.336 N 
ENDROOT
BRANCH   7  10
HETATM   10  C6  UNL     1      23.636   0.217  53.784  1.00  0.00     0.071 C 
BRANCH  10  11
HETATM   11  C7  UNL     1      24.719  -0.659  53.295  1.00  0.00     0.014 C 
HETATM   12  C8  UNL     1      25.992  -0.933  53.252  1.00  0.00     0.061 C 
HETATM   13  C9  UNL     1      27.094  -1.760  52.799  1.00  0.00     0.015 C 
HETATM   14  O1  UNL     1      26.315   0.192  54.036  1.00  0.00    -0.351 OA
HETATM   15  C10 UNL     1      28.281  -1.408  53.242  1.00  0.00     0.022 C 
HETATM   16  C11 UNL     1      29.730  -1.348  53.492  1.00  0.00     0.036 C 
HETATM   17  C12 UNL     1      30.087   0.151  53.307  1.00  0.00    -0.030 C 
HETATM   18  C13 UNL     1      29.013   0.942  53.637  1.00  0.00    -0.029 C 
HETATM   19  C14 UNL     1      27.919   1.931  53.960  1.00  0.00     0.053 C 
HETATM   20  C15 UNL     1      26.632   1.437  53.287  1.00  0.00     0.179 C 
ENDBRANCH  10  11
ENDBRANCH   7  10
BRANCH   1  21
HETATM   21  N1  UNL     1      20.864  -0.984  54.584  1.00  0.00    -0.383 N 
HETATM   22  H1  UNL     1      21.164  -0.891  55.568  1.00  0.00     0.157 HD
HETATM   23  H2  UNL     1      20.879  -2.023  54.662  1.00  0.00     0.157 HD
ENDBRANCH   1  21
BRANCH   9  24
HETATM   24  C17 UNL     1      21.913   2.101  49.529  1.00  0.00     0.092 C 
HETATM   25  C18 UNL     1      23.241   2.562  49.047  1.00  0.00     0.032 C 
HETATM   26  C19 UNL     1      22.932   3.955  49.601  1.00  0.00     0.018 C 
HETATM   27  C24 UNL     1      21.484   3.551  49.590  1.00  0.00     0.032 C 
BRANCH  26  28
HETATM   28  C20 UNL     1      23.365   4.992  48.612  1.00  0.00     0.277 C 
BRANCH  28  29
HETATM   29  N5  UNL     1      24.041   6.123  49.159  1.00  0.00     0.088 N 
HETATM   30  C21 UNL     1      25.081   5.648  50.086  1.00  0.00     0.274 C 
HETATM   31  C22 UNL     1      26.043   5.664  48.918  1.00  0.00     0.060 C 
HETATM   32  C23 UNL     1      25.092   6.728  48.404  1.00  0.00     0.274 C 
ENDBRANCH  28  29
ENDBRANCH  26  28
ENDBRANCH   9  24
TORSDOF 6
ENDMDL
MODEL 2
REMARK VINA RESULT:      -8.6      1.880      2.760
REMARK  6 active torsions:
REMARK  status: ('A' for Active; 'I' for Inactive)
REMARK    1  A    between atoms: N1_1  and  C1_2 
REMARK    2  A    between atoms: C5_8  and  C6_9 
REMARK    3  A    between atoms: C6_9  and  C7_10 
REMARK    4  A    between atoms: N4_21  and  C17_22 
REMARK    5  A    between atoms: C19_24  and  C20_25 
REMARK    6  A    between atoms: C20_25  and  N5_26 
ROOT
HETATM    1  C1  UNL     1      21.100   2.584  52.147  1.00  0.00     0.137 A 
HETATM    2  N2  UNL     1      20.033   3.179  51.559  1.00  0.00    -0.224 NA
HETATM    3  C2  UNL     1      20.181   3.949  50.471  1.00  0.00     0.237 A 
HETATM    4  N3  UNL     1      21.417   4.116  49.976  1.00  0.00    -0.223 NA
HETATM    5  C3  UNL     1      22.463   3.542  50.540  1.00  0.00     0.146 A 
HETATM    6  C4  UNL     1      22.373   2.749  51.649  1.00  0.00     0.063 A 
HETATM    7  C5  UNL     1      23.588   2.256  52.056  1.00  0.00    -0.021 A 
HETATM    8  C16 UNL     1      24.477   2.784  51.131  1.00  0.00     0.101 A 
HETATM    9  N4  UNL     1      23.784   3.542  50.243  1.00  0.00    -0.336 N 
ENDROOT
BRANCH   7  10
HETATM   10  C6  UNL     1      23.895   1.389  53.227  1.00  0.00     0.071 C 
BRANCH  10  11
HETATM   11  C7  UNL     1      24.761   0.265  52.816  1.00  0.00     0.014 C 
HETATM   12  C8  UNL     1      25.918  -0.329  52.889  1.00  0.00     0.061 C 
HETATM   13  C9  UNL     1      26.811  -1.411  52.519  1.00  0.00     0.015 C 
HETATM   14  O1  UNL     1      26.437   0.669  53.738  1.00  0.00    -0.351 OA
HETATM   15  C10 UNL     1      27.997  -1.382  53.088  1.00  0.00     0.022 C 
HETATM   16  C11 UNL     1      29.379  -1.701  53.480  1.00  0.00     0.036 C 
HETATM   17  C12 UNL     1      30.126  -0.344  53.381  1.00  0.00    -0.030 C 
HETATM   18  C13 UNL     1      29.264   0.695  53.630  1.00  0.00    -0.029 C 
HETATM   19  C14 UNL     1      28.434   1.932  53.878  1.00  0.00     0.053 C 
HETATM   20  C15 UNL     1      27.139   1.794  53.065  1.00  0.00     0.179 C 
ENDBRANCH  10  11
ENDBRANCH   7  10
BRANCH   1  21
HETATM   21  N1  UNL     1      20.797   1.790  53.279  1.00  0.00    -0.383 N 
HETATM   22  H1  UNL     1      21.117   1.244  54.095  1.00  0.00     0.157 HD
HETATM   23  H2  UNL     1      19.802   1.582  53.510  1.00  0.00     0.157 HD
ENDBRANCH   1  21
BRANCH   9  24
HETATM   24  C17 UNL     1      24.479   4.202  49.180  1.00  0.00     0.092 C 
HETATM   25  C18 UNL     1      25.869   4.651  49.451  1.00  0.00     0.032 C 
HETATM   26  C19 UNL     1      25.336   6.060  49.722  1.00  0.00     0.018 C 
HETATM   27  C24 UNL     1      24.102   5.652  48.967  1.00  0.00     0.032 C 
BRANCH  26  28
HETATM   28  C20 UNL     1      26.236   7.066  49.077  1.00  0.00     0.277 C 
BRANCH  28  29
HETATM   29  N5  UNL     1      26.705   8.111  49.929  1.00  0.00     0.088 N 
HETATM   30  C21 UNL     1      27.873   8.746  49.296  1.00  0.00     0.274 C 
HETATM   31  C22 UNL     1      26.915   9.727  48.654  1.00  0.00     0.060 C 
HETATM   32  C23 UNL     1      26.068   9.388  49.866  1.00  0.00     0.274 C 
ENDBRANCH  28  29
ENDBRANCH  26  28
ENDBRANCH   9  24
TORSDOF 6
ENDMDL
MODEL 3
REMARK VINA RESULT:      -8.5      4.099      7.733
REMARK  6 active torsions:
REMARK  status: ('A' for Active; 'I' for Inactive)
REMARK    1  A    between atoms: N1_1  and  C1_2 
REMARK    2  A    between atoms: C5_8  and  C6_9 
REMARK    3  A    between atoms: C6_9  and  C7_10 
REMARK    4  A    between atoms: N4_21  and  C17_22 
REMARK    5  A    between atoms: C19_24  and  C20_25 
REMARK    6  A    between atoms: C20_25  and  N5_26 
ROOT
HETATM    1  C1  UNL     1      25.028   7.023  50.201  1.00  0.00     0.137 A 
HETATM    2  N2  UNL     1      24.893   8.352  50.430  1.00  0.00    -0.224 NA
HETATM    3  C2  UNL     1      25.803   9.228  49.978  1.00  0.00     0.237 A 
HETATM    4  N3  UNL     1      26.853   8.755  49.292  1.00  0.00    -0.223 NA
HETATM    5  C3  UNL     1      26.995   7.463  49.064  1.00  0.00     0.146 A 
HETATM    6  C4  UNL     1      26.102   6.524  49.499  1.00  0.00     0.063 A 
HETATM    7  C5  UNL     1      26.451   5.246  49.141  1.00  0.00    -0.021 A 
HETATM    8  C16 UNL     1      27.636   5.418  48.439  1.00  0.00     0.101 A 
HETATM    9  N4  UNL     1      27.936   6.742  48.408  1.00  0.00    -0.336 N 
ENDROOT
BRANCH   7  10
HETATM   10  C6  UNL     1      25.752   3.969  49.452  1.00  0.00     0.071 C 
BRANCH  10  11
HETATM   11  C7  UNL     1      26.514   3.201  50.457  1.00  0.00     0.014 C 
HETATM   12  C8  UNL     1      26.551   2.212  51.304  1.00  0.00     0.061 C 
HETATM   13  C9  UNL     1      27.254   1.423  52.298  1.00  0.00     0.015 C 
HETATM   14  O1  UNL     1      25.218   1.852  51.026  1.00  0.00    -0.351 OA
HETATM   15  C10 UNL     1      26.585   0.397  52.778  1.00  0.00     0.022 C 
HETATM   16  C11 UNL     1      26.196  -0.794  53.551  1.00  0.00     0.036 C 
HETATM   17  C12 UNL     1      24.763  -0.473  54.051  1.00  0.00    -0.030 C 
HETATM   18  C13 UNL     1      24.122   0.359  53.165  1.00  0.00    -0.029 C 
HETATM   19  C14 UNL     1      23.301   1.271  52.287  1.00  0.00     0.053 C 
HETATM   20  C15 UNL     1      24.184   2.466  51.901  1.00  0.00     0.179 C 
ENDBRANCH  10  11
ENDBRANCH   7  10
BRANCH   1  21
HETATM   21  N1  UNL     1      23.989   6.215  50.722  1.00  0.00    -0.383 N 
HETATM   22  H1  UNL     1      23.055   5.787  50.616  1.00  0.00     0.157 HD
HETATM   23  H2  UNL     1      24.099   5.778  51.662  1.00  0.00     0.157 HD
ENDBRANCH   1  21
BRANCH   9  24
HETATM   24  C17 UNL     1      29.120   7.185  47.738  1.00  0.00     0.092 C 
HETATM   25  C18 UNL     1      30.151   6.161  47.429  1.00  0.00     0.032 C 
HETATM   26  C19 UNL     1      30.923   6.596  48.677  1.00  0.00     0.018 C 
HETATM   27  C24 UNL     1      30.137   7.876  48.618  1.00  0.00     0.032 C 
BRANCH  26  28
HETATM   28  C20 UNL     1      32.383   6.670  48.359  1.00  0.00     0.277 C 
BRANCH  28  29
HETATM   29  N5  UNL     1      33.190   5.632  48.914  1.00  0.00     0.088 N 
HETATM   30  C21 UNL     1      33.331   4.559  47.916  1.00  0.00     0.274 C 
HETATM   31  C22 UNL     1      34.589   5.253  47.439  1.00  0.00     0.060 C 
HETATM   32  C23 UNL     1      34.612   5.764  48.867  1.00  0.00     0.274 C 
ENDBRANCH  28  29
ENDBRANCH  26  28
ENDBRANCH   9  24
TORSDOF 6
ENDMDL
MODEL 4
REMARK VINA RESULT:      -8.5      2.210      5.711
REMARK  6 active torsions:
REMARK  status: ('A' for Active; 'I' for Inactive)
REMARK    1  A    between atoms: N1_1  and  C1_2 
REMARK    2  A    between atoms: C5_8  and  C6_9 
REMARK    3  A    between atoms: C6_9  and  C7_10 
REMARK    4  A    between atoms: N4_21  and  C17_22 
REMARK    5  A    between atoms: C19_24  and  C20_25 
REMARK    6  A    between atoms: C20_25  and  N5_26 
ROOT
HETATM    1  C1  UNL     1      22.829   5.201  51.714  1.00  0.00     0.137 A 
HETATM    2  N2  UNL     1      22.059   6.190  51.199  1.00  0.00    -0.224 NA
HETATM    3  C2  UNL     1      20.936   5.911  50.520  1.00  0.00     0.237 A 
HETATM    4  N3  UNL     1      20.593   4.624  50.364  1.00  0.00    -0.223 NA
HETATM    5  C3  UNL     1      21.335   3.653  50.861  1.00  0.00     0.146 A 
HETATM    6  C4  UNL     1      22.488   3.876  51.559  1.00  0.00     0.063 A 
HETATM    7  C5  UNL     1      23.090   2.718  51.984  1.00  0.00    -0.021 A 
HETATM    8  C16 UNL     1      22.246   1.723  51.514  1.00  0.00     0.101 A 
HETATM    9  N4  UNL     1      21.213   2.304  50.851  1.00  0.00    -0.336 N 
ENDROOT
BRANCH   7  10
HETATM   10  C6  UNL     1      24.362   2.554  52.742  1.00  0.00     0.071 C 
BRANCH  10  11
HETATM   11  C7  UNL     1      25.001   1.269  52.395  1.00  0.00     0.014 C 
HETATM   12  C8  UNL     1      25.990   0.440  52.567  1.00  0.00     0.061 C 
HETATM   13  C9  UNL     1      26.661  -0.811  52.263  1.00  0.00     0.015 C 
HETATM   14  O1  UNL     1      26.628   1.304  53.479  1.00  0.00    -0.351 OA
HETATM   15  C10 UNL     1      27.764  -1.037  52.942  1.00  0.00     0.022 C 
HETATM   16  C11 UNL     1      29.001  -1.646  53.458  1.00  0.00     0.036 C 
HETATM   17  C12 UNL     1      30.029  -0.483  53.455  1.00  0.00    -0.030 C 
HETATM   18  C13 UNL     1      29.391   0.719  53.640  1.00  0.00    -0.029 C 
HETATM   19  C14 UNL     1      28.826   2.106  53.830  1.00  0.00     0.053 C 
HETATM   20  C15 UNL     1      27.617   2.249  52.896  1.00  0.00     0.179 C 
ENDBRANCH  10  11
ENDBRANCH   7  10
BRANCH   1  21
HETATM   21  N1  UNL     1      23.977   5.638  52.418  1.00  0.00    -0.383 N 
HETATM   22  H1  UNL     1      24.405   6.009  53.282  1.00  0.00     0.157 HD
HETATM   23  H2  UNL     1      24.906   5.627  51.945  1.00  0.00     0.157 HD
ENDBRANCH   1  21
BRANCH   9  24
HETATM   24  C17 UNL     1      20.196   1.486  50.266  1.00  0.00     0.092 C 
HETATM   25  C18 UNL     1      18.789   1.936  50.415  1.00  0.00     0.032 C 
HETATM   26  C19 UNL     1      18.627   0.966  51.588  1.00  0.00     0.018 C 
HETATM   27  C24 UNL     1      19.834   0.246  51.054  1.00  0.00     0.032 C 
BRANCH  26  28
HETATM   28  C20 UNL     1      17.307   0.270  51.481  1.00  0.00     0.277 C 
BRANCH  28  29
HETATM   29  N5  UNL     1      16.778  -0.242  52.704  1.00  0.00     0.088 N 
HETATM   30  C21 UNL     1      15.402  -0.705  52.464  1.00  0.00     0.274 C 
HETATM   31  C22 UNL     1      15.979  -2.072  52.165  1.00  0.00     0.060 C 
HETATM   32  C23 UNL     1      17.087  -1.585  53.079  1.00  0.00     0.274 C 
ENDBRANCH  28  29
ENDBRANCH  26  28
ENDBRANCH   9  24
TORSDOF 6
ENDMDL
MODEL 5
REMARK VINA RESULT:      -8.3      4.644      8.612
REMARK  6 active torsions:
REMARK  status: ('A' for Active; 'I' for Inactive)
REMARK    1  A    between atoms: N1_1  and  C1_2 
REMARK    2  A    between atoms: C5_8  and  C6_9 
REMARK    3  A    between atoms: C6_9  and  C7_10 
REMARK    4  A    between atoms: N4_21  and  C17_22 
REMARK    5  A    between atoms: C19_24  and  C20_25 
REMARK    6  A    between atoms: C20_25  and  N5_26 
ROOT
HETATM    1  C1  UNL     1      25.866   8.106  49.500  1.00  0.00     0.137 A 
HETATM    2  N2  UNL     1      24.775   8.470  50.217  1.00  0.00    -0.224 NA
HETATM    3  C2  UNL     1      23.989   7.552  50.799  1.00  0.00     0.237 A 
HETATM    4  N3  UNL     1      24.312   6.258  50.654  1.00  0.00    -0.223 NA
HETATM    5  C3  UNL     1      25.372   5.891  49.958  1.00  0.00     0.146 A 
HETATM    6  C4  UNL     1      26.207   6.781  49.343  1.00  0.00     0.063 A 
HETATM    7  C5  UNL     1      27.245   6.173  48.682  1.00  0.00    -0.021 A 
HETATM    8  C16 UNL     1      27.028   4.822  48.911  1.00  0.00     0.101 A 
HETATM    9  N4  UNL     1      25.911   4.682  49.671  1.00  0.00    -0.336 N 
ENDROOT
BRANCH   7  10
HETATM   10  C6  UNL     1      28.332   6.800  47.880  1.00  0.00     0.071 C 
BRANCH  10  11
HETATM   11  C7  UNL     1      29.507   5.907  47.825  1.00  0.00     0.014 C 
HETATM   12  C8  UNL     1      30.782   5.737  48.028  1.00  0.00     0.061 C 
HETATM   13  C9  UNL     1      31.968   4.903  47.995  1.00  0.00     0.015 C 
HETATM   14  O1  UNL     1      30.947   7.069  48.456  1.00  0.00    -0.351 OA
HETATM   15  C10 UNL     1      33.066   5.467  48.450  1.00  0.00     0.022 C 
HETATM   16  C11 UNL     1      34.462   5.717  48.845  1.00  0.00     0.036 C 
HETATM   17  C12 UNL     1      34.783   7.113  48.248  1.00  0.00    -0.030 C 
HETATM   18  C13 UNL     1      33.644   7.878  48.180  1.00  0.00    -0.029 C 
HETATM   19  C14 UNL     1      32.477   8.826  48.041  1.00  0.00     0.053 C 
HETATM   20  C15 UNL     1      31.319   8.049  47.401  1.00  0.00     0.179 C 
ENDBRANCH  10  11
ENDBRANCH   7  10
BRANCH   1  21
HETATM   21  N1  UNL     1      26.612   9.177  48.954  1.00  0.00    -0.383 N 
HETATM   22  H1  UNL     1      27.277   9.957  49.082  1.00  0.00     0.157 HD
HETATM   23  H2  UNL     1      26.544   9.383  47.934  1.00  0.00     0.157 HD
ENDBRANCH   1  21
BRANCH   9  24
HETATM   24  C17 UNL     1      25.469   3.375  50.047  1.00  0.00     0.092 C 
HETATM   25  C18 UNL     1      25.293   3.107  51.498  1.00  0.00     0.032 C 
HETATM   26  C19 UNL     1      26.671   2.440  51.518  1.00  0.00     0.018 C 
HETATM   27  C24 UNL     1      26.537   2.303  50.027  1.00  0.00     0.032 C 
BRANCH  26  28
HETATM   28  C20 UNL     1      26.606   1.187  52.332  1.00  0.00     0.277 C 
BRANCH  28  29
HETATM   29  N5  UNL     1      27.325   1.212  53.565  1.00  0.00     0.088 N 
HETATM   30  C21 UNL     1      27.247  -0.121  54.184  1.00  0.00     0.274 C 
HETATM   31  C22 UNL     1      28.534  -0.462  53.464  1.00  0.00     0.060 C 
HETATM   32  C23 UNL     1      28.742   1.038  53.539  1.00  0.00     0.274 C 
ENDBRANCH  28  29
ENDBRANCH  26  28
ENDBRANCH   9  24
TORSDOF 6
ENDMDL
MODEL 6
REMARK VINA RESULT:      -8.3      1.811      3.483
REMARK  6 active torsions:
REMARK  status: ('A' for Active; 'I' for Inactive)
REMARK    1  A    between atoms: N1_1  and  C1_2 
REMARK    2  A    between atoms: C5_8  and  C6_9 
REMARK    3  A    between atoms: C6_9  and  C7_10 
REMARK    4  A    between atoms: N4_21  and  C17_22 
REMARK    5  A    between atoms: C19_24  and  C20_25 
REMARK    6  A    between atoms: C20_25  and  N5_26 
ROOT
HETATM    1  C1  UNL     1      21.925   1.408  50.286  1.00  0.00     0.137 A 
HETATM    2  N2  UNL     1      21.182   1.417  49.152  1.00  0.00    -0.224 NA
HETATM    3  C2  UNL     1      21.182   2.479  48.332  1.00  0.00     0.237 A 
HETATM    4  N3  UNL     1      21.940   3.535  48.663  1.00  0.00    -0.223 NA
HETATM    5  C3  UNL     1      22.667   3.537  49.765  1.00  0.00     0.146 A 
HETATM    6  C4  UNL     1      22.705   2.486  50.637  1.00  0.00     0.063 A 
HETATM    7  C5  UNL     1      23.533   2.710  51.709  1.00  0.00    -0.021 A 
HETATM    8  C16 UNL     1      24.033   3.982  51.473  1.00  0.00     0.101 A 
HETATM    9  N4  UNL     1      23.504   4.450  50.313  1.00  0.00    -0.336 N 
ENDROOT
BRANCH   7  10
HETATM   10  C6  UNL     1      23.811   1.821  52.871  1.00  0.00     0.071 C 
BRANCH  10  11
HETATM   11  C7  UNL     1      25.165   2.081  53.401  1.00  0.00     0.014 C 
HETATM   12  C8  UNL     1      26.415   1.725  53.476  1.00  0.00     0.061 C 
HETATM   13  C9  UNL     1      27.763   1.934  53.969  1.00  0.00     0.015 C 
HETATM   14  O1  UNL     1      26.195   0.586  52.677  1.00  0.00    -0.351 OA
HETATM   15  C10 UNL     1      28.659   1.069  53.544  1.00  0.00     0.022 C 
HETATM   16  C11 UNL     1      29.917   0.337  53.324  1.00  0.00     0.036 C 
HETATM   17  C12 UNL     1      29.522  -1.155  53.486  1.00  0.00    -0.030 C 
HETATM   18  C13 UNL     1      28.213  -1.347  53.118  1.00  0.00    -0.029 C 
HETATM   19  C14 UNL     1      26.792  -1.703  52.752  1.00  0.00     0.053 C 
HETATM   20  C15 UNL     1      25.869  -0.668  53.407  1.00  0.00     0.179 C 
ENDBRANCH  10  11
ENDBRANCH   7  10
BRANCH   1  21
HETATM   21  N1  UNL     1      21.841   0.219  51.050  1.00  0.00    -0.383 N 
HETATM   22  H1  UNL     1      21.279  -0.564  51.421  1.00  0.00     0.157 HD
HETATM   23  H2  UNL     1      22.696  -0.155  51.514  1.00  0.00     0.157 HD
ENDBRANCH   1  21
BRANCH   9  24
HETATM   24  C17 UNL     1      23.864   5.753  49.845  1.00  0.00     0.092 C 
HETATM   25  C18 UNL     1      24.319   5.868  48.435  1.00  0.00     0.032 C 
HETATM   26  C19 UNL     1      25.769   5.852  48.926  1.00  0.00     0.018 C 
HETATM   27  C24 UNL     1      25.231   6.237  50.277  1.00  0.00     0.032 C 
BRANCH  26  28
HETATM   28  C20 UNL     1      26.559   6.881  48.181  1.00  0.00     0.277 C 
BRANCH  28  29
HETATM   29  N5  UNL     1      27.867   7.143  48.690  1.00  0.00     0.088 N 
HETATM   30  C21 UNL     1      28.825   6.262  48.002  1.00  0.00     0.274 C 
HETATM   31  C22 UNL     1      29.020   7.369  46.988  1.00  0.00     0.060 C 
HETATM   32  C23 UNL     1      28.606   8.243  48.155  1.00  0.00     0.274 C 
ENDBRANCH  28  29
ENDBRANCH  26  28
ENDBRANCH   9  24
TORSDOF 6
ENDMDL
MODEL 7
REMARK VINA RESULT:      -8.3      2.865      7.036
REMARK  6 active torsions:
REMARK  status: ('A' for Active; 'I' for Inactive)
REMARK    1  A    between atoms: N1_1  and  C1_2 
REMARK    2  A    between atoms: C5_8  and  C6_9 
REMARK    3  A    between atoms: C6_9  and  C7_10 
REMARK    4  A    between atoms: N4_21  and  C17_22 
REMARK    5  A    between atoms: C19_24  and  C20_25 
REMARK    6  A    between atoms: C20_25  and  N5_26 
ROOT
HETATM    1  C1  UNL     1      21.437   4.166  51.608  1.00  0.00     0.137 A 
HETATM    2  N2  UNL     1      20.336   3.631  52.190  1.00  0.00    -0.224 NA
HETATM    3  C2  UNL     1      20.365   2.403  52.730  1.00  0.00     0.237 A 
HETATM    4  N3  UNL     1      21.516   1.716  52.680  1.00  0.00    -0.223 NA
HETATM    5  C3  UNL     1      22.594   2.227  52.116  1.00  0.00     0.146 A 
HETATM    6  C4  UNL     1      22.623   3.470  51.550  1.00  0.00     0.063 A 
HETATM    7  C5  UNL     1      23.852   3.793  51.029  1.00  0.00    -0.021 A 
HETATM    8  C16 UNL     1      24.622   2.671  51.298  1.00  0.00     0.101 A 
HETATM    9  N4  UNL     1      23.853   1.757  51.943  1.00  0.00    -0.336 N 
ENDROOT
BRANCH   7  10
HETATM   10  C6  UNL     1      24.263   5.034  50.316  1.00  0.00     0.071 C 
BRANCH  10  11
HETATM   11  C7  UNL     1      25.582   4.844  49.680  1.00  0.00     0.014 C 
HETATM   12  C8  UNL     1      26.606   5.370  49.070  1.00  0.00     0.061 C 
HETATM   13  C9  UNL     1      27.904   5.240  48.434  1.00  0.00     0.015 C 
HETATM   14  O1  UNL     1      26.029   6.655  49.093  1.00  0.00    -0.351 OA
HETATM   15  C10 UNL     1      28.441   6.366  48.016  1.00  0.00     0.022 C 
HETATM   16  C11 UNL     1      29.350   7.354  47.415  1.00  0.00     0.036 C 
HETATM   17  C12 UNL     1      28.424   8.244  46.544  1.00  0.00    -0.030 C 
HETATM   18  C13 UNL     1      27.162   8.292  47.083  1.00  0.00    -0.029 C 
HETATM   19  C14 UNL     1      25.735   8.430  47.557  1.00  0.00     0.053 C 
HETATM   20  C15 UNL     1      25.221   7.026  47.903  1.00  0.00     0.179 C 
ENDBRANCH  10  11
ENDBRANCH   7  10
BRANCH   1  21
HETATM   21  N1  UNL     1      21.269   5.474  51.093  1.00  0.00    -0.383 N 
HETATM   22  H1  UNL     1      21.292   6.497  51.233  1.00  0.00     0.157 HD
HETATM   23  H2  UNL     1      20.987   5.601  50.097  1.00  0.00     0.157 HD
ENDBRANCH   1  21
BRANCH   9  24
HETATM   24  C17 UNL     1      24.418   0.502  52.333  1.00  0.00     0.092 C 
HETATM   25  C18 UNL     1      24.673   0.290  53.781  1.00  0.00     0.032 C 
HETATM   26  C19 UNL     1      26.140   0.665  53.553  1.00  0.00     0.018 C 
HETATM   27  C24 UNL     1      25.907   0.367  52.098  1.00  0.00     0.032 C 
BRANCH  26  28
HETATM   28  C20 UNL     1      27.018  -0.275  54.317  1.00  0.00     0.277 C 
BRANCH  28  29
HETATM   29  N5  UNL     1      28.225   0.287  54.832  1.00  0.00     0.088 N 
HETATM   30  C21 UNL     1      29.343  -0.612  54.502  1.00  0.00     0.274 C 
HETATM   31  C22 UNL     1      29.534   0.193  53.235  1.00  0.00     0.060 C 
HETATM   32  C23 UNL     1      28.899   1.289  54.069  1.00  0.00     0.274 C 
ENDBRANCH  28  29
ENDBRANCH  26  28
ENDBRANCH   9  24
TORSDOF 6
ENDMDL
MODEL 8
REMARK VINA RESULT:      -8.1      2.168      6.492
REMARK  6 active torsions:
REMARK  status: ('A' for Active; 'I' for Inactive)
REMARK    1  A    between atoms: N1_1  and  C1_2 
REMARK    2  A    between atoms: C5_8  and  C6_9 
REMARK    3  A    between atoms: C6_9  and  C7_10 
REMARK    4  A    between atoms: N4_21  and  C17_22 
REMARK    5  A    between atoms: C19_24  and  C20_25 
REMARK    6  A    between atoms: C20_25  and  N5_26 
ROOT
HETATM    1  C1  UNL     1      19.518   0.775  50.627  1.00  0.00     0.137 A 
HETATM    2  N2  UNL     1      18.640   0.122  51.426  1.00  0.00    -0.224 NA
HETATM    3  C2  UNL     1      19.009  -0.339  52.631  1.00  0.00     0.237 A 
HETATM    4  N3  UNL     1      20.274  -0.135  53.027  1.00  0.00    -0.223 NA
HETATM    5  C3  UNL     1      21.138   0.500  52.257  1.00  0.00     0.146 A 
HETATM    6  C4  UNL     1      20.819   0.990  51.022  1.00  0.00     0.063 A 
HETATM    7  C5  UNL     1      21.874   1.617  50.406  1.00  0.00    -0.021 A 
HETATM    8  C16 UNL     1      22.903   1.502  51.329  1.00  0.00     0.101 A 
HETATM    9  N4  UNL     1      22.440   0.836  52.418  1.00  0.00    -0.336 N 
ENDROOT
BRANCH   7  10
HETATM   10  C6  UNL     1      21.923   2.245  49.057  1.00  0.00     0.071 C 
BRANCH  10  11
HETATM   11  C7  UNL     1      23.164   3.031  48.904  1.00  0.00     0.014 C 
HETATM   12  C8  UNL     1      23.850   4.093  49.216  1.00  0.00     0.061 C 
HETATM   13  C9  UNL     1      25.048   4.904  49.102  1.00  0.00     0.015 C 
HETATM   14  O1  UNL     1      22.812   4.593  50.026  1.00  0.00    -0.351 OA
HETATM   15  C10 UNL     1      25.063   5.992  49.841  1.00  0.00     0.022 C 
HETATM   16  C11 UNL     1      25.461   7.261  50.473  1.00  0.00     0.036 C 
HETATM   17  C12 UNL     1      24.203   8.160  50.350  1.00  0.00    -0.030 C 
HETATM   18  C13 UNL     1      23.064   7.392  50.354  1.00  0.00    -0.029 C 
HETATM   19  C14 UNL     1      21.735   6.676  50.340  1.00  0.00     0.053 C 
HETATM   20  C15 UNL     1      21.847   5.504  49.357  1.00  0.00     0.179 C 
ENDBRANCH  10  11
ENDBRANCH   7  10
BRANCH   1  21
HETATM   21  N1  UNL     1      18.991   1.218  49.390  1.00  0.00    -0.383 N 
HETATM   22  H1  UNL     1      18.217   1.639  48.851  1.00  0.00     0.157 HD
HETATM   23  H2  UNL     1      19.568   1.136  48.527  1.00  0.00     0.157 HD
ENDBRANCH   1  21
BRANCH   9  24
HETATM   24  C17 UNL     1      23.316   0.586  53.521  1.00  0.00     0.092 C 
HETATM   25  C18 UNL     1      24.692   1.141  53.438  1.00  0.00     0.032 C 
HETATM   26  C19 UNL     1      25.191  -0.231  52.976  1.00  0.00     0.018 C 
HETATM   27  C24 UNL     1      23.926  -0.798  53.558  1.00  0.00     0.032 C 
BRANCH  26  28
HETATM   28  C20 UNL     1      26.475  -0.554  53.674  1.00  0.00     0.277 C 
BRANCH  28  29
HETATM   29  N5  UNL     1      27.651  -0.479  52.869  1.00  0.00     0.088 N 
HETATM   30  C21 UNL     1      28.416   0.715  53.263  1.00  0.00     0.274 C 
HETATM   31  C22 UNL     1      29.166  -0.163  54.241  1.00  0.00     0.060 C 
HETATM   32  C23 UNL     1      28.795  -1.247  53.249  1.00  0.00     0.274 C 
ENDBRANCH  28  29
ENDBRANCH  26  28
ENDBRANCH   9  24
TORSDOF 6
ENDMDL
MODEL 9
REMARK VINA RESULT:      -8.1      4.527      8.740
REMARK  6 active torsions:
REMARK  status: ('A' for Active; 'I' for Inactive)
REMARK    1  A    between atoms: N1_1  and  C1_2 
REMARK    2  A    between atoms: C5_8  and  C6_9 
REMARK    3  A    between atoms: C6_9  and  C7_10 
REMARK    4  A    between atoms: N4_21  and  C17_22 
REMARK    5  A    between atoms: C19_24  and  C20_25 
REMARK    6  A    between atoms: C20_25  and  N5_26 
ROOT
HETATM    1  C1  UNL     1      25.700   7.677  47.496  1.00  0.00     0.137 A 
HETATM    2  N2  UNL     1      25.743   8.896  46.906  1.00  0.00    -0.224 NA
HETATM    3  C2  UNL     1      26.909   9.525  46.700  1.00  0.00     0.237 A 
HETATM    4  N3  UNL     1      28.037   8.915  47.094  1.00  0.00    -0.223 NA
HETATM    5  C3  UNL     1      28.007   7.728  47.670  1.00  0.00     0.146 A 
HETATM    6  C4  UNL     1      26.850   7.041  47.906  1.00  0.00     0.063 A 
HETATM    7  C5  UNL     1      27.062   5.827  48.510  1.00  0.00    -0.021 A 
HETATM    8  C16 UNL     1      28.442   5.771  48.650  1.00  0.00     0.101 A 
HETATM    9  N4  UNL     1      28.978   6.911  48.143  1.00  0.00    -0.336 N 
ENDROOT
BRANCH   7  10
HETATM   10  C6  UNL     1      26.059   4.816  48.946  1.00  0.00     0.071 C 
BRANCH  10  11
HETATM   11  C7  UNL     1      26.639   3.931  49.975  1.00  0.00     0.014 C 
HETATM   12  C8  UNL     1      26.498   2.903  50.762  1.00  0.00     0.061 C 
HETATM   13  C9  UNL     1      27.019   2.003  51.774  1.00  0.00     0.015 C 
HETATM   14  O1  UNL     1      25.174   2.687  50.333  1.00  0.00    -0.351 OA
HETATM   15  C10 UNL     1      26.213   1.023  52.125  1.00  0.00     0.022 C 
HETATM   16  C11 UNL     1      25.640  -0.161  52.784  1.00  0.00     0.036 C 
HETATM   17  C12 UNL     1      24.197   0.272  53.157  1.00  0.00    -0.030 C 
HETATM   18  C13 UNL     1      23.730   1.203  52.261  1.00  0.00    -0.029 C 
HETATM   19  C14 UNL     1      23.091   2.232  51.360  1.00  0.00     0.053 C 
HETATM   20  C15 UNL     1      24.114   3.353  51.134  1.00  0.00     0.179 C 
ENDBRANCH  10  11
ENDBRANCH   7  10
BRANCH   1  21
HETATM   21  N1  UNL     1      24.405   7.123  47.639  1.00  0.00    -0.383 N 
HETATM   22  H1  UNL     1      23.772   6.442  48.089  1.00  0.00     0.157 HD
HETATM   23  H2  UNL     1      23.619   7.500  47.068  1.00  0.00     0.157 HD
ENDBRANCH   1  21
BRANCH   9  24
HETATM   24  C17 UNL     1      30.396   7.099  48.169  1.00  0.00     0.092 C 
HETATM   25  C18 UNL     1      31.180   6.522  47.047  1.00  0.00     0.032 C 
HETATM   26  C19 UNL     1      31.515   5.319  47.933  1.00  0.00     0.018 C 
HETATM   27  C24 UNL     1      31.150   6.183  49.107  1.00  0.00     0.032 C 
BRANCH  26  28
HETATM   28  C20 UNL     1      32.958   4.962  47.763  1.00  0.00     0.277 C 
BRANCH  28  29
HETATM   29  N5  UNL     1      33.254   3.565  47.761  1.00  0.00     0.088 N 
HETATM   30  C21 UNL     1      33.274   3.089  46.369  1.00  0.00     0.274 C 
HETATM   31  C22 UNL     1      34.758   3.382  46.355  1.00  0.00     0.060 C 
HETATM   32  C23 UNL     1      34.618   3.150  47.846  1.00  0.00     0.274 C 
ENDBRANCH  28  29
ENDBRANCH  26  28
ENDBRANCH   9  24
TORSDOF 6
ENDMDL
