MODEL 1
REMARK VINA RESULT:      -7.8      0.000      0.000
REMARK  5 active torsions:
REMARK  status: ('A' for Active; 'I' for Inactive)
REMARK    1  A    between atoms: C3_3  and  N1_4 
REMARK       I    between atoms: N1_4  and  C4_5 
REMARK       I    between atoms: C4_5  and  N2_7 
REMARK    2  A    between atoms: N2_7  and  C5_8 
REMARK    3  A    between atoms: C9_13  and  C10_14 
REMARK    4  A    between atoms: C10_14  and  C11_15 
REMARK    5  A    between atoms: C18_25  and  N4_26 
ROOT
HETATM    1  N1  UNL     1      29.989   8.438  49.376  1.00  0.00    -0.308 N 
HETATM    2  C4  UNL     1      28.831   7.871  48.827  1.00  0.00     0.325 C 
HETATM    3  O1  UNL     1      28.902   7.472  47.639  1.00  0.00    -0.247 OA
HETATM    4  N2  UNL     1      27.611   7.726  49.528  1.00  0.00    -0.309 N 
HETATM    5  H3  UNL     1      29.978   8.787  50.380  1.00  0.00     0.170 HD
HETATM    6  H4  UNL     1      27.681   8.094  50.499  1.00  0.00     0.170 HD
ENDROOT
BRANCH   1   7
HETATM    7  C3  UNL     1      31.221   8.597  48.694  1.00  0.00     0.045 C 
HETATM    8  C2  UNL     1      32.229   7.548  48.681  1.00  0.00    -0.001 C 
HETATM    9  C1  UNL     1      31.951   6.545  49.495  1.00  0.00     0.024 C 
HETATM   10  C16 UNL     1      33.513   7.413  47.907  1.00  0.00     0.132 A 
HETATM   11  O2  UNL     1      34.147   8.677  47.796  1.00  0.00    -0.342 OA
HETATM   12  C17 UNL     1      34.346   6.433  48.597  1.00  0.00     0.129 A 
HETATM   13  C20 UNL     1      33.244   6.795  46.562  1.00  0.00     0.108 A 
HETATM   14  C15 UNL     1      33.669   9.800  47.170  1.00  0.00     0.137 C 
HETATM   15  C14 UNL     1      32.417  10.269  47.317  1.00  0.00     0.026 C 
HETATM   16  C13 UNL     1      31.288   9.787  48.105  1.00  0.00     0.032 C 
HETATM   17  N3  UNL     1      34.524   5.370  47.929  1.00  0.00    -0.267 NA
HETATM   18  C18 UNL     1      33.857   5.426  46.678  1.00  0.00     0.344 A 
BRANCH  18  19
HETATM   19  N4  UNL     1      34.756   5.148  45.573  1.00  0.00     0.104 N 
HETATM   20  C19 UNL     1      35.105   3.742  45.635  1.00  0.00     0.309 C 
HETATM   21  H17 UNL     1      35.629   5.712  45.677  1.00  0.00     0.318 HD
ENDBRANCH  18  19
ENDBRANCH   1   7
BRANCH   4  22
HETATM   22  C5  UNL     1      26.387   7.173  49.079  1.00  0.00     0.036 A 
HETATM   23  C6  UNL     1      25.410   7.782  48.329  1.00  0.00     0.031 A 
HETATM   24  C7  UNL     1      24.247   7.190  47.924  1.00  0.00     0.026 A 
HETATM   25  C8  UNL     1      23.998   5.880  48.277  1.00  0.00     0.040 A 
HETATM   26 CL1  UNL     1      22.518   5.112  47.766  1.00  0.00    -0.084 Cl
HETATM   27  C9  UNL     1      24.958   5.238  49.030  1.00  0.00    -0.032 A 
HETATM   28  C12 UNL     1      26.110   5.868  49.414  1.00  0.00     0.038 A 
BRANCH  27  29
HETATM   29  C10 UNL     1      24.744   3.825  49.436  1.00  0.00     0.071 C 
BRANCH  29  30
HETATM   30  C11 UNL     1      26.026   3.361  50.132  1.00  0.00     0.226 C 
HETATM   31  F1  UNL     1      26.802   2.659  49.231  1.00  0.00    -0.255 F 
ENDBRANCH  29  30
ENDBRANCH  27  29
ENDBRANCH   4  22
TORSDOF 5
ENDMDL
MODEL 2
REMARK VINA RESULT:      -7.6      4.456      6.978
REMARK  5 active torsions:
REMARK  status: ('A' for Active; 'I' for Inactive)
REMARK    1  A    between atoms: C3_3  and  N1_4 
REMARK       I    between atoms: N1_4  and  C4_5 
REMARK       I    between atoms: C4_5  and  N2_7 
REMARK    2  A    between atoms: N2_7  and  C5_8 
REMARK    3  A    between atoms: C9_13  and  C10_14 
REMARK    4  A    between atoms: C10_14  and  C11_15 
REMARK    5  A    between atoms: C18_25  and  N4_26 
ROOT
HETATM    1  N1  UNL     1      24.830   4.505  49.329  1.00  0.00    -0.308 N 
HETATM    2  C4  UNL     1      24.518   3.748  50.467  1.00  0.00     0.325 C 
HETATM    3  O1  UNL     1      24.703   4.293  51.582  1.00  0.00    -0.247 OA
HETATM    4  N2  UNL     1      24.013   2.426  50.424  1.00  0.00    -0.309 N 
HETATM    5  H3  UNL     1      24.686   4.085  48.363  1.00  0.00     0.170 HD
HETATM    6  H4  UNL     1      23.905   2.089  49.447  1.00  0.00     0.170 HD
ENDROOT
BRANCH   1   7
HETATM    7  C3  UNL     1      25.340   5.827  49.345  1.00  0.00     0.045 C 
HETATM    8  C2  UNL     1      26.678   6.137  48.864  1.00  0.00    -0.001 C 
HETATM    9  C1  UNL     1      27.397   5.063  48.592  1.00  0.00     0.024 C 
HETATM   10  C16 UNL     1      27.367   7.453  48.624  1.00  0.00     0.132 A 
HETATM   11  O2  UNL     1      27.002   8.382  49.632  1.00  0.00    -0.342 OA
HETATM   12  C17 UNL     1      28.804   7.202  48.595  1.00  0.00     0.129 A 
HETATM   13  C20 UNL     1      27.048   7.962  47.245  1.00  0.00     0.108 A 
HETATM   14  C15 UNL     1      25.750   8.874  49.902  1.00  0.00     0.137 C 
HETATM   15  C14 UNL     1      24.644   8.113  49.987  1.00  0.00     0.026 C 
HETATM   16  C13 UNL     1      24.443   6.676  49.836  1.00  0.00     0.032 C 
HETATM   17  N3  UNL     1      29.323   7.399  47.455  1.00  0.00    -0.267 NA
HETATM   18  C18 UNL     1      28.352   7.814  46.508  1.00  0.00     0.344 A 
BRANCH  18  19
HETATM   19  N4  UNL     1      28.735   9.049  45.848  1.00  0.00     0.104 N 
HETATM   20  C19 UNL     1      27.775  10.066  46.231  1.00  0.00     0.309 C 
HETATM   21  H17 UNL     1      28.692   8.924  44.812  1.00  0.00     0.318 HD
ENDBRANCH  18  19
ENDBRANCH   1   7
BRANCH   4  22
HETATM   22  C5  UNL     1      23.665   1.573  51.499  1.00  0.00     0.036 A 
HETATM   23  C6  UNL     1      22.410   1.300  51.989  1.00  0.00     0.031 A 
HETATM   24  C7  UNL     1      22.140   0.460  53.032  1.00  0.00     0.026 A 
HETATM   25  C8  UNL     1      23.181  -0.182  53.669  1.00  0.00     0.040 A 
HETATM   26 CL1  UNL     1      22.849  -1.256  55.002  1.00  0.00    -0.084 Cl
HETATM   27  C9  UNL     1      24.454   0.068  53.202  1.00  0.00    -0.032 A 
HETATM   28  C12 UNL     1      24.681   0.916  52.154  1.00  0.00     0.038 A 
BRANCH  27  29
HETATM   29  C10 UNL     1      25.613  -0.600  53.849  1.00  0.00     0.071 C 
BRANCH  29  30
HETATM   30  C11 UNL     1      26.669  -0.815  52.761  1.00  0.00     0.226 C 
HETATM   31  F1  UNL     1      26.480  -2.055  52.186  1.00  0.00    -0.255 F 
ENDBRANCH  29  30
ENDBRANCH  27  29
ENDBRANCH   4  22
TORSDOF 5
ENDMDL
MODEL 3
REMARK VINA RESULT:      -7.6      9.247     11.706
REMARK  5 active torsions:
REMARK  status: ('A' for Active; 'I' for Inactive)
REMARK    1  A    between atoms: C3_3  and  N1_4 
REMARK       I    between atoms: N1_4  and  C4_5 
REMARK       I    between atoms: C4_5  and  N2_7 
REMARK    2  A    between atoms: N2_7  and  C5_8 
REMARK    3  A    between atoms: C9_13  and  C10_14 
REMARK    4  A    between atoms: C10_14  and  C11_15 
REMARK    5  A    between atoms: C18_25  and  N4_26 
ROOT
HETATM    1  N1  UNL     1      21.542   0.385  51.254  1.00  0.00    -0.308 N 
HETATM    2  C4  UNL     1      20.268   0.661  51.770  1.00  0.00     0.325 C 
HETATM    3  O1  UNL     1      20.206   1.467  52.730  1.00  0.00    -0.247 OA
HETATM    4  N2  UNL     1      19.072   0.091  51.273  1.00  0.00    -0.309 N 
HETATM    5  H3  UNL     1      21.643  -0.289  50.438  1.00  0.00     0.170 HD
HETATM    6  H4  UNL     1      19.257  -0.557  50.482  1.00  0.00     0.170 HD
ENDROOT
BRANCH   1   7
HETATM    7  C3  UNL     1      22.754   0.940  51.735  1.00  0.00     0.045 C 
HETATM    8  C2  UNL     1      23.567   0.254  52.729  1.00  0.00    -0.001 C 
HETATM    9  C1  UNL     1      22.979  -0.811  53.242  1.00  0.00     0.024 C 
HETATM   10  C16 UNL     1      24.945   0.549  53.259  1.00  0.00     0.132 A 
HETATM   11  O2  UNL     1      25.126   1.949  53.387  1.00  0.00    -0.342 OA
HETATM   12  C17 UNL     1      25.087  -0.147  54.534  1.00  0.00     0.129 A 
HETATM   13  C20 UNL     1      25.986  -0.078  52.372  1.00  0.00     0.108 A 
HETATM   14  C15 UNL     1      25.106   2.889  52.388  1.00  0.00     0.137 C 
HETATM   15  C14 UNL     1      24.171   2.944  51.423  1.00  0.00     0.026 C 
HETATM   16  C13 UNL     1      23.003   2.110  51.157  1.00  0.00     0.032 C 
HETATM   17  N3  UNL     1      25.945  -1.081  54.500  1.00  0.00    -0.267 NA
HETATM   18  C18 UNL     1      26.539  -1.194  53.216  1.00  0.00     0.344 A 
BRANCH  18  19
HETATM   19  N4  UNL     1      27.988  -1.143  53.285  1.00  0.00     0.104 N 
HETATM   20  C19 UNL     1      28.344  -0.168  54.297  1.00  0.00     0.309 C 
HETATM   21  H17 UNL     1      28.375  -0.829  52.368  1.00  0.00     0.318 HD
ENDBRANCH  18  19
ENDBRANCH   1   7
BRANCH   4  22
HETATM   22  C5  UNL     1      17.741   0.295  51.712  1.00  0.00     0.036 A 
HETATM   23  C6  UNL     1      16.946  -0.568  52.428  1.00  0.00     0.031 A 
HETATM   24  C7  UNL     1      15.665  -0.309  52.825  1.00  0.00     0.026 A 
HETATM   25  C8  UNL     1      15.089   0.901  52.499  1.00  0.00     0.040 A 
HETATM   26 CL1  UNL     1      13.453   1.244  52.998  1.00  0.00    -0.084 Cl
HETATM   27  C9  UNL     1      15.858   1.791  51.780  1.00  0.00    -0.032 A 
HETATM   28  C12 UNL     1      17.138   1.493  51.403  1.00  0.00     0.038 A 
BRANCH  27  29
HETATM   29  C10 UNL     1      15.289   3.111  51.404  1.00  0.00     0.071 C 
BRANCH  29  30
HETATM   30  C11 UNL     1      15.899   4.147  52.353  1.00  0.00     0.226 C 
HETATM   31  F1  UNL     1      15.215   4.122  53.551  1.00  0.00    -0.255 F 
ENDBRANCH  29  30
ENDBRANCH  27  29
ENDBRANCH   4  22
TORSDOF 5
ENDMDL
MODEL 4
REMARK VINA RESULT:      -7.5      7.682     10.279
REMARK  5 active torsions:
REMARK  status: ('A' for Active; 'I' for Inactive)
REMARK    1  A    between atoms: C3_3  and  N1_4 
REMARK       I    between atoms: N1_4  and  C4_5 
REMARK       I    between atoms: C4_5  and  N2_7 
REMARK    2  A    between atoms: N2_7  and  C5_8 
REMARK    3  A    between atoms: C9_13  and  C10_14 
REMARK    4  A    between atoms: C10_14  and  C11_15 
REMARK    5  A    between atoms: C18_25  and  N4_26 
ROOT
HETATM    1  N1  UNL     1      22.703   2.737  51.970  1.00  0.00    -0.308 N 
HETATM    2  C4  UNL     1      21.848   1.629  52.046  1.00  0.00     0.325 C 
HETATM    3  O1  UNL     1      22.334   0.513  51.742  1.00  0.00    -0.247 OA
HETATM    4  N2  UNL     1      20.491   1.702  52.442  1.00  0.00    -0.309 N 
HETATM    5  H3  UNL     1      22.336   3.702  52.221  1.00  0.00     0.170 HD
HETATM    6  H4  UNL     1      20.209   2.677  52.666  1.00  0.00     0.170 HD
ENDROOT
BRANCH   1   7
HETATM    7  C3  UNL     1      24.063   2.691  51.574  1.00  0.00     0.045 C 
HETATM    8  C2  UNL     1      25.124   2.372  52.517  1.00  0.00    -0.001 C 
HETATM    9  C1  UNL     1      24.709   2.313  53.770  1.00  0.00     0.024 C 
HETATM   10  C16 UNL     1      26.589   2.100  52.309  1.00  0.00     0.132 A 
HETATM   11  O2  UNL     1      27.101   2.949  51.294  1.00  0.00    -0.342 OA
HETATM   12  C17 UNL     1      27.263   2.298  53.589  1.00  0.00     0.129 A 
HETATM   13  C20 UNL     1      26.807   0.646  51.993  1.00  0.00     0.108 A 
HETATM   14  C15 UNL     1      26.730   2.990  49.974  1.00  0.00     0.137 C 
HETATM   15  C14 UNL     1      25.453   2.996  49.550  1.00  0.00     0.026 C 
HETATM   16  C13 UNL     1      24.190   2.964  50.279  1.00  0.00     0.032 C 
HETATM   17  N3  UNL     1      27.740   1.228  54.073  1.00  0.00    -0.267 NA
HETATM   18  C18 UNL     1      27.485   0.117  53.227  1.00  0.00     0.344 A 
BRANCH  18  19
HETATM   19  N4  UNL     1      28.702  -0.604  52.901  1.00  0.00     0.104 N 
HETATM   20  C19 UNL     1      29.706  -0.233  53.878  1.00  0.00     0.309 C 
HETATM   21  H17 UNL     1      29.037  -0.319  51.954  1.00  0.00     0.318 HD
ENDBRANCH  18  19
ENDBRANCH   1   7
BRANCH   4  22
HETATM   22  C5  UNL     1      19.540   0.659  52.555  1.00  0.00     0.036 A 
HETATM   23  C6  UNL     1      19.557  -0.409  53.421  1.00  0.00     0.031 A 
HETATM   24  C7  UNL     1      18.602  -1.385  53.482  1.00  0.00     0.026 A 
HETATM   25  C8  UNL     1      17.524  -1.330  52.624  1.00  0.00     0.040 A 
HETATM   26 CL1  UNL     1      16.300  -2.570  52.692  1.00  0.00    -0.084 Cl
HETATM   27  C9  UNL     1      17.475  -0.271  51.742  1.00  0.00    -0.032 A 
HETATM   28  C12 UNL     1      18.452   0.686  51.713  1.00  0.00     0.038 A 
BRANCH  27  29
HETATM   29  C10 UNL     1      16.335  -0.161  50.796  1.00  0.00     0.071 C 
BRANCH  29  30
HETATM   30  C11 UNL     1      15.416   0.941  51.332  1.00  0.00     0.226 C 
HETATM   31  F1  UNL     1      15.375   0.868  52.709  1.00  0.00    -0.255 F 
ENDBRANCH  29  30
ENDBRANCH  27  29
ENDBRANCH   4  22
TORSDOF 5
ENDMDL
MODEL 5
REMARK VINA RESULT:      -7.5      6.909      8.818
REMARK  5 active torsions:
REMARK  status: ('A' for Active; 'I' for Inactive)
REMARK    1  A    between atoms: C3_3  and  N1_4 
REMARK       I    between atoms: N1_4  and  C4_5 
REMARK       I    between atoms: C4_5  and  N2_7 
REMARK    2  A    between atoms: N2_7  and  C5_8 
REMARK    3  A    between atoms: C9_13  and  C10_14 
REMARK    4  A    between atoms: C10_14  and  C11_15 
REMARK    5  A    between atoms: C18_25  and  N4_26 
ROOT
HETATM    1  N1  UNL     1      23.390   5.818  52.112  1.00  0.00    -0.308 N 
HETATM    2  C4  UNL     1      23.868   4.509  51.957  1.00  0.00     0.325 C 
HETATM    3  O1  UNL     1      23.920   4.057  50.788  1.00  0.00    -0.247 OA
HETATM    4  N2  UNL     1      24.289   3.688  53.030  1.00  0.00    -0.309 N 
HETATM    5  H3  UNL     1      23.332   6.244  53.085  1.00  0.00     0.170 HD
HETATM    6  H4  UNL     1      24.197   4.175  53.944  1.00  0.00     0.170 HD
ENDROOT
BRANCH   1   7
HETATM    7  C3  UNL     1      22.961   6.659  51.056  1.00  0.00     0.045 C 
HETATM    8  C2  UNL     1      23.903   7.438  50.267  1.00  0.00    -0.001 C 
HETATM    9  C1  UNL     1      25.134   7.412  50.747  1.00  0.00     0.024 C 
HETATM   10  C16 UNL     1      23.715   8.252  49.015  1.00  0.00     0.132 A 
HETATM   11  O2  UNL     1      22.467   8.925  49.056  1.00  0.00    -0.342 OA
HETATM   12  C17 UNL     1      24.840   9.177  48.915  1.00  0.00     0.129 A 
HETATM   13  C20 UNL     1      23.845   7.373  47.801  1.00  0.00     0.108 A 
HETATM   14  C15 UNL     1      21.217   8.363  49.102  1.00  0.00     0.137 C 
HETATM   15  C14 UNL     1      20.874   7.353  49.922  1.00  0.00     0.026 C 
HETATM   16  C13 UNL     1      21.639   6.611  50.918  1.00  0.00     0.032 C 
HETATM   17  N3  UNL     1      25.602   8.932  47.931  1.00  0.00    -0.267 NA
HETATM   18  C18 UNL     1      25.146   7.812  47.188  1.00  0.00     0.344 A 
BRANCH  18  19
HETATM   19  N4  UNL     1      24.994   8.126  45.779  1.00  0.00     0.104 N 
HETATM   20  C19 UNL     1      23.606   7.900  45.428  1.00  0.00     0.309 C 
HETATM   21  H17 UNL     1      25.591   7.485  45.208  1.00  0.00     0.318 HD
ENDBRANCH  18  19
ENDBRANCH   1   7
BRANCH   4  22
HETATM   22  C5  UNL     1      24.785   2.362  52.993  1.00  0.00     0.036 A 
HETATM   23  C6  UNL     1      24.068   1.194  52.894  1.00  0.00     0.031 A 
HETATM   24  C7  UNL     1      24.610  -0.060  52.860  1.00  0.00     0.026 A 
HETATM   25  C8  UNL     1      25.980  -0.205  52.930  1.00  0.00     0.040 A 
HETATM   26 CL1  UNL     1      26.684  -1.800  52.889  1.00  0.00    -0.084 Cl
HETATM   27  C9  UNL     1      26.731   0.947  53.030  1.00  0.00    -0.032 A 
HETATM   28  C12 UNL     1      26.148   2.184  53.060  1.00  0.00     0.038 A 
BRANCH  27  29
HETATM   29  C10 UNL     1      28.211   0.850  53.106  1.00  0.00     0.071 C 
BRANCH  29  30
HETATM   30  C11 UNL     1      28.569   0.620  54.578  1.00  0.00     0.226 C 
HETATM   31  F1  UNL     1      29.337  -0.522  54.685  1.00  0.00    -0.255 F 
ENDBRANCH  29  30
ENDBRANCH  27  29
ENDBRANCH   4  22
TORSDOF 5
ENDMDL
MODEL 6
REMARK VINA RESULT:      -7.4      1.953      2.526
REMARK  5 active torsions:
REMARK  status: ('A' for Active; 'I' for Inactive)
REMARK    1  A    between atoms: C3_3  and  N1_4 
REMARK       I    between atoms: N1_4  and  C4_5 
REMARK       I    between atoms: C4_5  and  N2_7 
REMARK    2  A    between atoms: N2_7  and  C5_8 
REMARK    3  A    between atoms: C9_13  and  C10_14 
REMARK    4  A    between atoms: C10_14  and  C11_15 
REMARK    5  A    between atoms: C18_25  and  N4_26 
ROOT
HETATM    1  N1  UNL     1      29.665   7.217  48.449  1.00  0.00    -0.308 N 
HETATM    2  C4  UNL     1      28.689   6.211  48.446  1.00  0.00     0.325 C 
HETATM    3  O1  UNL     1      28.906   5.209  47.723  1.00  0.00    -0.247 OA
HETATM    4  N2  UNL     1      27.495   6.265  49.204  1.00  0.00    -0.309 N 
HETATM    5  H3  UNL     1      29.526   8.083  49.049  1.00  0.00     0.170 HD
HETATM    6  H4  UNL     1      27.433   7.142  49.759  1.00  0.00     0.170 HD
ENDROOT
BRANCH   1   7
HETATM    7  C3  UNL     1      30.866   7.188  47.697  1.00  0.00     0.045 C 
HETATM    8  C2  UNL     1      32.078   6.570  48.215  1.00  0.00    -0.001 C 
HETATM    9  C1  UNL     1      31.983   6.217  49.485  1.00  0.00     0.024 C 
HETATM   10  C16 UNL     1      33.398   6.268  47.558  1.00  0.00     0.132 A 
HETATM   11  O2  UNL     1      33.747   7.315  46.668  1.00  0.00    -0.342 OA
HETATM   12  C17 UNL     1      34.388   6.087  48.615  1.00  0.00     0.129 A 
HETATM   13  C20 UNL     1      33.340   4.934  46.867  1.00  0.00     0.108 A 
HETATM   14  C15 UNL     1      33.069   7.719  45.546  1.00  0.00     0.137 C 
HETATM   15  C14 UNL     1      31.739   7.915  45.499  1.00  0.00     0.026 C 
HETATM   16  C13 UNL     1      30.703   7.777  46.517  1.00  0.00     0.032 C 
HETATM   17  N3  UNL     1      34.828   4.899  48.690  1.00  0.00    -0.267 NA
HETATM   18  C18 UNL     1      34.229   4.063  47.712  1.00  0.00     0.344 A 
BRANCH  18  19
HETATM   19  N4  UNL     1      35.223   3.374  46.909  1.00  0.00     0.104 N 
HETATM   20  C19 UNL     1      35.059   3.817  45.538  1.00  0.00     0.309 C 
HETATM   21  H17 UNL     1      35.057   2.344  46.949  1.00  0.00     0.318 HD
ENDBRANCH  18  19
ENDBRANCH   1   7
BRANCH   4  22
HETATM   22  C5  UNL     1      26.446   5.317  49.280  1.00  0.00     0.036 A 
HETATM   23  C6  UNL     1      26.534   3.985  49.606  1.00  0.00     0.031 A 
HETATM   24  C7  UNL     1      25.478   3.120  49.665  1.00  0.00     0.026 A 
HETATM   25  C8  UNL     1      24.210   3.582  49.380  1.00  0.00     0.040 A 
HETATM   26 CL1  UNL     1      22.854   2.487  49.450  1.00  0.00    -0.084 Cl
HETATM   27  C9  UNL     1      24.085   4.914  49.049  1.00  0.00    -0.032 A 
HETATM   28  C12 UNL     1      25.168   5.747  49.002  1.00  0.00     0.038 A 
BRANCH  27  29
HETATM   29  C10 UNL     1      22.742   5.466  48.735  1.00  0.00     0.071 C 
BRANCH  29  30
HETATM   30  C11 UNL     1      22.665   5.616  47.213  1.00  0.00     0.226 C 
HETATM   31  F1  UNL     1      22.507   4.370  46.642  1.00  0.00    -0.255 F 
ENDBRANCH  29  30
ENDBRANCH  27  29
ENDBRANCH   4  22
TORSDOF 5
ENDMDL
MODEL 7
REMARK VINA RESULT:      -7.3      8.562     11.567
REMARK  5 active torsions:
REMARK  status: ('A' for Active; 'I' for Inactive)
REMARK    1  A    between atoms: C3_3  and  N1_4 
REMARK       I    between atoms: N1_4  and  C4_5 
REMARK       I    between atoms: C4_5  and  N2_7 
REMARK    2  A    between atoms: N2_7  and  C5_8 
REMARK    3  A    between atoms: C9_13  and  C10_14 
REMARK    4  A    between atoms: C10_14  and  C11_15 
REMARK    5  A    between atoms: C18_25  and  N4_26 
ROOT
HETATM    1  N1  UNL     1      21.977   1.368  52.793  1.00  0.00    -0.308 N 
HETATM    2  C4  UNL     1      23.282   0.907  52.570  1.00  0.00     0.325 C 
HETATM    3  O1  UNL     1      23.715   0.974  51.394  1.00  0.00    -0.247 OA
HETATM    4  N2  UNL     1      24.120   0.383  53.583  1.00  0.00    -0.309 N 
HETATM    5  H3  UNL     1      21.568   1.334  53.774  1.00  0.00     0.170 HD
HETATM    6  H4  UNL     1      23.648   0.382  54.509  1.00  0.00     0.170 HD
ENDROOT
BRANCH   1   7
HETATM    7  C3  UNL     1      21.117   1.893  51.797  1.00  0.00     0.045 C 
HETATM    8  C2  UNL     1      21.178   3.290  51.393  1.00  0.00    -0.001 C 
HETATM    9  C1  UNL     1      21.969   4.021  52.158  1.00  0.00     0.024 C 
HETATM   10  C16 UNL     1      20.505   4.028  50.267  1.00  0.00     0.132 A 
HETATM   11  O2  UNL     1      19.184   3.545  50.091  1.00  0.00    -0.342 OA
HETATM   12  C17 UNL     1      20.536   5.451  50.589  1.00  0.00     0.129 A 
HETATM   13  C20 UNL     1      21.323   3.911  49.009  1.00  0.00     0.108 A 
HETATM   14  C15 UNL     1      18.798   2.276  49.738  1.00  0.00     0.137 C 
HETATM   15  C14 UNL     1      19.299   1.155  50.289  1.00  0.00     0.026 C 
HETATM   16  C13 UNL     1      20.305   0.952  51.326  1.00  0.00     0.032 C 
HETATM   17  N3  UNL     1      21.269   6.126  49.804  1.00  0.00    -0.267 NA
HETATM   18  C18 UNL     1      21.865   5.301  48.814  1.00  0.00     0.344 A 
BRANCH  18  19
HETATM   19  N4  UNL     1      21.605   5.792  47.474  1.00  0.00     0.104 N 
HETATM   20  C19 UNL     1      22.130   4.815  46.540  1.00  0.00     0.309 C 
HETATM   21  H17 UNL     1      22.106   6.697  47.326  1.00  0.00     0.318 HD
ENDBRANCH  18  19
ENDBRANCH   1   7
BRANCH   4  22
HETATM   22  C5  UNL     1      25.444  -0.107  53.475  1.00  0.00     0.036 A 
HETATM   23  C6  UNL     1      25.896  -1.159  52.716  1.00  0.00     0.031 A 
HETATM   24  C7  UNL     1      27.194  -1.582  52.653  1.00  0.00     0.026 A 
HETATM   25  C8  UNL     1      28.154  -0.928  53.396  1.00  0.00     0.040 A 
HETATM   26 CL1  UNL     1      29.814  -1.459  53.326  1.00  0.00    -0.084 Cl
HETATM   27  C9  UNL     1      27.736   0.134  54.169  1.00  0.00    -0.032 A 
HETATM   28  C12 UNL     1      26.426   0.526  54.203  1.00  0.00     0.038 A 
BRANCH  27  29
HETATM   29  C10 UNL     1      28.728   0.877  54.988  1.00  0.00     0.071 C 
BRANCH  29  30
HETATM   30  C11 UNL     1      29.346   1.945  54.081  1.00  0.00     0.226 C 
HETATM   31  F1  UNL     1      28.413   2.935  53.847  1.00  0.00    -0.255 F 
ENDBRANCH  29  30
ENDBRANCH  27  29
ENDBRANCH   4  22
TORSDOF 5
ENDMDL
MODEL 8
REMARK VINA RESULT:      -7.2      5.211     10.573
REMARK  5 active torsions:
REMARK  status: ('A' for Active; 'I' for Inactive)
REMARK    1  A    between atoms: C3_3  and  N1_4 
REMARK       I    between atoms: N1_4  and  C4_5 
REMARK       I    between atoms: C4_5  and  N2_7 
REMARK    2  A    between atoms: N2_7  and  C5_8 
REMARK    3  A    between atoms: C9_13  and  C10_14 
REMARK    4  A    between atoms: C10_14  and  C11_15 
REMARK    5  A    between atoms: C18_25  and  N4_26 
ROOT
HETATM    1  N1  UNL     1      24.480   4.589  51.711  1.00  0.00    -0.308 N 
HETATM    2  C4  UNL     1      24.962   5.036  50.473  1.00  0.00     0.325 C 
HETATM    3  O1  UNL     1      24.740   4.304  49.478  1.00  0.00    -0.247 OA
HETATM    4  N2  UNL     1      25.673   6.246  50.290  1.00  0.00    -0.309 N 
HETATM    5  H3  UNL     1      24.642   5.178  52.581  1.00  0.00     0.170 HD
HETATM    6  H4  UNL     1      25.792   6.759  51.186  1.00  0.00     0.170 HD
ENDROOT
BRANCH   1   7
HETATM    7  C3  UNL     1      23.770   3.381  51.921  1.00  0.00     0.045 C 
HETATM    8  C2  UNL     1      22.317   3.329  51.868  1.00  0.00    -0.001 C 
HETATM    9  C1  UNL     1      21.753   4.521  51.785  1.00  0.00     0.024 C 
HETATM   10  C16 UNL     1      21.363   2.164  51.887  1.00  0.00     0.132 A 
HETATM   11  O2  UNL     1      21.838   1.163  52.773  1.00  0.00    -0.342 OA
HETATM   12  C17 UNL     1      20.052   2.672  52.276  1.00  0.00     0.129 A 
HETATM   13  C20 UNL     1      21.162   1.636  50.493  1.00  0.00     0.108 A 
HETATM   14  C15 UNL     1      23.005   0.448  52.677  1.00  0.00     0.137 C 
HETATM   15  C14 UNL     1      24.204   0.994  52.406  1.00  0.00     0.026 C 
HETATM   16  C13 UNL     1      24.605   2.374  52.154  1.00  0.00     0.032 C 
HETATM   17  N3  UNL     1      19.191   2.597  51.347  1.00  0.00    -0.267 NA
HETATM   18  C18 UNL     1      19.747   2.033  50.170  1.00  0.00     0.344 A 
BRANCH  18  19
HETATM   19  N4  UNL     1      18.971   0.902  49.695  1.00  0.00     0.104 N 
HETATM   20  C19 UNL     1      17.580   1.164  50.007  1.00  0.00     0.309 C 
HETATM   21  H17 UNL     1      19.267   0.035  50.195  1.00  0.00     0.318 HD
ENDBRANCH  18  19
ENDBRANCH   1   7
BRANCH   4  22
HETATM   22  C5  UNL     1      26.203   6.794  49.096  1.00  0.00     0.036 A 
HETATM   23  C6  UNL     1      25.557   7.570  48.163  1.00  0.00     0.031 A 
HETATM   24  C7  UNL     1      26.129   8.072  47.029  1.00  0.00     0.026 A 
HETATM   25  C8  UNL     1      27.455   7.801  46.764  1.00  0.00     0.040 A 
HETATM   26 CL1  UNL     1      28.197   8.435  45.319  1.00  0.00    -0.084 Cl
HETATM   27  C9  UNL     1      28.134   7.025  47.680  1.00  0.00    -0.032 A 
HETATM   28  C12 UNL     1      27.524   6.542  48.804  1.00  0.00     0.038 A 
BRANCH  27  29
HETATM   29  C10 UNL     1      29.566   6.704  47.447  1.00  0.00     0.071 C 
BRANCH  29  30
HETATM   30  C11 UNL     1      30.379   7.536  48.442  1.00  0.00     0.226 C 
HETATM   31  F1  UNL     1      30.512   8.821  47.956  1.00  0.00    -0.255 F 
ENDBRANCH  29  30
ENDBRANCH  27  29
ENDBRANCH   4  22
TORSDOF 5
ENDMDL
MODEL 9
REMARK VINA RESULT:      -7.1      6.583      9.378
REMARK  5 active torsions:
REMARK  status: ('A' for Active; 'I' for Inactive)
REMARK    1  A    between atoms: C3_3  and  N1_4 
REMARK       I    between atoms: N1_4  and  C4_5 
REMARK       I    between atoms: C4_5  and  N2_7 
REMARK    2  A    between atoms: N2_7  and  C5_8 
REMARK    3  A    between atoms: C9_13  and  C10_14 
REMARK    4  A    between atoms: C10_14  and  C11_15 
REMARK    5  A    between atoms: C18_25  and  N4_26 
ROOT
HETATM    1  N1  UNL     1      24.630   4.417  49.398  1.00  0.00    -0.308 N 
HETATM    2  C4  UNL     1      24.127   3.693  50.488  1.00  0.00     0.325 C 
HETATM    3  O1  UNL     1      23.672   4.357  51.451  1.00  0.00    -0.247 OA
HETATM    4  N2  UNL     1      24.105   2.280  50.557  1.00  0.00    -0.309 N 
HETATM    5  H3  UNL     1      25.022   3.897  48.558  1.00  0.00     0.170 HD
HETATM    6  H4  UNL     1      24.509   1.849  49.702  1.00  0.00     0.170 HD
ENDROOT
BRANCH   1   7
HETATM    7  C3  UNL     1      24.666   5.831  49.306  1.00  0.00     0.045 C 
HETATM    8  C2  UNL     1      23.668   6.574  48.552  1.00  0.00    -0.001 C 
HETATM    9  C1  UNL     1      22.865   5.801  47.843  1.00  0.00     0.024 C 
HETATM   10  C16 UNL     1      23.399   8.052  48.447  1.00  0.00     0.132 A 
HETATM   11  O2  UNL     1      24.623   8.768  48.443  1.00  0.00    -0.342 OA
HETATM   12  C17 UNL     1      22.621   8.276  47.233  1.00  0.00     0.129 A 
HETATM   13  C20 UNL     1      22.490   8.493  49.561  1.00  0.00     0.108 A 
HETATM   14  C15 UNL     1      25.565   8.820  49.439  1.00  0.00     0.137 C 
HETATM   15  C14 UNL     1      26.021   7.743  50.102  1.00  0.00     0.026 C 
HETATM   16  C13 UNL     1      25.696   6.325  49.987  1.00  0.00     0.032 C 
HETATM   17  N3  UNL     1      21.441   8.679  47.463  1.00  0.00    -0.267 NA
HETATM   18  C18 UNL     1      21.198   8.804  48.856  1.00  0.00     0.344 A 
BRANCH  18  19
HETATM   19  N4  UNL     1      20.705  10.125  49.202  1.00  0.00     0.104 N 
HETATM   20  C19 UNL     1      19.763  10.523  48.175  1.00  0.00     0.309 C 
HETATM   21  H17 UNL     1      21.497  10.806  49.210  1.00  0.00     0.318 HD
ENDBRANCH  18  19
ENDBRANCH   1   7
BRANCH   4  22
HETATM   22  C5  UNL     1      23.626   1.448  51.598  1.00  0.00     0.036 A 
HETATM   23  C6  UNL     1      22.322   1.125  51.889  1.00  0.00     0.031 A 
HETATM   24  C7  UNL     1      21.925   0.310  52.911  1.00  0.00     0.026 A 
HETATM   25  C8  UNL     1      22.876  -0.250  53.737  1.00  0.00     0.040 A 
HETATM   26 CL1  UNL     1      22.381  -1.292  55.046  1.00  0.00    -0.084 Cl
HETATM   27  C9  UNL     1      24.195   0.052  53.474  1.00  0.00    -0.032 A 
HETATM   28  C12 UNL     1      24.551   0.873  52.440  1.00  0.00     0.038 A 
BRANCH  27  29
HETATM   29  C10 UNL     1      25.262  -0.525  54.331  1.00  0.00     0.071 C 
BRANCH  29  30
HETATM   30  C11 UNL     1      26.384   0.514  54.409  1.00  0.00     0.226 C 
HETATM   31  F1  UNL     1      27.425   0.002  55.156  1.00  0.00    -0.255 F 
ENDBRANCH  29  30
ENDBRANCH  27  29
ENDBRANCH   4  22
TORSDOF 5
ENDMDL
