MODEL 1
REMARK VINA RESULT:      -8.8      0.000      0.000
REMARK  8 active torsions:
REMARK  status: ('A' for Active; 'I' for Inactive)
REMARK    1  A    between atoms: C2_2  and  O1_3 
REMARK    2  A    between atoms: O1_3  and  C3_4 
REMARK    3  A    between atoms: N1_7  and  C6_8 
REMARK    4  A    between atoms: C11_15  and  N3_16 
REMARK    5  A    between atoms: N3_16  and  C12_17 
REMARK    6  A    between atoms: C12_17  and  C14_19 
REMARK    7  A    between atoms: C15_20  and  C16_21 
REMARK    8  A    between atoms: C21_26  and  N4_27 
ROOT
HETATM    1  C6  UNL     1      28.983   0.303  54.400  1.00  0.00     0.128 C 
HETATM    2  C7  UNL     1      29.883  -0.541  53.921  1.00  0.00     0.112 C 
HETATM    3  C8  UNL     1      29.402  -1.816  53.524  1.00  0.00     0.089 C 
HETATM    4  N2  UNL     1      28.989  -2.866  53.196  1.00  0.00    -0.192 NA
ENDROOT
BRANCH   1   5
HETATM    5  N1  UNL     1      27.636  -0.074  54.497  1.00  0.00    -0.256 NA
HETATM    6  C5  UNL     1      26.670   0.446  53.817  1.00  0.00     0.109 A 
HETATM    7  C4  UNL     1      26.843   1.512  52.840  1.00  0.00     0.075 A 
HETATM    8  C9  UNL     1      25.321  -0.063  54.040  1.00  0.00     0.202 A 
HETATM    9  C3  UNL     1      25.792   1.985  52.190  1.00  0.00     0.097 A 
HETATM   10  C11 UNL     1      24.403   1.508  52.374  1.00  0.00     0.066 A 
HETATM   11  C10 UNL     1      24.247   0.541  53.261  1.00  0.00     0.089 A 
HETATM   12  O2  UNL     1      25.085  -0.994  54.876  1.00  0.00    -0.286 OA
BRANCH   9  13
HETATM   13  O1  UNL     1      25.973   3.015  51.248  1.00  0.00    -0.349 OA
BRANCH  13  14
HETATM   14  C2  UNL     1      26.377   2.760  49.917  1.00  0.00     0.171 C 
HETATM   15  C1  UNL     1      26.722   4.112  49.315  1.00  0.00     0.034 C 
ENDBRANCH  13  14
ENDBRANCH   9  13
BRANCH  10  16
HETATM   16  N3  UNL     1      23.328   2.073  51.631  1.00  0.00    -0.380 N 
HETATM   17  H10 UNL     1      23.048   3.024  52.009  1.00  0.00     0.160 HD
BRANCH  16  18
HETATM   18  C12 UNL     1      22.643   1.518  50.506  1.00  0.00     0.100 C 
HETATM   19  C13 UNL     1      22.155   2.657  49.604  1.00  0.00     0.036 C 
BRANCH  18  20
HETATM   20  C14 UNL     1      21.403   0.782  50.893  1.00  0.00    -0.001 C 
HETATM   21  C15 UNL     1      20.555   0.906  51.873  1.00  0.00     0.012 C 
BRANCH  21  22
HETATM   22  C16 UNL     1      19.369   0.104  52.132  1.00  0.00    -0.010 A 
HETATM   23  C17 UNL     1      18.354   0.095  51.203  1.00  0.00     0.013 A 
HETATM   24  C18 UNL     1      17.227  -0.640  51.405  1.00  0.00     0.001 A 
HETATM   25  C19 UNL     1      17.099  -1.395  52.571  1.00  0.00     0.002 A 
HETATM   26  C20 UNL     1      18.144  -1.348  53.463  1.00  0.00     0.030 A 
HETATM   27  C21 UNL     1      19.323  -0.611  53.307  1.00  0.00     0.037 A 
BRANCH  27  28
HETATM   28  N4  UNL     1      20.328  -0.647  54.305  1.00  0.00    -0.394 N 
HETATM   29  C22 UNL     1      21.344  -1.684  54.235  1.00  0.00     0.146 C 
HETATM   30  H21 UNL     1      20.333   0.055  55.064  1.00  0.00     0.159 HD
ENDBRANCH  27  28
ENDBRANCH  21  22
ENDBRANCH  18  20
ENDBRANCH  16  18
ENDBRANCH  10  16
ENDBRANCH   1   5
TORSDOF 8
ENDMDL
MODEL 2
REMARK VINA RESULT:      -8.0      2.257      4.354
REMARK  8 active torsions:
REMARK  status: ('A' for Active; 'I' for Inactive)
REMARK    1  A    between atoms: C2_2  and  O1_3 
REMARK    2  A    between atoms: O1_3  and  C3_4 
REMARK    3  A    between atoms: N1_7  and  C6_8 
REMARK    4  A    between atoms: C11_15  and  N3_16 
REMARK    5  A    between atoms: N3_16  and  C12_17 
REMARK    6  A    between atoms: C12_17  and  C14_19 
REMARK    7  A    between atoms: C15_20  and  C16_21 
REMARK    8  A    between atoms: C21_26  and  N4_27 
ROOT
HETATM    1  C6  UNL     1      28.774   0.404  54.254  1.00  0.00     0.128 C 
HETATM    2  C7  UNL     1      29.670  -0.366  53.657  1.00  0.00     0.112 C 
HETATM    3  C8  UNL     1      29.294  -1.716  53.437  1.00  0.00     0.089 C 
HETATM    4  N2  UNL     1      28.966  -2.831  53.258  1.00  0.00    -0.192 NA
ENDROOT
BRANCH   1   5
HETATM    5  N1  UNL     1      27.531  -0.118  54.636  1.00  0.00    -0.256 NA
HETATM    6  C5  UNL     1      26.415   0.104  54.029  1.00  0.00     0.109 A 
HETATM    7  C4  UNL     1      26.285   0.940  52.843  1.00  0.00     0.075 A 
HETATM    8  C9  UNL     1      25.206  -0.518  54.560  1.00  0.00     0.202 A 
HETATM    9  C3  UNL     1      25.097   1.111  52.287  1.00  0.00     0.097 A 
HETATM   10  C11 UNL     1      23.840   0.506  52.780  1.00  0.00     0.066 A 
HETATM   11  C10 UNL     1      23.958  -0.251  53.856  1.00  0.00     0.089 A 
HETATM   12  O2  UNL     1      25.234  -1.263  55.593  1.00  0.00    -0.286 OA
BRANCH   9  13
HETATM   13  O1  UNL     1      24.985   1.921  51.140  1.00  0.00    -0.349 OA
BRANCH  13  14
HETATM   14  C2  UNL     1      25.621   3.181  51.039  1.00  0.00     0.171 C 
HETATM   15  C1  UNL     1      26.428   3.142  49.752  1.00  0.00     0.034 C 
ENDBRANCH  13  14
ENDBRANCH   9  13
BRANCH  10  16
HETATM   16  N3  UNL     1      22.601   0.743  52.119  1.00  0.00    -0.380 N 
HETATM   17  H10 UNL     1      22.643   0.462  51.097  1.00  0.00     0.160 HD
BRANCH  16  18
HETATM   18  C12 UNL     1      21.396   1.284  52.664  1.00  0.00     0.100 C 
HETATM   19  C13 UNL     1      20.227   0.358  52.315  1.00  0.00     0.036 C 
BRANCH  18  20
HETATM   20  C14 UNL     1      21.033   2.601  52.062  1.00  0.00    -0.001 C 
HETATM   21  C15 UNL     1      21.703   3.502  51.404  1.00  0.00     0.012 C 
BRANCH  21  22
HETATM   22  C16 UNL     1      21.212   4.761  50.865  1.00  0.00    -0.010 A 
HETATM   23  C17 UNL     1      20.054   4.763  50.120  1.00  0.00     0.013 A 
HETATM   24  C18 UNL     1      19.560   5.918  49.597  1.00  0.00     0.001 A 
HETATM   25  C19 UNL     1      20.236   7.116  49.820  1.00  0.00     0.002 A 
HETATM   26  C20 UNL     1      21.385   7.055  50.572  1.00  0.00     0.030 A 
HETATM   27  C21 UNL     1      21.938   5.899  51.132  1.00  0.00     0.037 A 
BRANCH  27  28
HETATM   28  N4  UNL     1      23.134   5.970  51.889  1.00  0.00    -0.394 N 
HETATM   29  C22 UNL     1      24.300   6.603  51.293  1.00  0.00     0.146 C 
HETATM   30  H21 UNL     1      23.169   5.579  52.845  1.00  0.00     0.159 HD
ENDBRANCH  27  28
ENDBRANCH  21  22
ENDBRANCH  18  20
ENDBRANCH  16  18
ENDBRANCH  10  16
ENDBRANCH   1   5
TORSDOF 8
ENDMDL
MODEL 3
REMARK VINA RESULT:      -7.9      1.483      2.202
REMARK  8 active torsions:
REMARK  status: ('A' for Active; 'I' for Inactive)
REMARK    1  A    between atoms: C2_2  and  O1_3 
REMARK    2  A    between atoms: O1_3  and  C3_4 
REMARK    3  A    between atoms: N1_7  and  C6_8 
REMARK    4  A    between atoms: C11_15  and  N3_16 
REMARK    5  A    between atoms: N3_16  and  C12_17 
REMARK    6  A    between atoms: C12_17  and  C14_19 
REMARK    7  A    between atoms: C15_20  and  C16_21 
REMARK    8  A    between atoms: C21_26  and  N4_27 
ROOT
HETATM    1  C6  UNL     1      28.587   0.576  54.341  1.00  0.00     0.128 C 
HETATM    2  C7  UNL     1      29.553  -0.090  53.730  1.00  0.00     0.112 C 
HETATM    3  C8  UNL     1      29.322  -1.472  53.506  1.00  0.00     0.089 C 
HETATM    4  N2  UNL     1      29.115  -2.614  53.324  1.00  0.00    -0.192 NA
ENDROOT
BRANCH   1   5
HETATM    5  N1  UNL     1      27.411  -0.078  54.733  1.00  0.00    -0.256 NA
HETATM    6  C5  UNL     1      26.274   0.015  54.130  1.00  0.00     0.109 A 
HETATM    7  C4  UNL     1      26.047   0.825  52.940  1.00  0.00     0.075 A 
HETATM    8  C9  UNL     1      25.145  -0.734  54.670  1.00  0.00     0.202 A 
HETATM    9  C3  UNL     1      24.845   0.861  52.390  1.00  0.00     0.097 A 
HETATM   10  C11 UNL     1      23.664   0.123  52.893  1.00  0.00     0.066 A 
HETATM   11  C10 UNL     1      23.871  -0.611  53.972  1.00  0.00     0.089 A 
HETATM   12  O2  UNL     1      25.260  -1.465  55.707  1.00  0.00    -0.286 OA
BRANCH   9  13
HETATM   13  O1  UNL     1      24.638   1.647  51.240  1.00  0.00    -0.349 OA
BRANCH  13  14
HETATM   14  C2  UNL     1      24.906   3.036  51.216  1.00  0.00     0.171 C 
HETATM   15  C1  UNL     1      25.837   3.263  50.037  1.00  0.00     0.034 C 
ENDBRANCH  13  14
ENDBRANCH   9  13
BRANCH  10  16
HETATM   16  N3  UNL     1      22.404   0.217  52.237  1.00  0.00    -0.380 N 
HETATM   17  H10 UNL     1      22.419  -0.261  51.290  1.00  0.00     0.160 HD
BRANCH  16  18
HETATM   18  C12 UNL     1      21.210   0.850  52.702  1.00  0.00     0.100 C 
HETATM   19  C13 UNL     1      20.991   0.486  54.175  1.00  0.00     0.036 C 
BRANCH  18  20
HETATM   20  C14 UNL     1      19.988   0.357  52.002  1.00  0.00    -0.001 C 
HETATM   21  C15 UNL     1      18.728   0.304  52.326  1.00  0.00     0.012 C 
BRANCH  21  22
HETATM   22  C16 UNL     1      17.624  -0.211  51.531  1.00  0.00    -0.010 A 
HETATM   23  C17 UNL     1      17.454   0.249  50.245  1.00  0.00     0.013 A 
HETATM   24  C18 UNL     1      16.435  -0.205  49.467  1.00  0.00     0.001 A 
HETATM   25  C19 UNL     1      15.549  -1.152  49.981  1.00  0.00     0.002 A 
HETATM   26  C20 UNL     1      15.766  -1.576  51.270  1.00  0.00     0.030 A 
HETATM   27  C21 UNL     1      16.795  -1.143  52.113  1.00  0.00     0.037 A 
BRANCH  27  28
HETATM   28  N4  UNL     1      16.910  -1.660  53.428  1.00  0.00    -0.394 N 
HETATM   29  C22 UNL     1      17.414  -3.012  53.605  1.00  0.00     0.146 C 
HETATM   30  H21 UNL     1      16.640  -1.080  54.240  1.00  0.00     0.159 HD
ENDBRANCH  27  28
ENDBRANCH  21  22
ENDBRANCH  18  20
ENDBRANCH  16  18
ENDBRANCH  10  16
ENDBRANCH   1   5
TORSDOF 8
ENDMDL
MODEL 4
REMARK VINA RESULT:      -7.5      4.484      7.848
REMARK  8 active torsions:
REMARK  status: ('A' for Active; 'I' for Inactive)
REMARK    1  A    between atoms: C2_2  and  O1_3 
REMARK    2  A    between atoms: O1_3  and  C3_4 
REMARK    3  A    between atoms: N1_7  and  C6_8 
REMARK    4  A    between atoms: C11_15  and  N3_16 
REMARK    5  A    between atoms: N3_16  and  C12_17 
REMARK    6  A    between atoms: C12_17  and  C14_19 
REMARK    7  A    between atoms: C15_20  and  C16_21 
REMARK    8  A    between atoms: C21_26  and  N4_27 
ROOT
HETATM    1  C6  UNL     1      29.507   8.810  46.885  1.00  0.00     0.128 C 
HETATM    2  C7  UNL     1      30.199   9.711  47.563  1.00  0.00     0.112 C 
HETATM    3  C8  UNL     1      30.915   9.237  48.692  1.00  0.00     0.089 C 
HETATM    4  N2  UNL     1      31.506   8.828  49.623  1.00  0.00    -0.192 NA
ENDROOT
BRANCH   1   5
HETATM    5  N1  UNL     1      29.503   7.467  47.288  1.00  0.00    -0.256 NA
HETATM    6  C5  UNL     1      28.516   6.870  47.866  1.00  0.00     0.109 A 
HETATM    7  C4  UNL     1      27.249   7.513  48.187  1.00  0.00     0.075 A 
HETATM    8  C9  UNL     1      28.676   5.464  48.222  1.00  0.00     0.202 A 
HETATM    9  C3  UNL     1      26.293   6.820  48.783  1.00  0.00     0.097 A 
HETATM   10  C11 UNL     1      26.398   5.394  49.166  1.00  0.00     0.066 A 
HETATM   11  C10 UNL     1      27.548   4.812  48.875  1.00  0.00     0.089 A 
HETATM   12  O2  UNL     1      29.752   4.828  47.976  1.00  0.00    -0.286 OA
BRANCH   9  13
HETATM   13  O1  UNL     1      25.073   7.453  49.087  1.00  0.00    -0.349 OA
BRANCH  13  14
HETATM   14  C2  UNL     1      24.876   8.178  50.286  1.00  0.00     0.171 C 
HETATM   15  C1  UNL     1      23.569   7.672  50.872  1.00  0.00     0.034 C 
ENDBRANCH  13  14
ENDBRANCH   9  13
BRANCH  10  16
HETATM   16  N3  UNL     1      25.317   4.723  49.805  1.00  0.00    -0.380 N 
HETATM   17  H10 UNL     1      24.888   5.315  50.573  1.00  0.00     0.160 HD
BRANCH  16  18
HETATM   18  C12 UNL     1      24.796   3.422  49.527  1.00  0.00     0.100 C 
HETATM   19  C13 UNL     1      23.272   3.511  49.387  1.00  0.00     0.036 C 
BRANCH  18  20
HETATM   20  C14 UNL     1      25.020   2.461  50.646  1.00  0.00    -0.001 C 
HETATM   21  C15 UNL     1      24.804   2.512  51.929  1.00  0.00     0.012 C 
BRANCH  21  22
HETATM   22  C16 UNL     1      25.075   1.482  52.920  1.00  0.00    -0.010 A 
HETATM   23  C17 UNL     1      24.202   0.424  53.040  1.00  0.00     0.013 A 
HETATM   24  C18 UNL     1      24.417  -0.561  53.954  1.00  0.00     0.001 A 
HETATM   25  C19 UNL     1      25.538  -0.497  54.781  1.00  0.00     0.002 A 
HETATM   26  C20 UNL     1      26.375   0.581  54.617  1.00  0.00     0.030 A 
HETATM   27  C21 UNL     1      26.203   1.620  53.696  1.00  0.00     0.037 A 
BRANCH  27  28
HETATM   28  N4  UNL     1      27.141   2.680  53.627  1.00  0.00    -0.394 N 
HETATM   29  C22 UNL     1      28.559   2.358  53.638  1.00  0.00     0.146 C 
HETATM   30  H21 UNL     1      26.817   3.659  53.569  1.00  0.00     0.159 HD
ENDBRANCH  27  28
ENDBRANCH  21  22
ENDBRANCH  18  20
ENDBRANCH  16  18
ENDBRANCH  10  16
ENDBRANCH   1   5
TORSDOF 8
ENDMDL
MODEL 5
REMARK VINA RESULT:      -7.5      1.945      3.149
REMARK  8 active torsions:
REMARK  status: ('A' for Active; 'I' for Inactive)
REMARK    1  A    between atoms: C2_2  and  O1_3 
REMARK    2  A    between atoms: O1_3  and  C3_4 
REMARK    3  A    between atoms: N1_7  and  C6_8 
REMARK    4  A    between atoms: C11_15  and  N3_16 
REMARK    5  A    between atoms: N3_16  and  C12_17 
REMARK    6  A    between atoms: C12_17  and  C14_19 
REMARK    7  A    between atoms: C15_20  and  C16_21 
REMARK    8  A    between atoms: C21_26  and  N4_27 
ROOT
HETATM    1  C6  UNL     1      28.252   0.767  54.223  1.00  0.00     0.128 C 
HETATM    2  C7  UNL     1      29.275   0.170  53.634  1.00  0.00     0.112 C 
HETATM    3  C8  UNL     1      29.211  -1.245  53.541  1.00  0.00     0.089 C 
HETATM    4  N2  UNL     1      29.142  -2.416  53.469  1.00  0.00    -0.192 NA
ENDROOT
BRANCH   1   5
HETATM    5  N1  UNL     1      27.179   0.013  54.718  1.00  0.00    -0.256 NA
HETATM    6  C5  UNL     1      25.992  -0.009  54.212  1.00  0.00     0.109 A 
HETATM    7  C4  UNL     1      25.593   0.756  53.037  1.00  0.00     0.075 A 
HETATM    8  C9  UNL     1      24.986  -0.850  54.852  1.00  0.00     0.202 A 
HETATM    9  C3  UNL     1      24.352   0.671  52.589  1.00  0.00     0.097 A 
HETATM   10  C11 UNL     1      23.291  -0.164  53.196  1.00  0.00     0.066 A 
HETATM   11  C10 UNL     1      23.654  -0.857  54.261  1.00  0.00     0.089 A 
HETATM   12  O2  UNL     1      25.254  -1.549  55.882  1.00  0.00    -0.286 OA
BRANCH   9  13
HETATM   13  O1  UNL     1      23.979   1.414  51.453  1.00  0.00    -0.349 OA
BRANCH  13  14
HETATM   14  C2  UNL     1      24.183   2.811  51.363  1.00  0.00     0.171 C 
HETATM   15  C1  UNL     1      23.043   3.453  52.135  1.00  0.00     0.034 C 
ENDBRANCH  13  14
ENDBRANCH   9  13
BRANCH  10  16
HETATM   16  N3  UNL     1      21.978  -0.198  52.647  1.00  0.00    -0.380 N 
HETATM   17  H10 UNL     1      21.899  -0.909  51.864  1.00  0.00     0.160 HD
BRANCH  16  18
HETATM   18  C12 UNL     1      20.841   0.581  53.025  1.00  0.00     0.100 C 
HETATM   19  C13 UNL     1      20.784   0.677  54.554  1.00  0.00     0.036 C 
BRANCH  18  20
HETATM   20  C14 UNL     1      19.550  -0.060  52.636  1.00  0.00    -0.001 C 
HETATM   21  C15 UNL     1      18.579   0.288  51.842  1.00  0.00     0.012 C 
BRANCH  21  22
HETATM   22  C16 UNL     1      17.358  -0.447  51.551  1.00  0.00    -0.010 A 
HETATM   23  C17 UNL     1      16.922  -1.399  52.445  1.00  0.00     0.013 A 
HETATM   24  C18 UNL     1      15.785  -2.110  52.212  1.00  0.00     0.001 A 
HETATM   25  C19 UNL     1      15.052  -1.871  51.051  1.00  0.00     0.002 A 
HETATM   26  C20 UNL     1      15.534  -0.909  50.195  1.00  0.00     0.030 A 
HETATM   27  C21 UNL     1      16.693  -0.150  50.383  1.00  0.00     0.037 A 
BRANCH  27  28
HETATM   28  N4  UNL     1      17.084   0.814  49.420  1.00  0.00    -0.394 N 
HETATM   29  C22 UNL     1      16.116   1.231  48.418  1.00  0.00     0.146 C 
HETATM   30  H21 UNL     1      18.039   1.208  49.437  1.00  0.00     0.159 HD
ENDBRANCH  27  28
ENDBRANCH  21  22
ENDBRANCH  18  20
ENDBRANCH  16  18
ENDBRANCH  10  16
ENDBRANCH   1   5
TORSDOF 8
ENDMDL
MODEL 6
REMARK VINA RESULT:      -7.3      4.416      7.949
REMARK  8 active torsions:
REMARK  status: ('A' for Active; 'I' for Inactive)
REMARK    1  A    between atoms: C2_2  and  O1_3 
REMARK    2  A    between atoms: O1_3  and  C3_4 
REMARK    3  A    between atoms: N1_7  and  C6_8 
REMARK    4  A    between atoms: C11_15  and  N3_16 
REMARK    5  A    between atoms: N3_16  and  C12_17 
REMARK    6  A    between atoms: C12_17  and  C14_19 
REMARK    7  A    between atoms: C15_20  and  C16_21 
REMARK    8  A    between atoms: C21_26  and  N4_27 
ROOT
HETATM    1  C6  UNL     1      27.662   8.675  48.534  1.00  0.00     0.128 C 
HETATM    2  C7  UNL     1      28.635   9.544  48.756  1.00  0.00     0.112 C 
HETATM    3  C8  UNL     1      29.920   9.000  49.012  1.00  0.00     0.089 C 
HETATM    4  N2  UNL     1      30.979   8.535  49.219  1.00  0.00    -0.192 NA
ENDROOT
BRANCH   1   5
HETATM    5  N1  UNL     1      27.921   7.298  48.559  1.00  0.00    -0.256 NA
HETATM    6  C5  UNL     1      27.060   6.387  48.866  1.00  0.00     0.109 A 
HETATM    7  C4  UNL     1      25.678   6.663  49.234  1.00  0.00     0.075 A 
HETATM    8  C9  UNL     1      27.495   4.994  48.843  1.00  0.00     0.202 A 
HETATM    9  C3  UNL     1      24.866   5.663  49.534  1.00  0.00     0.097 A 
HETATM   10  C11 UNL     1      25.250   4.233  49.528  1.00  0.00     0.066 A 
HETATM   11  C10 UNL     1      26.504   3.984  49.194  1.00  0.00     0.089 A 
HETATM   12  O2  UNL     1      28.686   4.668  48.532  1.00  0.00    -0.286 OA
BRANCH   9  13
HETATM   13  O1  UNL     1      23.532   5.943  49.888  1.00  0.00    -0.349 OA
BRANCH  13  14
HETATM   14  C2  UNL     1      23.196   6.921  50.853  1.00  0.00     0.171 C 
HETATM   15  C1  UNL     1      21.731   7.252  50.622  1.00  0.00     0.034 C 
ENDBRANCH  13  14
ENDBRANCH   9  13
BRANCH  10  16
HETATM   16  N3  UNL     1      24.310   3.218  49.864  1.00  0.00    -0.380 N 
HETATM   17  H10 UNL     1      23.729   2.929  49.025  1.00  0.00     0.160 HD
BRANCH  16  18
HETATM   18  C12 UNL     1      24.093   2.599  51.133  1.00  0.00     0.100 C 
HETATM   19  C13 UNL     1      24.220   3.655  52.236  1.00  0.00     0.036 C 
BRANCH  18  20
HETATM   20  C14 UNL     1      25.132   1.579  51.461  1.00  0.00    -0.001 C 
HETATM   21  C15 UNL     1      25.643   1.145  52.577  1.00  0.00     0.012 C 
BRANCH  21  22
HETATM   22  C16 UNL     1      26.669   0.128  52.752  1.00  0.00    -0.010 A 
HETATM   23  C17 UNL     1      26.355  -1.188  52.497  1.00  0.00     0.013 A 
HETATM   24  C18 UNL     1      27.283  -2.171  52.648  1.00  0.00     0.001 A 
HETATM   25  C19 UNL     1      28.571  -1.840  53.068  1.00  0.00     0.002 A 
HETATM   26  C20 UNL     1      28.828  -0.511  53.308  1.00  0.00     0.030 A 
HETATM   27  C21 UNL     1      27.914   0.539  53.169  1.00  0.00     0.037 A 
BRANCH  27  28
HETATM   28  N4  UNL     1      28.305   1.872  53.450  1.00  0.00    -0.394 N 
HETATM   29  C22 UNL     1      29.392   2.096  54.390  1.00  0.00     0.146 C 
HETATM   30  H21 UNL     1      27.823   2.663  52.992  1.00  0.00     0.159 HD
ENDBRANCH  27  28
ENDBRANCH  21  22
ENDBRANCH  18  20
ENDBRANCH  16  18
ENDBRANCH  10  16
ENDBRANCH   1   5
TORSDOF 8
ENDMDL
MODEL 7
REMARK VINA RESULT:      -7.3      3.903      6.807
REMARK  8 active torsions:
REMARK  status: ('A' for Active; 'I' for Inactive)
REMARK    1  A    between atoms: C2_2  and  O1_3 
REMARK    2  A    between atoms: O1_3  and  C3_4 
REMARK    3  A    between atoms: N1_7  and  C6_8 
REMARK    4  A    between atoms: C11_15  and  N3_16 
REMARK    5  A    between atoms: N3_16  and  C12_17 
REMARK    6  A    between atoms: C12_17  and  C14_19 
REMARK    7  A    between atoms: C15_20  and  C16_21 
REMARK    8  A    between atoms: C21_26  and  N4_27 
ROOT
HETATM    1  C6  UNL     1      28.121   8.651  47.271  1.00  0.00     0.128 C 
HETATM    2  C7  UNL     1      28.915   9.606  47.728  1.00  0.00     0.112 C 
HETATM    3  C8  UNL     1      29.950   9.198  48.609  1.00  0.00     0.089 C 
HETATM    4  N2  UNL     1      30.804   8.844  49.334  1.00  0.00    -0.192 NA
ENDROOT
BRANCH   1   5
HETATM    5  N1  UNL     1      28.320   7.318  47.657  1.00  0.00    -0.256 NA
HETATM    6  C5  UNL     1      27.441   6.577  48.244  1.00  0.00     0.109 A 
HETATM    7  C4  UNL     1      26.100   7.025  48.593  1.00  0.00     0.075 A 
HETATM    8  C9  UNL     1      27.811   5.205  48.579  1.00  0.00     0.202 A 
HETATM    9  C3  UNL     1      25.266   6.194  49.195  1.00  0.00     0.097 A 
HETATM   10  C11 UNL     1      25.584   4.795  49.559  1.00  0.00     0.066 A 
HETATM   11  C10 UNL     1      26.801   4.389  49.241  1.00  0.00     0.089 A 
HETATM   12  O2  UNL     1      28.963   4.736  48.307  1.00  0.00    -0.286 OA
BRANCH   9  13
HETATM   13  O1  UNL     1      23.972   6.640  49.527  1.00  0.00    -0.349 OA
BRANCH  13  14
HETATM   14  C2  UNL     1      23.695   7.328  50.731  1.00  0.00     0.171 C 
HETATM   15  C1  UNL     1      22.181   7.413  50.828  1.00  0.00     0.034 C 
ENDBRANCH  13  14
ENDBRANCH   9  13
BRANCH  10  16
HETATM   16  N3  UNL     1      24.624   3.967  50.206  1.00  0.00    -0.380 N 
HETATM   17  H10 UNL     1      24.526   4.211  51.233  1.00  0.00     0.160 HD
BRANCH  16  18
HETATM   18  C12 UNL     1      23.838   2.915  49.641  1.00  0.00     0.100 C 
HETATM   19  C13 UNL     1      22.577   3.515  49.009  1.00  0.00     0.036 C 
BRANCH  18  20
HETATM   20  C14 UNL     1      23.332   1.959  50.669  1.00  0.00    -0.001 C 
HETATM   21  C15 UNL     1      23.310   1.970  51.970  1.00  0.00     0.012 C 
BRANCH  21  22
HETATM   22  C16 UNL     1      22.774   0.953  52.861  1.00  0.00    -0.010 A 
HETATM   23  C17 UNL     1      21.422   0.939  53.124  1.00  0.00     0.013 A 
HETATM   24  C18 UNL     1      20.879   0.006  53.951  1.00  0.00     0.001 A 
HETATM   25  C19 UNL     1      21.703  -0.951  54.542  1.00  0.00     0.002 A 
HETATM   26  C20 UNL     1      23.044  -0.890  54.244  1.00  0.00     0.030 A 
HETATM   27  C21 UNL     1      23.655   0.045  53.402  1.00  0.00     0.037 A 
BRANCH  27  28
HETATM   28  N4  UNL     1      25.054   0.001  53.177  1.00  0.00    -0.394 N 
HETATM   29  C22 UNL     1      25.945  -0.039  54.326  1.00  0.00     0.146 C 
HETATM   30  H21 UNL     1      25.426  -0.004  52.212  1.00  0.00     0.159 HD
ENDBRANCH  27  28
ENDBRANCH  21  22
ENDBRANCH  18  20
ENDBRANCH  16  18
ENDBRANCH  10  16
ENDBRANCH   1   5
TORSDOF 8
ENDMDL
MODEL 8
REMARK VINA RESULT:      -7.2      2.236      3.375
REMARK  8 active torsions:
REMARK  status: ('A' for Active; 'I' for Inactive)
REMARK    1  A    between atoms: C2_2  and  O1_3 
REMARK    2  A    between atoms: O1_3  and  C3_4 
REMARK    3  A    between atoms: N1_7  and  C6_8 
REMARK    4  A    between atoms: C11_15  and  N3_16 
REMARK    5  A    between atoms: N3_16  and  C12_17 
REMARK    6  A    between atoms: C12_17  and  C14_19 
REMARK    7  A    between atoms: C15_20  and  C16_21 
REMARK    8  A    between atoms: C21_26  and  N4_27 
ROOT
HETATM    1  C6  UNL     1      28.471   0.581  54.103  1.00  0.00     0.128 C 
HETATM    2  C7  UNL     1      29.441  -0.115  53.533  1.00  0.00     0.112 C 
HETATM    3  C8  UNL     1      29.258  -1.521  53.478  1.00  0.00     0.089 C 
HETATM    4  N2  UNL     1      29.091  -2.684  53.437  1.00  0.00    -0.192 NA
ENDROOT
BRANCH   1   5
HETATM    5  N1  UNL     1      27.338  -0.066  54.615  1.00  0.00    -0.256 NA
HETATM    6  C5  UNL     1      26.154  -0.001  54.108  1.00  0.00     0.109 A 
HETATM    7  C4  UNL     1      25.820   0.765  52.914  1.00  0.00     0.075 A 
HETATM    8  C9  UNL     1      25.081  -0.737  54.768  1.00  0.00     0.202 A 
HETATM    9  C3  UNL     1      24.575   0.773  52.466  1.00  0.00     0.097 A 
HETATM   10  C11 UNL     1      23.448   0.047  53.093  1.00  0.00     0.066 A 
HETATM   11  C10 UNL     1      23.752  -0.647  54.175  1.00  0.00     0.089 A 
HETATM   12  O2  UNL     1      25.289  -1.430  55.816  1.00  0.00    -0.286 OA
BRANCH   9  13
HETATM   13  O1  UNL     1      24.266   1.517  51.311  1.00  0.00    -0.349 OA
BRANCH  13  14
HETATM   14  C2  UNL     1      24.212   2.930  51.313  1.00  0.00     0.171 C 
HETATM   15  C1  UNL     1      24.580   3.367  49.906  1.00  0.00     0.034 C 
ENDBRANCH  13  14
ENDBRANCH   9  13
BRANCH  10  16
HETATM   16  N3  UNL     1      22.136   0.110  52.543  1.00  0.00    -0.380 N 
HETATM   17  H10 UNL     1      22.126  -0.176  51.521  1.00  0.00     0.160 HD
BRANCH  16  18
HETATM   18  C12 UNL     1      20.923   0.495  53.192  1.00  0.00     0.100 C 
HETATM   19  C13 UNL     1      20.207  -0.761  53.703  1.00  0.00     0.036 C 
BRANCH  18  20
HETATM   20  C14 UNL     1      19.949   1.135  52.259  1.00  0.00    -0.001 C 
HETATM   21  C15 UNL     1      19.756   2.361  51.866  1.00  0.00     0.012 C 
BRANCH  21  22
HETATM   22  C16 UNL     1      18.752   2.851  50.934  1.00  0.00    -0.010 A 
HETATM   23  C17 UNL     1      17.780   3.712  51.392  1.00  0.00     0.013 A 
HETATM   24  C18 UNL     1      16.822   4.194  50.555  1.00  0.00     0.001 A 
HETATM   25  C19 UNL     1      16.825   3.810  49.215  1.00  0.00     0.002 A 
HETATM   26  C20 UNL     1      17.818   2.949  48.814  1.00  0.00     0.030 A 
HETATM   27  C21 UNL     1      18.826   2.424  49.628  1.00  0.00     0.037 A 
BRANCH  27  28
HETATM   28  N4  UNL     1      19.796   1.540  49.091  1.00  0.00    -0.394 N 
HETATM   29  C22 UNL     1      20.888   2.097  48.308  1.00  0.00     0.146 C 
HETATM   30  H21 UNL     1      19.722   0.523  49.256  1.00  0.00     0.159 HD
ENDBRANCH  27  28
ENDBRANCH  21  22
ENDBRANCH  18  20
ENDBRANCH  16  18
ENDBRANCH  10  16
ENDBRANCH   1   5
TORSDOF 8
ENDMDL
MODEL 9
REMARK VINA RESULT:      -7.2      2.162      4.542
REMARK  8 active torsions:
REMARK  status: ('A' for Active; 'I' for Inactive)
REMARK    1  A    between atoms: C2_2  and  O1_3 
REMARK    2  A    between atoms: O1_3  and  C3_4 
REMARK    3  A    between atoms: N1_7  and  C6_8 
REMARK    4  A    between atoms: C11_15  and  N3_16 
REMARK    5  A    between atoms: N3_16  and  C12_17 
REMARK    6  A    between atoms: C12_17  and  C14_19 
REMARK    7  A    between atoms: C15_20  and  C16_21 
REMARK    8  A    between atoms: C21_26  and  N4_27 
ROOT
HETATM    1  C6  UNL     1      28.858   0.340  54.241  1.00  0.00     0.128 C 
HETATM    2  C7  UNL     1      29.730  -0.459  53.648  1.00  0.00     0.112 C 
HETATM    3  C8  UNL     1      29.310  -1.796  53.426  1.00  0.00     0.089 C 
HETATM    4  N2  UNL     1      28.946  -2.899  53.245  1.00  0.00    -0.192 NA
ENDROOT
BRANCH   1   5
HETATM    5  N1  UNL     1      27.596  -0.140  54.618  1.00  0.00    -0.256 NA
HETATM    6  C5  UNL     1      26.494   0.099  53.990  1.00  0.00     0.109 A 
HETATM    7  C4  UNL     1      26.403   0.912  52.784  1.00  0.00     0.075 A 
HETATM    8  C9  UNL     1      25.263  -0.479  54.517  1.00  0.00     0.202 A 
HETATM    9  C3  UNL     1      25.228   1.103  52.208  1.00  0.00     0.097 A 
HETATM   10  C11 UNL     1      23.948   0.543  52.697  1.00  0.00     0.066 A 
HETATM   11  C10 UNL     1      24.032  -0.194  53.791  1.00  0.00     0.089 A 
HETATM   12  O2  UNL     1      25.257  -1.201  55.566  1.00  0.00    -0.286 OA
BRANCH   9  13
HETATM   13  O1  UNL     1      25.153   1.890  51.043  1.00  0.00    -0.349 OA
BRANCH  13  14
HETATM   14  C2  UNL     1      25.717   3.185  50.969  1.00  0.00     0.171 C 
HETATM   15  C1  UNL     1      26.468   3.240  49.649  1.00  0.00     0.034 C 
ENDBRANCH  13  14
ENDBRANCH   9  13
BRANCH  10  16
HETATM   16  N3  UNL     1      22.725   0.798  52.014  1.00  0.00    -0.380 N 
HETATM   17  H10 UNL     1      22.389  -0.056  51.481  1.00  0.00     0.160 HD
BRANCH  16  18
HETATM   18  C12 UNL     1      21.966   2.008  51.982  1.00  0.00     0.100 C 
HETATM   19  C13 UNL     1      20.498   1.687  52.282  1.00  0.00     0.036 C 
BRANCH  18  20
HETATM   20  C14 UNL     1      21.949   2.641  50.631  1.00  0.00    -0.001 C 
HETATM   21  C15 UNL     1      21.000   3.107  49.870  1.00  0.00     0.012 C 
BRANCH  21  22
HETATM   22  C16 UNL     1      21.129   3.709  48.552  1.00  0.00    -0.010 A 
HETATM   23  C17 UNL     1      21.779   3.010  47.559  1.00  0.00     0.013 A 
HETATM   24  C18 UNL     1      21.922   3.535  46.312  1.00  0.00     0.001 A 
HETATM   25  C19 UNL     1      21.403   4.799  46.036  1.00  0.00     0.002 A 
HETATM   26  C20 UNL     1      20.764   5.450  47.064  1.00  0.00     0.030 A 
HETATM   27  C21 UNL     1      20.588   4.960  48.362  1.00  0.00     0.037 A 
BRANCH  27  28
HETATM   28  N4  UNL     1      19.909   5.734  49.336  1.00  0.00    -0.394 N 
HETATM   29  C22 UNL     1      20.529   6.961  49.808  1.00  0.00     0.146 C 
HETATM   30  H21 UNL     1      18.991   5.426  49.698  1.00  0.00     0.159 HD
ENDBRANCH  27  28
ENDBRANCH  21  22
ENDBRANCH  18  20
ENDBRANCH  16  18
ENDBRANCH  10  16
ENDBRANCH   1   5
TORSDOF 8
ENDMDL
