MODEL 1
REMARK VINA RESULT:      -7.4      0.000      0.000
REMARK  5 active torsions:
REMARK  status: ('A' for Active; 'I' for Inactive)
REMARK    1  A    between atoms: C8_10  and  N3_11 
REMARK    2  A    between atoms: N3_11  and  C9_12 
REMARK    3  A    between atoms: C13_17  and  N4_18 
REMARK    4  A    between atoms: N4_18  and  C14_19 
REMARK    5  A    between atoms: C14_19  and  C15_20 
ROOT
HETATM    1  C1  UNL     1      29.458   0.242  53.883  1.00  0.00     0.077 C 
HETATM    2  C2  UNL     1      28.112   0.691  53.541  1.00  0.00     0.053 C 
HETATM    3  C3  UNL     1      27.253  -0.205  53.999  1.00  0.00     0.065 C 
HETATM    4  C4  UNL     1      25.804  -0.151  53.877  1.00  0.00     0.071 A 
HETATM    5  N1  UNL     1      25.131  -0.995  54.644  1.00  0.00    -0.259 NA
HETATM    6  C5  UNL     1      23.790  -1.054  54.632  1.00  0.00     0.142 A 
HETATM    7  C6  UNL     1      23.038  -0.243  53.825  1.00  0.00     0.089 A 
HETATM    8  C7  UNL     1      21.616  -0.367  53.901  1.00  0.00     0.103 C 
HETATM    9  N2  UNL     1      20.438  -0.469  53.945  1.00  0.00    -0.191 NA
HETATM   10  C8  UNL     1      23.653   0.689  52.970  1.00  0.00     0.067 A 
HETATM   11  C11 UNL     1      25.048   0.663  53.067  1.00  0.00     0.025 A 
HETATM   12  C12 UNL     1      25.484   1.709  52.134  1.00  0.00     0.072 C 
HETATM   13  C13 UNL     1      26.721   2.231  52.054  1.00  0.00     0.144 C 
HETATM   14  O2  UNL     1      27.832   1.880  52.844  1.00  0.00    -0.299 OA
ENDROOT
BRANCH  10  15
HETATM   15  N3  UNL     1      22.905   1.498  52.124  1.00  0.00    -0.363 N 
HETATM   16  H6  UNL     1      23.205   1.032  51.215  1.00  0.00     0.165 HD
BRANCH  15  17
HETATM   17  C9  UNL     1      22.031   2.586  52.202  1.00  0.00     0.096 C 
HETATM   18  C10 UNL     1      21.131   2.371  51.223  1.00  0.00     0.073 C 
HETATM   19 BR1  UNL     1      21.113   0.893  50.030  1.00  0.00    -0.062 Br
ENDBRANCH  15  17
ENDBRANCH  10  15
BRANCH  13  20
HETATM   20  N4  UNL     1      27.120   3.243  51.136  1.00  0.00    -0.364 N 
HETATM   21  H10 UNL     1      27.974   3.819  51.266  1.00  0.00     0.162 HD
BRANCH  20  22
HETATM   22  C14 UNL     1      26.281   3.441  49.974  1.00  0.00     0.191 C 
BRANCH  22  23
HETATM   23  C15 UNL     1      26.982   4.367  49.013  1.00  0.00     0.250 C 
HETATM   24  O1  UNL     1      28.090   4.700  48.638  1.00  0.00    -0.305 OA
ENDBRANCH  22  23
ENDBRANCH  20  22
ENDBRANCH  13  20
TORSDOF 5
ENDMDL
MODEL 2
REMARK VINA RESULT:      -7.1      1.945      4.602
REMARK  5 active torsions:
REMARK  status: ('A' for Active; 'I' for Inactive)
REMARK    1  A    between atoms: C8_10  and  N3_11 
REMARK    2  A    between atoms: N3_11  and  C9_12 
REMARK    3  A    between atoms: C13_17  and  N4_18 
REMARK    4  A    between atoms: N4_18  and  C14_19 
REMARK    5  A    between atoms: C14_19  and  C15_20 
ROOT
HETATM    1  C1  UNL     1      27.170   4.718  48.957  1.00  0.00     0.077 C 
HETATM    2  C2  UNL     1      26.477   3.745  49.795  1.00  0.00     0.053 C 
HETATM    3  C3  UNL     1      25.209   3.710  49.417  1.00  0.00     0.065 C 
HETATM    4  C4  UNL     1      24.162   2.875  49.986  1.00  0.00     0.071 A 
HETATM    5  N1  UNL     1      23.045   2.792  49.280  1.00  0.00    -0.259 NA
HETATM    6  C5  UNL     1      21.998   2.058  49.688  1.00  0.00     0.142 A 
HETATM    7  C6  UNL     1      22.024   1.351  50.861  1.00  0.00     0.089 A 
HETATM    8  C7  UNL     1      20.865   0.582  51.196  1.00  0.00     0.103 C 
HETATM    9  N2  UNL     1      19.908  -0.047  51.492  1.00  0.00    -0.191 NA
HETATM   10  C8  UNL     1      23.160   1.372  51.687  1.00  0.00     0.067 A 
HETATM   11  C11 UNL     1      24.187   2.165  51.163  1.00  0.00     0.025 A 
HETATM   12  C12 UNL     1      25.270   2.030  52.146  1.00  0.00     0.072 C 
HETATM   13  C13 UNL     1      26.548   2.408  51.968  1.00  0.00     0.144 C 
HETATM   14  O2  UNL     1      27.096   3.001  50.815  1.00  0.00    -0.299 OA
ENDROOT
BRANCH  10  15
HETATM   15  N3  UNL     1      23.190   0.684  52.894  1.00  0.00    -0.363 N 
HETATM   16  H6  UNL     1      22.665   1.416  53.462  1.00  0.00     0.165 HD
BRANCH  15  17
HETATM   17  C9  UNL     1      23.681  -0.517  53.414  1.00  0.00     0.096 C 
HETATM   18  C10 UNL     1      22.763  -0.893  54.326  1.00  0.00     0.073 C 
HETATM   19 BR1  UNL     1      21.174   0.050  54.763  1.00  0.00    -0.062 Br
ENDBRANCH  15  17
ENDBRANCH  10  15
BRANCH  13  20
HETATM   20  N4  UNL     1      27.580   2.270  52.939  1.00  0.00    -0.364 N 
HETATM   21  H10 UNL     1      27.976   3.074  53.462  1.00  0.00     0.162 HD
BRANCH  20  22
HETATM   22  C14 UNL     1      28.066   0.931  53.192  1.00  0.00     0.191 C 
BRANCH  22  23
HETATM   23  C15 UNL     1      27.600   0.487  54.555  1.00  0.00     0.250 C 
HETATM   24  O1  UNL     1      26.670   0.589  55.331  1.00  0.00    -0.305 OA
ENDBRANCH  22  23
ENDBRANCH  20  22
ENDBRANCH  13  20
TORSDOF 5
ENDMDL
MODEL 3
REMARK VINA RESULT:      -7.0      2.945      5.593
REMARK  5 active torsions:
REMARK  status: ('A' for Active; 'I' for Inactive)
REMARK    1  A    between atoms: C8_10  and  N3_11 
REMARK    2  A    between atoms: N3_11  and  C9_12 
REMARK    3  A    between atoms: C13_17  and  N4_18 
REMARK    4  A    between atoms: N4_18  and  C14_19 
REMARK    5  A    between atoms: C14_19  and  C15_20 
ROOT
HETATM    1  C1  UNL     1      21.275  -1.826  54.186  1.00  0.00     0.077 C 
HETATM    2  C2  UNL     1      22.162  -0.883  53.513  1.00  0.00     0.053 C 
HETATM    3  C3  UNL     1      23.277  -0.795  54.219  1.00  0.00     0.065 C 
HETATM    4  C4  UNL     1      24.433   0.033  53.908  1.00  0.00     0.071 A 
HETATM    5  N1  UNL     1      25.537  -0.242  54.585  1.00  0.00    -0.259 NA
HETATM    6  C5  UNL     1      26.675   0.444  54.400  1.00  0.00     0.142 A 
HETATM    7  C6  UNL     1      26.762   1.470  53.497  1.00  0.00     0.089 A 
HETATM    8  C7  UNL     1      28.026   2.124  53.357  1.00  0.00     0.103 C 
HETATM    9  N2  UNL     1      29.063   2.683  53.241  1.00  0.00    -0.191 NA
HETATM   10  C8  UNL     1      25.647   1.846  52.727  1.00  0.00     0.067 A 
HETATM   11  C11 UNL     1      24.521   1.064  53.002  1.00  0.00     0.025 A 
HETATM   12  C12 UNL     1      23.498   1.590  52.090  1.00  0.00     0.072 C 
HETATM   13  C13 UNL     1      22.319   1.009  51.806  1.00  0.00     0.144 C 
HETATM   14  O2  UNL     1      21.838  -0.210  52.322  1.00  0.00    -0.299 OA
ENDROOT
BRANCH  10  15
HETATM   15  N3  UNL     1      25.712   2.904  51.829  1.00  0.00    -0.363 N 
HETATM   16  H6  UNL     1      25.123   3.582  52.400  1.00  0.00     0.165 HD
BRANCH  15  17
HETATM   17  C9  UNL     1      26.263   3.196  50.578  1.00  0.00     0.096 C 
HETATM   18  C10 UNL     1      25.542   4.239  50.124  1.00  0.00     0.073 C 
HETATM   19 BR1  UNL     1      24.102   5.079  51.033  1.00  0.00    -0.062 Br
ENDBRANCH  15  17
ENDBRANCH  10  15
BRANCH  13  20
HETATM   20  N4  UNL     1      21.341   1.542  50.920  1.00  0.00    -0.364 N 
HETATM   21  H10 UNL     1      21.577   2.169  50.128  1.00  0.00     0.162 HD
BRANCH  20  22
HETATM   22  C14 UNL     1      19.965   1.159  51.156  1.00  0.00     0.191 C 
BRANCH  22  23
HETATM   23  C15 UNL     1      19.200   2.356  51.659  1.00  0.00     0.250 C 
HETATM   24  O1  UNL     1      19.332   3.375  52.309  1.00  0.00    -0.305 OA
ENDBRANCH  22  23
ENDBRANCH  20  22
ENDBRANCH  13  20
TORSDOF 5
ENDMDL
MODEL 4
REMARK VINA RESULT:      -6.9      2.327      5.075
REMARK  5 active torsions:
REMARK  status: ('A' for Active; 'I' for Inactive)
REMARK    1  A    between atoms: C8_10  and  N3_11 
REMARK    2  A    between atoms: N3_11  and  C9_12 
REMARK    3  A    between atoms: C13_17  and  N4_18 
REMARK    4  A    between atoms: N4_18  and  C14_19 
REMARK    5  A    between atoms: C14_19  and  C15_20 
ROOT
HETATM    1  C1  UNL     1      28.304  -0.497  53.784  1.00  0.00     0.077 C 
HETATM    2  C2  UNL     1      27.049  -0.036  53.200  1.00  0.00     0.053 C 
HETATM    3  C3  UNL     1      27.314   1.009  52.432  1.00  0.00     0.065 C 
HETATM    4  C4  UNL     1      26.351   1.778  51.660  1.00  0.00     0.071 A 
HETATM    5  N1  UNL     1      26.863   2.594  50.751  1.00  0.00    -0.259 NA
HETATM    6  C5  UNL     1      26.090   3.364  49.969  1.00  0.00     0.142 A 
HETATM    7  C6  UNL     1      24.724   3.351  50.066  1.00  0.00     0.089 A 
HETATM    8  C7  UNL     1      23.988   4.191  49.173  1.00  0.00     0.103 C 
HETATM    9  N2  UNL     1      23.368   4.892  48.449  1.00  0.00    -0.191 NA
HETATM   10  C8  UNL     1      24.078   2.522  51.000  1.00  0.00     0.067 A 
HETATM   11  C11 UNL     1      24.979   1.766  51.756  1.00  0.00     0.025 A 
HETATM   12  C12 UNL     1      24.116   0.964  52.632  1.00  0.00     0.072 C 
HETATM   13  C13 UNL     1      24.503  -0.092  53.370  1.00  0.00     0.144 C 
HETATM   14  O2  UNL     1      25.800  -0.633  53.445  1.00  0.00    -0.299 OA
ENDROOT
BRANCH  10  15
HETATM   15  N3  UNL     1      22.694   2.519  51.130  1.00  0.00    -0.363 N 
HETATM   16  H6  UNL     1      22.516   1.687  50.491  1.00  0.00     0.165 HD
BRANCH  15  17
HETATM   17  C9  UNL     1      21.692   3.247  51.779  1.00  0.00     0.096 C 
HETATM   18  C10 UNL     1      20.608   2.449  51.730  1.00  0.00     0.073 C 
HETATM   19 BR1  UNL     1      20.525   0.726  50.936  1.00  0.00    -0.062 Br
ENDBRANCH  15  17
ENDBRANCH  10  15
BRANCH  13  20
HETATM   20  N4  UNL     1      23.646  -0.852  54.215  1.00  0.00    -0.364 N 
HETATM   21  H10 UNL     1      23.905  -1.129  55.181  1.00  0.00     0.162 HD
BRANCH  20  22
HETATM   22  C14 UNL     1      22.357  -1.226  53.675  1.00  0.00     0.191 C 
BRANCH  22  23
HETATM   23  C15 UNL     1      21.271  -0.599  54.511  1.00  0.00     0.250 C 
HETATM   24  O1  UNL     1      20.757   0.473  54.768  1.00  0.00    -0.305 OA
ENDBRANCH  22  23
ENDBRANCH  20  22
ENDBRANCH  13  20
TORSDOF 5
ENDMDL
MODEL 5
REMARK VINA RESULT:      -6.8      2.775      5.787
REMARK  5 active torsions:
REMARK  status: ('A' for Active; 'I' for Inactive)
REMARK    1  A    between atoms: C8_10  and  N3_11 
REMARK    2  A    between atoms: N3_11  and  C9_12 
REMARK    3  A    between atoms: C13_17  and  N4_18 
REMARK    4  A    between atoms: N4_18  and  C14_19 
REMARK    5  A    between atoms: C14_19  and  C15_20 
ROOT
HETATM    1  C1  UNL     1      27.063  -0.658  52.985  1.00  0.00     0.077 C 
HETATM    2  C2  UNL     1      26.070   0.282  52.476  1.00  0.00     0.053 C 
HETATM    3  C3  UNL     1      26.708   1.229  51.807  1.00  0.00     0.065 C 
HETATM    4  C4  UNL     1      26.102   2.367  51.133  1.00  0.00     0.071 A 
HETATM    5  N1  UNL     1      26.889   3.026  50.297  1.00  0.00    -0.259 NA
HETATM    6  C5  UNL     1      26.460   4.097  49.610  1.00  0.00     0.142 A 
HETATM    7  C6  UNL     1      25.181   4.570  49.734  1.00  0.00     0.089 A 
HETATM    8  C7  UNL     1      24.815   5.703  48.942  1.00  0.00     0.103 C 
HETATM    9  N2  UNL     1      24.503   6.649  48.303  1.00  0.00    -0.191 NA
HETATM   10  C8  UNL     1      24.264   3.945  50.597  1.00  0.00     0.067 A 
HETATM   11  C11 UNL     1      24.818   2.844  51.257  1.00  0.00     0.025 A 
HETATM   12  C12 UNL     1      23.709   2.328  52.070  1.00  0.00     0.072 C 
HETATM   13  C13 UNL     1      23.674   1.137  52.694  1.00  0.00     0.144 C 
HETATM   14  O2  UNL     1      24.685   0.158  52.689  1.00  0.00    -0.299 OA
ENDROOT
BRANCH  10  15
HETATM   15  N3  UNL     1      22.972   4.432  50.756  1.00  0.00    -0.363 N 
HETATM   16  H6  UNL     1      22.493   3.698  50.152  1.00  0.00     0.165 HD
BRANCH  15  17
HETATM   17  C9  UNL     1      22.310   5.483  51.398  1.00  0.00     0.096 C 
HETATM   18  C10 UNL     1      21.336   5.845  50.541  1.00  0.00     0.073 C 
HETATM   19 BR1  UNL     1      20.993   5.060  48.846  1.00  0.00    -0.062 Br
ENDBRANCH  15  17
ENDBRANCH  10  15
BRANCH  13  20
HETATM   20  N4  UNL     1      22.588   0.661  53.480  1.00  0.00    -0.364 N 
HETATM   21  H10 UNL     1      22.032   1.274  54.107  1.00  0.00     0.162 HD
BRANCH  20  22
HETATM   22  C14 UNL     1      22.262  -0.744  53.364  1.00  0.00     0.191 C 
BRANCH  22  23
HETATM   23  C15 UNL     1      22.091  -1.325  54.745  1.00  0.00     0.250 C 
HETATM   24  O1  UNL     1      22.719  -1.815  55.663  1.00  0.00    -0.305 OA
ENDBRANCH  22  23
ENDBRANCH  20  22
ENDBRANCH  13  20
TORSDOF 5
ENDMDL
MODEL 6
REMARK VINA RESULT:      -6.6      2.505      4.275
REMARK  5 active torsions:
REMARK  status: ('A' for Active; 'I' for Inactive)
REMARK    1  A    between atoms: C8_10  and  N3_11 
REMARK    2  A    between atoms: N3_11  and  C9_12 
REMARK    3  A    between atoms: C13_17  and  N4_18 
REMARK    4  A    between atoms: N4_18  and  C14_19 
REMARK    5  A    between atoms: C14_19  and  C15_20 
ROOT
HETATM    1  C1  UNL     1      26.921   4.567  48.983  1.00  0.00     0.077 C 
HETATM    2  C2  UNL     1      26.020   3.844  49.874  1.00  0.00     0.053 C 
HETATM    3  C3  UNL     1      26.746   3.019  50.610  1.00  0.00     0.065 C 
HETATM    4  C4  UNL     1      26.249   2.108  51.630  1.00  0.00     0.071 A 
HETATM    5  N1  UNL     1      27.165   1.587  52.431  1.00  0.00    -0.259 NA
HETATM    6  C5  UNL     1      26.847   0.730  53.415  1.00  0.00     0.142 A 
HETATM    7  C6  UNL     1      25.553   0.346  53.648  1.00  0.00     0.089 A 
HETATM    8  C7  UNL     1      25.315  -0.553  54.735  1.00  0.00     0.103 C 
HETATM    9  N2  UNL     1      25.106  -1.307  55.622  1.00  0.00    -0.191 NA
HETATM   10  C8  UNL     1      24.503   0.840  52.855  1.00  0.00     0.067 A 
HETATM   11  C11 UNL     1      24.951   1.722  51.866  1.00  0.00     0.025 A 
HETATM   12  C12 UNL     1      23.719   2.135  51.182  1.00  0.00     0.072 C 
HETATM   13  C13 UNL     1      23.601   3.159  50.318  1.00  0.00     0.144 C 
HETATM   14  O2  UNL     1      24.626   4.031  49.905  1.00  0.00    -0.299 OA
ENDROOT
BRANCH  10  15
HETATM   15  N3  UNL     1      23.190   0.436  53.061  1.00  0.00    -0.363 N 
HETATM   16  H6  UNL     1      22.850   1.348  53.492  1.00  0.00     0.165 HD
BRANCH  15  17
HETATM   17  C9  UNL     1      22.390  -0.695  52.874  1.00  0.00     0.096 C 
HETATM   18  C10 UNL     1      21.134  -0.214  52.795  1.00  0.00     0.073 C 
HETATM   19 BR1  UNL     1      20.629   1.612  52.923  1.00  0.00    -0.062 Br
ENDBRANCH  15  17
ENDBRANCH  10  15
BRANCH  13  20
HETATM   20  N4  UNL     1      22.395   3.538  49.665  1.00  0.00    -0.364 N 
HETATM   21  H10 UNL     1      21.643   4.079  50.133  1.00  0.00     0.162 HD
BRANCH  20  22
HETATM   22  C14 UNL     1      22.250   3.147  48.279  1.00  0.00     0.191 C 
BRANCH  22  23
HETATM   23  C15 UNL     1      21.571   1.803  48.215  1.00  0.00     0.250 C 
HETATM   24  O1  UNL     1      21.429   0.769  48.841  1.00  0.00    -0.305 OA
ENDBRANCH  22  23
ENDBRANCH  20  22
ENDBRANCH  13  20
TORSDOF 5
ENDMDL
MODEL 7
REMARK VINA RESULT:      -6.5      2.594      4.967
REMARK  5 active torsions:
REMARK  status: ('A' for Active; 'I' for Inactive)
REMARK    1  A    between atoms: C8_10  and  N3_11 
REMARK    2  A    between atoms: N3_11  and  C9_12 
REMARK    3  A    between atoms: C13_17  and  N4_18 
REMARK    4  A    between atoms: N4_18  and  C14_19 
REMARK    5  A    between atoms: C14_19  and  C15_20 
ROOT
HETATM    1  C1  UNL     1      26.346   5.809  48.677  1.00  0.00     0.077 C 
HETATM    2  C2  UNL     1      25.604   4.890  49.534  1.00  0.00     0.053 C 
HETATM    3  C3  UNL     1      26.458   4.001  50.016  1.00  0.00     0.065 C 
HETATM    4  C4  UNL     1      26.142   2.901  50.915  1.00  0.00     0.071 A 
HETATM    5  N1  UNL     1      27.180   2.312  51.489  1.00  0.00    -0.259 NA
HETATM    6  C5  UNL     1      27.034   1.284  52.339  1.00  0.00     0.142 A 
HETATM    7  C6  UNL     1      25.801   0.783  52.663  1.00  0.00     0.089 A 
HETATM    8  C7  UNL     1      25.750  -0.300  53.596  1.00  0.00     0.103 C 
HETATM    9  N2  UNL     1      25.695  -1.205  54.356  1.00  0.00    -0.191 NA
HETATM   10  C8  UNL     1      24.633   1.334  52.108  1.00  0.00     0.067 A 
HETATM   11  C11 UNL     1      24.905   2.397  51.241  1.00  0.00     0.025 A 
HETATM   12  C12 UNL     1      23.576   2.840  50.801  1.00  0.00     0.072 C 
HETATM   13  C13 UNL     1      23.299   3.985  50.153  1.00  0.00     0.144 C 
HETATM   14  O2  UNL     1      24.221   4.978  49.773  1.00  0.00    -0.299 OA
ENDROOT
BRANCH  10  15
HETATM   15  N3  UNL     1      23.378   0.817  52.404  1.00  0.00    -0.363 N 
HETATM   16  H6  UNL     1      23.138   0.511  51.414  1.00  0.00     0.165 HD
BRANCH  15  17
HETATM   17  C9  UNL     1      22.531   0.664  53.506  1.00  0.00     0.096 C 
HETATM   18  C10 UNL     1      21.311   0.463  52.972  1.00  0.00     0.073 C 
HETATM   19 BR1  UNL     1      20.900   0.413  51.119  1.00  0.00    -0.062 Br
ENDBRANCH  15  17
ENDBRANCH  10  15
BRANCH  13  20
HETATM   20  N4  UNL     1      22.001   4.390  49.734  1.00  0.00    -0.364 N 
HETATM   21  H10 UNL     1      21.655   4.265  48.763  1.00  0.00     0.162 HD
BRANCH  20  22
HETATM   22  C14 UNL     1      21.145   4.986  50.737  1.00  0.00     0.191 C 
BRANCH  22  23
HETATM   23  C15 UNL     1      20.103   3.981  51.156  1.00  0.00     0.250 C 
HETATM   24  O1  UNL     1      19.321   3.726  52.052  1.00  0.00    -0.305 OA
ENDBRANCH  22  23
ENDBRANCH  20  22
ENDBRANCH  13  20
TORSDOF 5
ENDMDL
MODEL 8
REMARK VINA RESULT:      -6.2      2.809      5.314
REMARK  5 active torsions:
REMARK  status: ('A' for Active; 'I' for Inactive)
REMARK    1  A    between atoms: C8_10  and  N3_11 
REMARK    2  A    between atoms: N3_11  and  C9_12 
REMARK    3  A    between atoms: C13_17  and  N4_18 
REMARK    4  A    between atoms: N4_18  and  C14_19 
REMARK    5  A    between atoms: C14_19  and  C15_20 
ROOT
HETATM    1  C1  UNL     1      21.242  -1.416  54.482  1.00  0.00     0.077 C 
HETATM    2  C2  UNL     1      21.816  -0.245  53.828  1.00  0.00     0.053 C 
HETATM    3  C3  UNL     1      20.821   0.485  53.350  1.00  0.00     0.065 C 
HETATM    4  C4  UNL     1      20.943   1.741  52.625  1.00  0.00     0.071 A 
HETATM    5  N1  UNL     1      19.825   2.437  52.489  1.00  0.00    -0.259 NA
HETATM    6  C5  UNL     1      19.792   3.612  51.840  1.00  0.00     0.142 A 
HETATM    7  C6  UNL     1      20.916   4.160  51.281  1.00  0.00     0.089 A 
HETATM    8  C7  UNL     1      20.782   5.427  50.632  1.00  0.00     0.103 C 
HETATM    9  N2  UNL     1      20.682   6.468  50.078  1.00  0.00    -0.191 NA
HETATM   10  C8  UNL     1      22.155   3.502  51.367  1.00  0.00     0.067 A 
HETATM   11  C11 UNL     1      22.070   2.292  52.063  1.00  0.00     0.025 A 
HETATM   12  C12 UNL     1      23.450   1.789  52.063  1.00  0.00     0.072 C 
HETATM   13  C13 UNL     1      23.923   0.781  52.816  1.00  0.00     0.144 C 
HETATM   14  O2  UNL     1      23.195   0.016  53.747  1.00  0.00    -0.299 OA
ENDROOT
BRANCH  10  15
HETATM   15  N3  UNL     1      23.297   4.032  50.779  1.00  0.00    -0.363 N 
HETATM   16  H6  UNL     1      23.700   4.462  51.665  1.00  0.00     0.165 HD
BRANCH  15  17
HETATM   17  C9  UNL     1      23.896   4.114  49.518  1.00  0.00     0.096 C 
HETATM   18  C10 UNL     1      24.474   5.331  49.495  1.00  0.00     0.073 C 
HETATM   19 BR1  UNL     1      24.442   6.607  50.901  1.00  0.00    -0.062 Br
ENDBRANCH  15  17
ENDBRANCH  10  15
BRANCH  13  20
HETATM   20  N4  UNL     1      25.266   0.310  52.795  1.00  0.00    -0.364 N 
HETATM   21  H10 UNL     1      25.520  -0.661  52.531  1.00  0.00     0.162 HD
BRANCH  20  22
HETATM   22  C14 UNL     1      26.299   1.259  53.149  1.00  0.00     0.191 C 
BRANCH  22  23
HETATM   23  C15 UNL     1      26.936   1.786  51.889  1.00  0.00     0.250 C 
HETATM   24  O1  UNL     1      27.118   2.813  51.263  1.00  0.00    -0.305 OA
ENDBRANCH  22  23
ENDBRANCH  20  22
ENDBRANCH  13  20
TORSDOF 5
ENDMDL
MODEL 9
REMARK VINA RESULT:      -6.0      2.904      4.830
REMARK  5 active torsions:
REMARK  status: ('A' for Active; 'I' for Inactive)
REMARK    1  A    between atoms: C8_10  and  N3_11 
REMARK    2  A    between atoms: N3_11  and  C9_12 
REMARK    3  A    between atoms: C13_17  and  N4_18 
REMARK    4  A    between atoms: N4_18  and  C14_19 
REMARK    5  A    between atoms: C14_19  and  C15_20 
ROOT
HETATM    1  C1  UNL     1      27.916   5.903  48.207  1.00  0.00     0.077 C 
HETATM    2  C2  UNL     1      26.766   5.332  48.901  1.00  0.00     0.053 C 
HETATM    3  C3  UNL     1      27.167   4.234  49.521  1.00  0.00     0.065 C 
HETATM    4  C4  UNL     1      26.342   3.351  50.333  1.00  0.00     0.071 A 
HETATM    5  N1  UNL     1      26.999   2.479  51.082  1.00  0.00    -0.259 NA
HETATM    6  C5  UNL     1      26.364   1.604  51.878  1.00  0.00     0.142 A 
HETATM    7  C6  UNL     1      24.998   1.563  51.962  1.00  0.00     0.089 A 
HETATM    8  C7  UNL     1      24.417   0.610  52.857  1.00  0.00     0.103 C 
HETATM    9  N2  UNL     1      23.924  -0.184  53.582  1.00  0.00    -0.191 NA
HETATM   10  C8  UNL     1      24.205   2.445  51.207  1.00  0.00     0.067 A 
HETATM   11  C11 UNL     1      24.971   3.310  50.419  1.00  0.00     0.025 A 
HETATM   12  C12 UNL     1      23.971   4.149  49.746  1.00  0.00     0.072 C 
HETATM   13  C13 UNL     1      24.220   5.286  49.072  1.00  0.00     0.144 C 
HETATM   14  O2  UNL     1      25.476   5.891  48.882  1.00  0.00    -0.299 OA
ENDROOT
BRANCH  10  15
HETATM   15  N3  UNL     1      22.817   2.396  51.260  1.00  0.00    -0.363 N 
HETATM   16  H6  UNL     1      22.687   1.768  50.411  1.00  0.00     0.165 HD
BRANCH  15  17
HETATM   17  C9  UNL     1      21.770   2.910  52.031  1.00  0.00     0.096 C 
HETATM   18  C10 UNL     1      20.852   1.925  52.057  1.00  0.00     0.073 C 
HETATM   19 BR1  UNL     1      21.007   0.232  51.209  1.00  0.00    -0.062 Br
ENDBRANCH  15  17
ENDBRANCH  10  15
BRANCH  13  20
HETATM   20  N4  UNL     1      23.232   6.081  48.425  1.00  0.00    -0.364 N 
HETATM   21  H10 UNL     1      22.716   5.766  47.582  1.00  0.00     0.162 HD
BRANCH  20  22
HETATM   22  C14 UNL     1      22.951   7.377  49.006  1.00  0.00     0.191 C 
BRANCH  22  23
HETATM   23  C15 UNL     1      22.064   7.194  50.211  1.00  0.00     0.250 C 
HETATM   24  O1  UNL     1      21.168   7.732  50.833  1.00  0.00    -0.305 OA
ENDBRANCH  22  23
ENDBRANCH  20  22
ENDBRANCH  13  20
TORSDOF 5
ENDMDL
