MODEL 1
REMARK VINA RESULT:      -8.3      0.000      0.000
REMARK  5 active torsions:
REMARK  status: ('A' for Active; 'I' for Inactive)
REMARK    1  A    between atoms: C2_2  and  C3_3 
REMARK    2  A    between atoms: C3_3  and  P1_5 
REMARK    3  A    between atoms: C8_12  and  N3_13 
REMARK    4  A    between atoms: N5_21  and  N6_22 
REMARK    5  A    between atoms: C16_24  and  O2_25 
ROOT
HETATM    1  P1  UNL     1      22.418   2.889  51.951  1.00  0.00    -0.006 P 
HETATM    2  C4  UNL     1      23.375   1.721  52.531  1.00  0.00     0.030 A 
HETATM    3  C5  UNL     1      22.829   0.688  53.365  1.00  0.00     0.040 A 
HETATM    4  C6  UNL     1      21.518   0.582  53.747  1.00  0.00     0.075 A 
HETATM    5  N1  UNL     1      21.143  -0.442  54.531  1.00  0.00    -0.241 NA
HETATM    6  C7  UNL     1      21.992  -1.381  54.966  1.00  0.00     0.236 A 
HETATM    7  N2  UNL     1      23.306  -1.294  54.597  1.00  0.00    -0.223 NA
HETATM    8  C8  UNL     1      23.707  -0.263  53.803  1.00  0.00     0.147 A 
HETATM    9  C15 UNL     1      20.549   1.549  53.315  1.00  0.00     0.070 A 
HETATM   10  C16 UNL     1      20.754   2.588  52.556  1.00  0.00     0.077 A 
HETATM   11  H6  UNL     1      22.919   4.119  52.388  1.00  0.00     0.071 HD
ENDROOT
BRANCH   8  12
HETATM   12  N3  UNL     1      25.102  -0.338  53.558  1.00  0.00    -0.316 N 
HETATM   13  C9  UNL     1      25.595  -0.983  52.384  1.00  0.00     0.096 A 
HETATM   14  C10 UNL     1      26.903  -1.080  52.122  1.00  0.00     0.024 A 
HETATM   15  C11 UNL     1      27.948  -0.536  53.002  1.00  0.00     0.183 A 
HETATM   16  C12 UNL     1      27.252   0.093  54.188  1.00  0.00     0.007 A 
HETATM   17  N5  UNL     1      28.870  -1.419  53.599  1.00  0.00    -0.223 N 
HETATM   18  C13 UNL     1      25.984   0.231  54.518  1.00  0.00     0.109 A 
HETATM   19  C14 UNL     1      28.518   0.408  54.856  1.00  0.00     0.151 C 
HETATM   20  N4  UNL     1      29.423  -0.477  54.497  1.00  0.00    -0.172 NA
BRANCH  17  21
HETATM   21  N6  UNL     1      28.994  -2.762  53.229  1.00  0.00    -0.230 NA
HETATM   22  H14 UNL     1      28.846  -3.406  54.044  1.00  0.00     0.144 HD
HETATM   23  H15 UNL     1      29.911  -2.937  52.753  1.00  0.00     0.144 HD
ENDBRANCH  17  21
ENDBRANCH   8  12
BRANCH   1  24
HETATM   24  C3  UNL     1      22.390   2.805  50.144  1.00  0.00     0.154 C 
HETATM   25  O1  UNL     1      22.540   3.422  49.079  1.00  0.00    -0.293 OA
BRANCH  24  26
HETATM   26  C2  UNL     1      22.034   1.382  49.779  1.00  0.00     0.079 C 
HETATM   27  C1  UNL     1      20.755   1.408  48.985  1.00  0.00     0.013 C 
ENDBRANCH  24  26
ENDBRANCH   1  24
BRANCH  10  28
HETATM   28  O2  UNL     1      19.820   3.503  52.153  1.00  0.00    -0.355 OA
HETATM   29  C17 UNL     1      18.579   3.143  51.549  1.00  0.00     0.210 C 
ENDBRANCH  10  28
TORSDOF 5
ENDMDL
MODEL 2
REMARK VINA RESULT:      -7.7      1.885      2.649
REMARK  5 active torsions:
REMARK  status: ('A' for Active; 'I' for Inactive)
REMARK    1  A    between atoms: C2_2  and  C3_3 
REMARK    2  A    between atoms: C3_3  and  P1_5 
REMARK    3  A    between atoms: C8_12  and  N3_13 
REMARK    4  A    between atoms: N5_21  and  N6_22 
REMARK    5  A    between atoms: C16_24  and  O2_25 
ROOT
HETATM    1  P1  UNL     1      23.815   3.635  51.752  1.00  0.00    -0.006 P 
HETATM    2  C4  UNL     1      24.419   2.295  52.427  1.00  0.00     0.030 A 
HETATM    3  C5  UNL     1      23.564   1.170  52.685  1.00  0.00     0.040 A 
HETATM    4  C6  UNL     1      22.224   1.108  52.411  1.00  0.00     0.075 A 
HETATM    5  N1  UNL     1      21.545  -0.013  52.704  1.00  0.00    -0.241 NA
HETATM    6  C7  UNL     1      22.114  -1.092  53.255  1.00  0.00     0.236 A 
HETATM    7  N2  UNL     1      23.452  -1.052  53.536  1.00  0.00    -0.223 NA
HETATM    8  C8  UNL     1      24.158   0.077  53.248  1.00  0.00     0.147 A 
HETATM    9  C15 UNL     1      21.545   2.225  51.817  1.00  0.00     0.070 A 
HETATM   10  C16 UNL     1      22.061   3.371  51.474  1.00  0.00     0.077 A 
HETATM   11  H6  UNL     1      24.052   4.705  52.622  1.00  0.00     0.071 HD
ENDROOT
BRANCH   8  12
HETATM   12  N3  UNL     1      25.514  -0.073  53.639  1.00  0.00    -0.316 N 
HETATM   13  C9  UNL     1      26.034   0.673  54.739  1.00  0.00     0.096 A 
HETATM   14  C10 UNL     1      27.308   0.564  55.133  1.00  0.00     0.024 A 
HETATM   15  C11 UNL     1      28.284  -0.324  54.484  1.00  0.00     0.183 A 
HETATM   16  C12 UNL     1      27.570  -1.018  53.345  1.00  0.00     0.007 A 
HETATM   17  N5  UNL     1      29.415   0.239  53.860  1.00  0.00    -0.223 N 
HETATM   18  C13 UNL     1      26.332  -0.969  52.897  1.00  0.00     0.109 A 
HETATM   19  C14 UNL     1      28.791  -1.688  52.891  1.00  0.00     0.151 C 
HETATM   20  N4  UNL     1      29.830  -0.942  53.202  1.00  0.00    -0.172 NA
BRANCH  17  21
HETATM   21  N6  UNL     1      29.788   1.577  54.015  1.00  0.00    -0.230 NA
HETATM   22  H14 UNL     1      29.224   2.056  54.759  1.00  0.00     0.144 HD
HETATM   23  H15 UNL     1      29.744   2.088  53.100  1.00  0.00     0.144 HD
ENDBRANCH  17  21
ENDBRANCH   8  12
BRANCH   1  24
HETATM   24  C3  UNL     1      24.610   3.915  50.150  1.00  0.00     0.154 C 
HETATM   25  O1  UNL     1      24.512   4.422  49.023  1.00  0.00    -0.293 OA
BRANCH  24  26
HETATM   26  C2  UNL     1      25.965   3.248  50.213  1.00  0.00     0.079 C 
HETATM   27  C1  UNL     1      26.896   3.994  49.295  1.00  0.00     0.013 C 
ENDBRANCH  24  26
ENDBRANCH   1  24
BRANCH  10  28
HETATM   28  O2  UNL     1      21.401   4.427  50.908  1.00  0.00    -0.355 OA
HETATM   29  C17 UNL     1      21.652   5.787  51.257  1.00  0.00     0.210 C 
ENDBRANCH  10  28
TORSDOF 5
ENDMDL
MODEL 3
REMARK VINA RESULT:      -7.7      4.605      7.144
REMARK  5 active torsions:
REMARK  status: ('A' for Active; 'I' for Inactive)
REMARK    1  A    between atoms: C2_2  and  C3_3 
REMARK    2  A    between atoms: C3_3  and  P1_5 
REMARK    3  A    between atoms: C8_12  and  N3_13 
REMARK    4  A    between atoms: N5_21  and  N6_22 
REMARK    5  A    between atoms: C16_24  and  O2_25 
ROOT
HETATM    1  P1  UNL     1      26.661   0.991  52.224  1.00  0.00    -0.006 P 
HETATM    2  C4  UNL     1      25.641   2.148  51.737  1.00  0.00     0.030 A 
HETATM    3  C5  UNL     1      24.232   2.017  51.982  1.00  0.00     0.040 A 
HETATM    4  C6  UNL     1      23.628   0.962  52.612  1.00  0.00     0.075 A 
HETATM    5  N1  UNL     1      22.294   0.971  52.776  1.00  0.00    -0.241 NA
HETATM    6  C7  UNL     1      21.512   1.972  52.355  1.00  0.00     0.236 A 
HETATM    7  N2  UNL     1      22.094   3.036  51.724  1.00  0.00    -0.223 NA
HETATM    8  C8  UNL     1      23.445   3.045  51.546  1.00  0.00     0.147 A 
HETATM    9  C15 UNL     1      24.403  -0.145  53.095  1.00  0.00     0.070 A 
HETATM   10  C16 UNL     1      25.694  -0.299  53.015  1.00  0.00     0.077 A 
HETATM   11  H6  UNL     1      27.348   0.516  51.102  1.00  0.00     0.071 HD
ENDROOT
BRANCH   8  12
HETATM   12  N3  UNL     1      23.847   4.214  50.851  1.00  0.00    -0.316 N 
HETATM   13  C9  UNL     1      24.605   4.113  49.646  1.00  0.00     0.096 A 
HETATM   14  C10 UNL     1      25.008   5.193  48.967  1.00  0.00     0.024 A 
HETATM   15  C11 UNL     1      24.710   6.571  49.385  1.00  0.00     0.183 A 
HETATM   16  C12 UNL     1      23.920   6.488  50.671  1.00  0.00     0.007 A 
HETATM   17  N5  UNL     1      25.776   7.432  49.715  1.00  0.00    -0.223 N 
HETATM   18  C13 UNL     1      23.486   5.477  51.397  1.00  0.00     0.109 A 
HETATM   19  C14 UNL     1      23.901   7.943  50.839  1.00  0.00     0.151 C 
HETATM   20  N4  UNL     1      24.977   8.454  50.279  1.00  0.00    -0.172 NA
BRANCH  17  21
HETATM   21  N6  UNL     1      27.115   7.129  49.453  1.00  0.00    -0.230 NA
HETATM   22  H14 UNL     1      27.227   6.164  49.057  1.00  0.00     0.144 HD
HETATM   23  H15 UNL     1      27.708   7.274  50.306  1.00  0.00     0.144 HD
ENDBRANCH  17  21
ENDBRANCH   8  12
BRANCH   1  24
HETATM   24  C3  UNL     1      27.808   1.673  53.446  1.00  0.00     0.154 C 
HETATM   25  O1  UNL     1      28.023   2.571  54.273  1.00  0.00    -0.293 OA
BRANCH  24  26
HETATM   26  C2  UNL     1      29.014   0.761  53.468  1.00  0.00     0.079 C 
HETATM   27  C1  UNL     1      29.049   0.062  54.801  1.00  0.00     0.013 C 
ENDBRANCH  24  26
ENDBRANCH   1  24
BRANCH  10  28
HETATM   28  O2  UNL     1      26.421  -1.361  53.480  1.00  0.00    -0.355 OA
HETATM   29  C17 UNL     1      27.118  -2.267  52.628  1.00  0.00     0.210 C 
ENDBRANCH  10  28
TORSDOF 5
ENDMDL
MODEL 4
REMARK VINA RESULT:      -7.4      2.368      4.240
REMARK  5 active torsions:
REMARK  status: ('A' for Active; 'I' for Inactive)
REMARK    1  A    between atoms: C2_2  and  C3_3 
REMARK    2  A    between atoms: C3_3  and  P1_5 
REMARK    3  A    between atoms: C8_12  and  N3_13 
REMARK    4  A    between atoms: N5_21  and  N6_22 
REMARK    5  A    between atoms: C16_24  and  O2_25 
ROOT
HETATM    1  P1  UNL     1      21.518   1.585  50.677  1.00  0.00    -0.006 P 
HETATM    2  C4  UNL     1      23.057   1.688  51.164  1.00  0.00     0.030 A 
HETATM    3  C5  UNL     1      23.952   2.618  50.535  1.00  0.00     0.040 A 
HETATM    4  C6  UNL     1      23.627   3.469  49.511  1.00  0.00     0.075 A 
HETATM    5  N1  UNL     1      24.567   4.291  49.017  1.00  0.00    -0.241 NA
HETATM    6  C7  UNL     1      25.823   4.329  49.479  1.00  0.00     0.236 A 
HETATM    7  N2  UNL     1      26.169   3.489  50.500  1.00  0.00    -0.223 NA
HETATM    8  C8  UNL     1      25.231   2.646  51.014  1.00  0.00     0.147 A 
HETATM    9  C15 UNL     1      22.299   3.487  48.968  1.00  0.00     0.070 A 
HETATM   10  C16 UNL     1      21.284   2.759  49.338  1.00  0.00     0.077 A 
HETATM   11  H6  UNL     1      21.279   0.269  50.267  1.00  0.00     0.071 HD
ENDROOT
BRANCH   8  12
HETATM   12  N3  UNL     1      25.793   1.844  52.041  1.00  0.00    -0.316 N 
HETATM   13  C9  UNL     1      25.737   2.271  53.402  1.00  0.00     0.096 A 
HETATM   14  C10 UNL     1      26.261   1.545  54.396  1.00  0.00     0.024 A 
HETATM   15  C11 UNL     1      26.934   0.254  54.190  1.00  0.00     0.183 A 
HETATM   16  C12 UNL     1      26.911  -0.031  52.705  1.00  0.00     0.007 A 
HETATM   17  N5  UNL     1      28.298   0.131  54.522  1.00  0.00    -0.223 N 
HETATM   18  C13 UNL     1      26.419   0.622  51.671  1.00  0.00     0.109 A 
HETATM   19  C14 UNL     1      27.709  -1.251  52.853  1.00  0.00     0.151 C 
HETATM   20  N4  UNL     1      28.492  -1.126  53.903  1.00  0.00    -0.172 NA
BRANCH  17  21
HETATM   21  N6  UNL     1      29.000   1.097  55.249  1.00  0.00    -0.230 NA
HETATM   22  H14 UNL     1      29.591   0.666  56.001  1.00  0.00     0.144 HD
HETATM   23  H15 UNL     1      28.351   1.826  55.630  1.00  0.00     0.144 HD
ENDBRANCH  17  21
ENDBRANCH   8  12
BRANCH   1  24
HETATM   24  C3  UNL     1      20.421   2.049  52.039  1.00  0.00     0.154 C 
HETATM   25  O1  UNL     1      19.918   2.976  52.690  1.00  0.00    -0.293 OA
BRANCH  24  26
HETATM   26  C2  UNL     1      19.898   0.762  52.635  1.00  0.00     0.079 C 
HETATM   27  C1  UNL     1      20.693   0.464  53.878  1.00  0.00     0.013 C 
ENDBRANCH  24  26
ENDBRANCH   1  24
BRANCH  10  28
HETATM   28  O2  UNL     1      20.022   2.787  48.810  1.00  0.00    -0.355 OA
HETATM   29  C17 UNL     1      19.735   3.233  47.486  1.00  0.00     0.210 C 
ENDBRANCH  10  28
TORSDOF 5
ENDMDL
MODEL 5
REMARK VINA RESULT:      -7.3      3.728      6.696
REMARK  5 active torsions:
REMARK  status: ('A' for Active; 'I' for Inactive)
REMARK    1  A    between atoms: C2_2  and  C3_3 
REMARK    2  A    between atoms: C3_3  and  P1_5 
REMARK    3  A    between atoms: C8_12  and  N3_13 
REMARK    4  A    between atoms: N5_21  and  N6_22 
REMARK    5  A    between atoms: C16_24  and  O2_25 
ROOT
HETATM    1  P1  UNL     1      26.183   0.398  52.095  1.00  0.00    -0.006 P 
HETATM    2  C4  UNL     1      24.591   0.669  52.006  1.00  0.00     0.030 A 
HETATM    3  C5  UNL     1      23.719   0.184  53.038  1.00  0.00     0.040 A 
HETATM    4  C6  UNL     1      24.109  -0.525  54.143  1.00  0.00     0.075 A 
HETATM    5  N1  UNL     1      23.182  -0.916  55.034  1.00  0.00    -0.241 NA
HETATM    6  C7  UNL     1      21.878  -0.646  54.900  1.00  0.00     0.236 A 
HETATM    7  N2  UNL     1      21.466   0.060  53.804  1.00  0.00    -0.223 NA
HETATM    8  C8  UNL     1      22.391   0.465  52.889  1.00  0.00     0.147 A 
HETATM    9  C15 UNL     1      25.491  -0.848  54.356  1.00  0.00     0.070 A 
HETATM   10  C16 UNL     1      26.501  -0.539  53.593  1.00  0.00     0.077 A 
HETATM   11  H6  UNL     1      26.569  -0.302  50.947  1.00  0.00     0.071 HD
ENDROOT
BRANCH   8  12
HETATM   12  N3  UNL     1      21.762   1.155  51.820  1.00  0.00    -0.316 N 
HETATM   13  C9  UNL     1      21.355   0.450  50.647  1.00  0.00     0.096 A 
HETATM   14  C10 UNL     1      20.766   1.066  49.616  1.00  0.00     0.024 A 
HETATM   15  C11 UNL     1      20.479   2.508  49.591  1.00  0.00     0.183 A 
HETATM   16  C12 UNL     1      20.982   3.088  50.893  1.00  0.00     0.007 A 
HETATM   17  N5  UNL     1      21.100   3.314  48.616  1.00  0.00    -0.223 N 
HETATM   18  C13 UNL     1      21.566   2.557  51.949  1.00  0.00     0.109 A 
HETATM   19  C14 UNL     1      20.652   4.459  50.495  1.00  0.00     0.151 C 
HETATM   20  N4  UNL     1      20.729   4.554  49.184  1.00  0.00    -0.172 NA
BRANCH  17  21
HETATM   21  N6  UNL     1      21.802   2.792  47.525  1.00  0.00    -0.230 NA
HETATM   22  H14 UNL     1      21.161   2.336  46.831  1.00  0.00     0.144 HD
HETATM   23  H15 UNL     1      22.562   2.144  47.841  1.00  0.00     0.144 HD
ENDBRANCH  17  21
ENDBRANCH   8  12
BRANCH   1  24
HETATM   24  C3  UNL     1      27.059   1.977  52.215  1.00  0.00     0.154 C 
HETATM   25  O1  UNL     1      28.077   2.566  52.606  1.00  0.00    -0.293 OA
BRANCH  24  26
HETATM   26  C2  UNL     1      26.175   3.017  51.564  1.00  0.00     0.079 C 
HETATM   27  C1  UNL     1      26.556   3.110  50.110  1.00  0.00     0.013 C 
ENDBRANCH  24  26
ENDBRANCH   1  24
BRANCH  10  28
HETATM   28  O2  UNL     1      27.814  -0.855  53.808  1.00  0.00    -0.355 OA
HETATM   29  C17 UNL     1      28.658  -0.136  54.705  1.00  0.00     0.210 C 
ENDBRANCH  10  28
TORSDOF 5
ENDMDL
MODEL 6
REMARK VINA RESULT:      -7.3      3.992      7.744
REMARK  5 active torsions:
REMARK  status: ('A' for Active; 'I' for Inactive)
REMARK    1  A    between atoms: C2_2  and  C3_3 
REMARK    2  A    between atoms: C3_3  and  P1_5 
REMARK    3  A    between atoms: C8_12  and  N3_13 
REMARK    4  A    between atoms: N5_21  and  N6_22 
REMARK    5  A    between atoms: C16_24  and  O2_25 
ROOT
HETATM    1  P1  UNL     1      25.637   1.422  54.054  1.00  0.00    -0.006 P 
HETATM    2  C4  UNL     1      24.667   1.832  52.827  1.00  0.00     0.030 A 
HETATM    3  C5  UNL     1      25.215   2.430  51.643  1.00  0.00     0.040 A 
HETATM    4  C6  UNL     1      26.539   2.710  51.431  1.00  0.00     0.075 A 
HETATM    5  N1  UNL     1      26.914   3.272  50.270  1.00  0.00    -0.241 NA
HETATM    6  C7  UNL     1      26.053   3.575  49.291  1.00  0.00     0.236 A 
HETATM    7  N2  UNL     1      24.726   3.304  49.481  1.00  0.00    -0.223 NA
HETATM    8  C8  UNL     1      24.325   2.736  50.653  1.00  0.00     0.147 A 
HETATM    9  C15 UNL     1      27.520   2.409  52.434  1.00  0.00     0.070 A 
HETATM   10  C16 UNL     1      27.317   1.865  53.600  1.00  0.00     0.077 A 
HETATM   11  H6  UNL     1      25.207   2.104  55.197  1.00  0.00     0.071 HD
ENDROOT
BRANCH   8  12
HETATM   12  N3  UNL     1      22.917   2.562  50.664  1.00  0.00    -0.316 N 
HETATM   13  C9  UNL     1      22.336   1.354  50.173  1.00  0.00     0.096 A 
HETATM   14  C10 UNL     1      21.013   1.156  50.161  1.00  0.00     0.024 A 
HETATM   15  C11 UNL     1      20.040   2.145  50.648  1.00  0.00     0.183 A 
HETATM   16  C12 UNL     1      20.824   3.352  51.112  1.00  0.00     0.007 A 
HETATM   17  N5  UNL     1      19.109   2.693  49.743  1.00  0.00    -0.223 N 
HETATM   18  C13 UNL     1      22.113   3.625  51.160  1.00  0.00     0.109 A 
HETATM   19  C14 UNL     1      19.610   4.119  51.403  1.00  0.00     0.151 C 
HETATM   20  N4  UNL     1      18.647   3.717  50.602  1.00  0.00    -0.172 NA
BRANCH  17  21
HETATM   21  N6  UNL     1      18.902   2.188  48.456  1.00  0.00    -0.230 NA
HETATM   22  H14 UNL     1      19.787   1.807  48.039  1.00  0.00     0.144 HD
HETATM   23  H15 UNL     1      18.455   2.906  47.837  1.00  0.00     0.144 HD
ENDBRANCH  17  21
ENDBRANCH   8  12
BRANCH   1  24
HETATM   24  C3  UNL     1      25.570  -0.369  54.305  1.00  0.00     0.154 C 
HETATM   25  O1  UNL     1      25.548  -1.297  55.127  1.00  0.00    -0.293 OA
BRANCH  24  26
HETATM   26  C2  UNL     1      25.518  -1.000  52.932  1.00  0.00     0.079 C 
HETATM   27  C1  UNL     1      26.836  -1.681  52.680  1.00  0.00     0.013 C 
ENDBRANCH  24  26
ENDBRANCH   1  24
BRANCH  10  28
HETATM   28  O2  UNL     1      28.264   1.584  54.547  1.00  0.00    -0.355 OA
HETATM   29  C17 UNL     1      29.132   0.455  54.477  1.00  0.00     0.210 C 
ENDBRANCH  10  28
TORSDOF 5
ENDMDL
MODEL 7
REMARK VINA RESULT:      -7.3      4.428      7.421
REMARK  5 active torsions:
REMARK  status: ('A' for Active; 'I' for Inactive)
REMARK    1  A    between atoms: C2_2  and  C3_3 
REMARK    2  A    between atoms: C3_3  and  P1_5 
REMARK    3  A    between atoms: C8_12  and  N3_13 
REMARK    4  A    between atoms: N5_21  and  N6_22 
REMARK    5  A    between atoms: C16_24  and  O2_25 
ROOT
HETATM    1  P1  UNL     1      26.294   0.862  52.268  1.00  0.00    -0.006 P 
HETATM    2  C4  UNL     1      25.126   1.915  51.892  1.00  0.00     0.030 A 
HETATM    3  C5  UNL     1      23.768   1.654  52.279  1.00  0.00     0.040 A 
HETATM    4  C6  UNL     1      23.332   0.550  52.963  1.00  0.00     0.075 A 
HETATM    5  N1  UNL     1      22.028   0.436  53.262  1.00  0.00    -0.241 NA
HETATM    6  C7  UNL     1      21.115   1.356  52.927  1.00  0.00     0.236 A 
HETATM    7  N2  UNL     1      21.528   2.466  52.244  1.00  0.00    -0.223 NA
HETATM    8  C8  UNL     1      22.847   2.601  51.929  1.00  0.00     0.147 A 
HETATM    9  C15 UNL     1      24.253  -0.476  53.359  1.00  0.00     0.070 A 
HETATM   10  C16 UNL     1      25.538  -0.509  53.148  1.00  0.00     0.077 A 
HETATM   11  H6  UNL     1      26.905   0.448  51.080  1.00  0.00     0.071 HD
ENDROOT
BRANCH   8  12
HETATM   12  N3  UNL     1      23.064   3.799  51.202  1.00  0.00    -0.316 N 
HETATM   13  C9  UNL     1      23.422   5.002  51.884  1.00  0.00     0.096 A 
HETATM   14  C10 UNL     1      23.628   6.153  51.234  1.00  0.00     0.024 A 
HETATM   15  C11 UNL     1      23.513   6.291  49.775  1.00  0.00     0.183 A 
HETATM   16  C12 UNL     1      23.120   4.939  49.226  1.00  0.00     0.007 A 
HETATM   17  N5  UNL     1      22.532   7.153  49.243  1.00  0.00    -0.223 N 
HETATM   18  C13 UNL     1      22.901   3.768  49.790  1.00  0.00     0.109 A 
HETATM   19  C14 UNL     1      22.995   5.448  47.858  1.00  0.00     0.151 C 
HETATM   20  N4  UNL     1      22.659   6.719  47.903  1.00  0.00    -0.172 NA
BRANCH  17  21
HETATM   21  N6  UNL     1      21.808   8.061  50.021  1.00  0.00    -0.230 NA
HETATM   22  H14 UNL     1      20.957   8.414  49.518  1.00  0.00     0.144 HD
HETATM   23  H15 UNL     1      22.419   8.845  50.353  1.00  0.00     0.144 HD
ENDBRANCH  17  21
ENDBRANCH   8  12
BRANCH   1  24
HETATM   24  C3  UNL     1      27.491   1.655  53.370  1.00  0.00     0.154 C 
HETATM   25  O1  UNL     1      27.691   2.548  54.205  1.00  0.00    -0.293 OA
BRANCH  24  26
HETATM   26  C2  UNL     1      28.798   0.915  53.198  1.00  0.00     0.079 C 
HETATM   27  C1  UNL     1      29.138   0.256  54.509  1.00  0.00     0.013 C 
ENDBRANCH  24  26
ENDBRANCH   1  24
BRANCH  10  28
HETATM   28  O2  UNL     1      26.405  -1.495  53.532  1.00  0.00    -0.355 OA
HETATM   29  C17 UNL     1      27.136  -2.300  52.610  1.00  0.00     0.210 C 
ENDBRANCH  10  28
TORSDOF 5
ENDMDL
MODEL 8
REMARK VINA RESULT:      -7.2      3.906      7.663
REMARK  5 active torsions:
REMARK  status: ('A' for Active; 'I' for Inactive)
REMARK    1  A    between atoms: C2_2  and  C3_3 
REMARK    2  A    between atoms: C3_3  and  P1_5 
REMARK    3  A    between atoms: C8_12  and  N3_13 
REMARK    4  A    between atoms: N5_21  and  N6_22 
REMARK    5  A    between atoms: C16_24  and  O2_25 
ROOT
HETATM    1  P1  UNL     1      25.353   1.529  53.926  1.00  0.00    -0.006 P 
HETATM    2  C4  UNL     1      24.579   2.105  52.629  1.00  0.00     0.030 A 
HETATM    3  C5  UNL     1      25.323   2.643  51.525  1.00  0.00     0.040 A 
HETATM    4  C6  UNL     1      26.689   2.728  51.451  1.00  0.00     0.075 A 
HETATM    5  N1  UNL     1      27.255   3.254  50.352  1.00  0.00    -0.241 NA
HETATM    6  C7  UNL     1      26.549   3.703  49.307  1.00  0.00     0.236 A 
HETATM    7  N2  UNL     1      25.185   3.628  49.360  1.00  0.00    -0.223 NA
HETATM    8  C8  UNL     1      24.591   3.099  50.466  1.00  0.00     0.147 A 
HETATM    9  C15 UNL     1      27.511   2.262  52.530  1.00  0.00     0.070 A 
HETATM   10  C16 UNL     1      27.116   1.729  53.651  1.00  0.00     0.077 A 
HETATM   11  H6  UNL     1      24.914   2.242  55.047  1.00  0.00     0.071 HD
ENDROOT
BRANCH   8  12
HETATM   12  N3  UNL     1      23.179   3.135  50.337  1.00  0.00    -0.316 N 
HETATM   13  C9  UNL     1      22.458   4.333  50.628  1.00  0.00     0.096 A 
HETATM   14  C10 UNL     1      21.126   4.404  50.525  1.00  0.00     0.024 A 
HETATM   15  C11 UNL     1      20.285   3.274  50.102  1.00  0.00     0.183 A 
HETATM   16  C12 UNL     1      21.204   2.101  49.849  1.00  0.00     0.007 A 
HETATM   17  N5  UNL     1      19.334   2.753  51.002  1.00  0.00    -0.223 N 
HETATM   18  C13 UNL     1      22.511   1.949  49.925  1.00  0.00     0.109 A 
HETATM   19  C14 UNL     1      20.088   1.192  49.575  1.00  0.00     0.151 C 
HETATM   20  N4  UNL     1      19.033   1.593  50.250  1.00  0.00    -0.172 NA
BRANCH  17  21
HETATM   21  N6  UNL     1      18.982   3.387  52.197  1.00  0.00    -0.230 NA
HETATM   22  H14 UNL     1      17.966   3.651  52.214  1.00  0.00     0.144 HD
HETATM   23  H15 UNL     1      19.603   4.210  52.384  1.00  0.00     0.144 HD
ENDBRANCH  17  21
ENDBRANCH   8  12
BRANCH   1  24
HETATM   24  C3  UNL     1      25.002  -0.238  54.104  1.00  0.00     0.154 C 
HETATM   25  O1  UNL     1      25.378  -1.324  54.567  1.00  0.00    -0.293 OA
BRANCH  24  26
HETATM   26  C2  UNL     1      23.699  -0.497  53.381  1.00  0.00     0.079 C 
HETATM   27  C1  UNL     1      22.684  -0.951  54.396  1.00  0.00     0.013 C 
ENDBRANCH  24  26
ENDBRANCH   1  24
BRANCH  10  28
HETATM   28  O2  UNL     1      27.913   1.289  54.672  1.00  0.00    -0.355 OA
HETATM   29  C17 UNL     1      28.750   0.139  54.576  1.00  0.00     0.210 C 
ENDBRANCH  10  28
TORSDOF 5
ENDMDL
MODEL 9
REMARK VINA RESULT:      -7.0      4.122      5.939
REMARK  5 active torsions:
REMARK  status: ('A' for Active; 'I' for Inactive)
REMARK    1  A    between atoms: C2_2  and  C3_3 
REMARK    2  A    between atoms: C3_3  and  P1_5 
REMARK    3  A    between atoms: C8_12  and  N3_13 
REMARK    4  A    between atoms: N5_21  and  N6_22 
REMARK    5  A    between atoms: C16_24  and  O2_25 
ROOT
HETATM    1  P1  UNL     1      21.749   1.605  52.206  1.00  0.00    -0.006 P 
HETATM    2  C4  UNL     1      23.083   2.352  51.678  1.00  0.00     0.030 A 
HETATM    3  C5  UNL     1      24.376   1.778  51.925  1.00  0.00     0.040 A 
HETATM    4  C6  UNL     1      24.613   0.608  52.597  1.00  0.00     0.075 A 
HETATM    5  N1  UNL     1      25.879   0.185  52.754  1.00  0.00    -0.241 NA
HETATM    6  C7  UNL     1      26.938   0.852  52.279  1.00  0.00     0.236 A 
HETATM    7  N2  UNL     1      26.724   2.022  51.605  1.00  0.00    -0.223 NA
HETATM    8  C8  UNL     1      25.448   2.469  51.437  1.00  0.00     0.147 A 
HETATM    9  C15 UNL     1      23.527  -0.164  53.130  1.00  0.00     0.070 A 
HETATM   10  C16 UNL     1      22.255   0.108  53.059  1.00  0.00     0.077 A 
HETATM   11  H6  UNL     1      21.065   2.484  53.052  1.00  0.00     0.071 HD
ENDROOT
BRANCH   8  12
HETATM   12  N3  UNL     1      25.442   3.705  50.740  1.00  0.00    -0.316 N 
HETATM   13  C9  UNL     1      26.351   3.929  49.662  1.00  0.00     0.096 A 
HETATM   14  C10 UNL     1      26.381   5.083  48.986  1.00  0.00     0.024 A 
HETATM   15  C11 UNL     1      25.491   6.216  49.278  1.00  0.00     0.183 A 
HETATM   16  C12 UNL     1      24.616   5.810  50.442  1.00  0.00     0.007 A 
HETATM   17  N5  UNL     1      26.052   7.436  49.705  1.00  0.00    -0.223 N 
HETATM   18  C13 UNL     1      24.522   4.706  51.156  1.00  0.00     0.109 A 
HETATM   19  C14 UNL     1      23.983   7.129  50.521  1.00  0.00     0.151 C 
HETATM   20  N4  UNL     1      24.832   8.038  50.091  1.00  0.00    -0.172 NA
BRANCH  17  21
HETATM   21  N6  UNL     1      27.422   7.709  49.654  1.00  0.00    -0.230 NA
HETATM   22  H14 UNL     1      27.909   7.128  48.928  1.00  0.00     0.144 HD
HETATM   23  H15 UNL     1      27.863   7.604  50.599  1.00  0.00     0.144 HD
ENDBRANCH  17  21
ENDBRANCH   8  12
BRANCH   1  24
HETATM   24  C3  UNL     1      20.722   1.135  50.792  1.00  0.00     0.154 C 
HETATM   25  O1  UNL     1      19.575   0.909  50.378  1.00  0.00    -0.293 OA
BRANCH  24  26
HETATM   26  C2  UNL     1      21.657   0.932  49.622  1.00  0.00     0.079 C 
HETATM   27  C1  UNL     1      21.111   1.700  48.448  1.00  0.00     0.013 C 
ENDBRANCH  24  26
ENDBRANCH   1  24
BRANCH  10  28
HETATM   28  O2  UNL     1      21.229  -0.637  53.573  1.00  0.00    -0.355 OA
HETATM   29  C17 UNL     1      21.427  -1.748  54.445  1.00  0.00     0.210 C 
ENDBRANCH  10  28
TORSDOF 5
ENDMDL
