MODEL 1
REMARK VINA RESULT:      -8.5      0.000      0.000
REMARK  4 active torsions:
REMARK  status: ('A' for Active; 'I' for Inactive)
REMARK    1  A    between atoms: O1_2  and  C2_3 
REMARK    2  A    between atoms: C6_9  and  N3_10 
REMARK    3  A    between atoms: N3_10  and  C7_11 
REMARK    4  A    between atoms: C14_21  and  O2_22 
ROOT
HETATM    1  C2  UNL     1      20.411  -0.220  53.089  1.00  0.00     0.103 A 
HETATM    2  C3  UNL     1      20.927  -0.811  54.239  1.00  0.00     0.072 A 
HETATM    3  C4  UNL     1      22.294  -0.912  54.494  1.00  0.00     0.075 A 
HETATM    4  N1  UNL     1      22.756  -1.490  55.615  1.00  0.00    -0.241 NA
HETATM    5  C5  UNL     1      24.086  -1.555  55.799  1.00  0.00     0.236 A 
HETATM    6  N2  UNL     1      24.925  -1.044  54.865  1.00  0.00    -0.223 NA
HETATM    7  C6  UNL     1      24.465  -0.467  53.745  1.00  0.00     0.143 A 
HETATM    8  C12 UNL     1      23.119  -0.377  53.512  1.00  0.00     0.042 A 
HETATM    9  C13 UNL     1      22.646   0.215  52.363  1.00  0.00     0.057 A 
HETATM   10  C14 UNL     1      21.278   0.296  52.147  1.00  0.00     0.102 A 
ENDROOT
BRANCH   7  11
HETATM   11  N3  UNL     1      25.439   0.024  52.855  1.00  0.00    -0.327 N 
HETATM   12  H6  UNL     1      25.439   0.100  51.815  1.00  0.00     0.169 HD
BRANCH  11  13
HETATM   13  C7  UNL     1      26.673   0.530  53.348  1.00  0.00     0.104 A 
HETATM   14  C8  UNL     1      27.000   1.801  53.176  1.00  0.00     0.051 A 
HETATM   15  C9  UNL     1      28.235   2.400  53.645  1.00  0.00     0.045 A 
HETATM   16  C10 UNL     1      29.060   1.587  54.281  1.00  0.00     0.131 A 
HETATM   17  F1  UNL     1      30.224   2.113  54.733  1.00  0.00    -0.207 F 
HETATM   18  C11 UNL     1      28.881   0.141  54.574  1.00  0.00     0.243 A 
HETATM   19 CL1  UNL     1      30.190  -0.791  53.798  1.00  0.00    -0.095 Cl
HETATM   20  N4  UNL     1      27.604  -0.284  54.038  1.00  0.00    -0.353 N 
HETATM   21  H10 UNL     1      27.385  -1.290  54.194  1.00  0.00     0.163 HD
ENDBRANCH  11  13
ENDBRANCH   7  11
BRANCH  10  22
HETATM   22  O2  UNL     1      20.735   0.880  51.010  1.00  0.00    -0.353 OA
HETATM   23  C15 UNL     1      21.411   0.794  49.754  1.00  0.00     0.210 C 
ENDBRANCH  10  22
BRANCH   1  24
HETATM   24  O1  UNL     1      19.045  -0.134  52.863  1.00  0.00    -0.353 OA
HETATM   25  C1  UNL     1      18.125  -1.125  53.195  1.00  0.00     0.210 C 
ENDBRANCH   1  24
TORSDOF 4
ENDMDL
MODEL 2
REMARK VINA RESULT:      -7.5      2.255      3.581
REMARK  4 active torsions:
REMARK  status: ('A' for Active; 'I' for Inactive)
REMARK    1  A    between atoms: O1_2  and  C2_3 
REMARK    2  A    between atoms: C6_9  and  N3_10 
REMARK    3  A    between atoms: N3_10  and  C7_11 
REMARK    4  A    between atoms: C14_21  and  O2_22 
ROOT
HETATM    1  C2  UNL     1      21.205   0.683  51.805  1.00  0.00     0.103 A 
HETATM    2  C3  UNL     1      21.767   1.355  50.721  1.00  0.00     0.072 A 
HETATM    3  C4  UNL     1      22.979   2.039  50.796  1.00  0.00     0.075 A 
HETATM    4  N1  UNL     1      23.492   2.675  49.730  1.00  0.00    -0.241 NA
HETATM    5  C5  UNL     1      24.665   3.316  49.872  1.00  0.00     0.236 A 
HETATM    6  N2  UNL     1      25.302   3.308  51.068  1.00  0.00    -0.223 NA
HETATM    7  C6  UNL     1      24.792   2.672  52.133  1.00  0.00     0.143 A 
HETATM    8  C12 UNL     1      23.600   2.007  52.040  1.00  0.00     0.042 A 
HETATM    9  C13 UNL     1      23.075   1.354  53.133  1.00  0.00     0.057 A 
HETATM   10  C14 UNL     1      21.866   0.684  53.016  1.00  0.00     0.102 A 
ENDROOT
BRANCH   7  11
HETATM   11  N3  UNL     1      25.550   2.739  53.318  1.00  0.00    -0.327 N 
HETATM   12  H6  UNL     1      25.461   3.357  54.153  1.00  0.00     0.169 HD
BRANCH  11  13
HETATM   13  C7  UNL     1      26.650   1.860  53.518  1.00  0.00     0.104 A 
HETATM   14  C8  UNL     1      27.893   2.304  53.441  1.00  0.00     0.051 A 
HETATM   15  C9  UNL     1      29.072   1.480  53.630  1.00  0.00     0.045 A 
HETATM   16  C10 UNL     1      28.842   0.206  53.897  1.00  0.00     0.131 A 
HETATM   17  F1  UNL     1      29.919  -0.594  54.081  1.00  0.00    -0.207 F 
HETATM   18  C11 UNL     1      27.532  -0.483  54.026  1.00  0.00     0.243 A 
HETATM   19 CL1  UNL     1      27.416  -1.775  52.799  1.00  0.00    -0.095 Cl
HETATM   20  N4  UNL     1      26.477   0.485  53.807  1.00  0.00    -0.353 N 
HETATM   21  H10 UNL     1      25.513   0.094  53.877  1.00  0.00     0.163 HD
ENDBRANCH  11  13
ENDBRANCH   7  11
BRANCH  10  22
HETATM   22  O2  UNL     1      21.282   0.007  54.078  1.00  0.00    -0.353 OA
HETATM   23  C15 UNL     1      21.875  -1.187  54.594  1.00  0.00     0.210 C 
ENDBRANCH  10  22
BRANCH   1  24
HETATM   24  O1  UNL     1      19.996   0.012  51.699  1.00  0.00    -0.353 OA
HETATM   25  C1  UNL     1      18.746   0.625  51.721  1.00  0.00     0.210 C 
ENDBRANCH   1  24
TORSDOF 4
ENDMDL
MODEL 3
REMARK VINA RESULT:      -7.4      4.609      7.479
REMARK  4 active torsions:
REMARK  status: ('A' for Active; 'I' for Inactive)
REMARK    1  A    between atoms: O1_2  and  C2_3 
REMARK    2  A    between atoms: C6_9  and  N3_10 
REMARK    3  A    between atoms: N3_10  and  C7_11 
REMARK    4  A    between atoms: C14_21  and  O2_22 
ROOT
HETATM    1  C2  UNL     1      27.395   0.103  53.735  1.00  0.00     0.103 A 
HETATM    2  C3  UNL     1      27.678   0.936  52.654  1.00  0.00     0.072 A 
HETATM    3  C4  UNL     1      26.751   1.829  52.120  1.00  0.00     0.075 A 
HETATM    4  N1  UNL     1      27.059   2.617  51.077  1.00  0.00    -0.241 NA
HETATM    5  C5  UNL     1      26.118   3.456  50.610  1.00  0.00     0.236 A 
HETATM    6  N2  UNL     1      24.894   3.492  51.191  1.00  0.00    -0.223 NA
HETATM    7  C6  UNL     1      24.584   2.705  52.233  1.00  0.00     0.143 A 
HETATM    8  C12 UNL     1      25.509   1.834  52.743  1.00  0.00     0.042 A 
HETATM    9  C13 UNL     1      25.192   1.027  53.813  1.00  0.00     0.057 A 
HETATM   10  C14 UNL     1      26.144   0.151  54.315  1.00  0.00     0.102 A 
ENDROOT
BRANCH   7  11
HETATM   11  N3  UNL     1      23.280   2.838  52.745  1.00  0.00    -0.327 N 
HETATM   12  H6  UNL     1      22.919   3.360  53.571  1.00  0.00     0.169 HD
BRANCH  11  13
HETATM   13  C7  UNL     1      22.187   2.191  52.104  1.00  0.00     0.104 A 
HETATM   14  C8  UNL     1      21.450   1.305  52.755  1.00  0.00     0.051 A 
HETATM   15  C9  UNL     1      20.320   0.599  52.181  1.00  0.00     0.045 A 
HETATM   16  C10 UNL     1      20.043   0.892  50.922  1.00  0.00     0.131 A 
HETATM   17  F1  UNL     1      18.993   0.252  50.353  1.00  0.00    -0.207 F 
HETATM   18  C11 UNL     1      20.741   1.848  50.026  1.00  0.00     0.243 A 
HETATM   19 CL1  UNL     1      21.390   0.974  48.611  1.00  0.00    -0.095 Cl
HETATM   20  N4  UNL     1      21.833   2.455  50.759  1.00  0.00    -0.353 N 
HETATM   21  H10 UNL     1      22.388   3.147  50.211  1.00  0.00     0.163 HD
ENDBRANCH  11  13
ENDBRANCH   7  11
BRANCH  10  22
HETATM   22  O2  UNL     1      25.891  -0.690  55.390  1.00  0.00    -0.353 OA
HETATM   23  C15 UNL     1      24.582  -1.224  55.604  1.00  0.00     0.210 C 
ENDBRANCH  10  22
BRANCH   1  24
HETATM   24  O1  UNL     1      28.339  -0.776  54.244  1.00  0.00    -0.353 OA
HETATM   25  C1  UNL     1      29.649  -0.883  53.786  1.00  0.00     0.210 C 
ENDBRANCH   1  24
TORSDOF 4
ENDMDL
MODEL 4
REMARK VINA RESULT:      -7.4      4.614      6.468
REMARK  4 active torsions:
REMARK  status: ('A' for Active; 'I' for Inactive)
REMARK    1  A    between atoms: O1_2  and  C2_3 
REMARK    2  A    between atoms: C6_9  and  N3_10 
REMARK    3  A    between atoms: N3_10  and  C7_11 
REMARK    4  A    between atoms: C14_21  and  O2_22 
ROOT
HETATM    1  C2  UNL     1      26.446   0.163  53.968  1.00  0.00     0.103 A 
HETATM    2  C3  UNL     1      25.259  -0.431  53.545  1.00  0.00     0.072 A 
HETATM    3  C4  UNL     1      24.166   0.301  53.085  1.00  0.00     0.075 A 
HETATM    4  N1  UNL     1      23.036  -0.306  52.684  1.00  0.00    -0.241 NA
HETATM    5  C5  UNL     1      22.019   0.459  52.252  1.00  0.00     0.236 A 
HETATM    6  N2  UNL     1      22.149   1.808  52.227  1.00  0.00    -0.223 NA
HETATM    7  C6  UNL     1      23.275   2.415  52.627  1.00  0.00     0.143 A 
HETATM    8  C12 UNL     1      24.339   1.680  53.076  1.00  0.00     0.042 A 
HETATM    9  C13 UNL     1      25.496   2.302  53.487  1.00  0.00     0.057 A 
HETATM   10  C14 UNL     1      26.563   1.537  53.938  1.00  0.00     0.102 A 
ENDROOT
BRANCH   7  11
HETATM   11  N3  UNL     1      23.283   3.821  52.553  1.00  0.00    -0.327 N 
HETATM   12  H6  UNL     1      23.040   4.545  53.263  1.00  0.00     0.169 HD
BRANCH  11  13
HETATM   13  C7  UNL     1      23.673   4.475  51.352  1.00  0.00     0.104 A 
HETATM   14  C8  UNL     1      22.781   4.764  50.419  1.00  0.00     0.051 A 
HETATM   15  C9  UNL     1      23.089   5.429  49.167  1.00  0.00     0.045 A 
HETATM   16  C10 UNL     1      24.359   5.750  48.988  1.00  0.00     0.131 A 
HETATM   17  F1  UNL     1      24.684   6.373  47.830  1.00  0.00    -0.207 F 
HETATM   18  C11 UNL     1      25.504   5.516  49.905  1.00  0.00     0.243 A 
HETATM   19 CL1  UNL     1      26.712   4.480  49.098  1.00  0.00    -0.095 Cl
HETATM   20  N4  UNL     1      25.015   4.849  51.094  1.00  0.00    -0.353 N 
HETATM   21  H10 UNL     1      25.748   4.640  51.804  1.00  0.00     0.163 HD
ENDBRANCH  11  13
ENDBRANCH   7  11
BRANCH  10  22
HETATM   22  O2  UNL     1      27.757   2.101  54.366  1.00  0.00    -0.353 OA
HETATM   23  C15 UNL     1      28.724   2.563  53.420  1.00  0.00     0.210 C 
ENDBRANCH  10  22
BRANCH   1  24
HETATM   24  O1  UNL     1      27.518  -0.593  54.422  1.00  0.00    -0.353 OA
HETATM   25  C1  UNL     1      28.496  -1.150  53.603  1.00  0.00     0.210 C 
ENDBRANCH   1  24
TORSDOF 4
ENDMDL
MODEL 5
REMARK VINA RESULT:      -7.1      4.968      6.161
REMARK  4 active torsions:
REMARK  status: ('A' for Active; 'I' for Inactive)
REMARK    1  A    between atoms: O1_2  and  C2_3 
REMARK    2  A    between atoms: C6_9  and  N3_10 
REMARK    3  A    between atoms: N3_10  and  C7_11 
REMARK    4  A    between atoms: C14_21  and  O2_22 
ROOT
HETATM    1  C2  UNL     1      23.617   0.032  53.325  1.00  0.00     0.103 A 
HETATM    2  C3  UNL     1      22.707   0.701  52.510  1.00  0.00     0.072 A 
HETATM    3  C4  UNL     1      23.086   1.677  51.590  1.00  0.00     0.075 A 
HETATM    4  N1  UNL     1      22.180   2.302  50.819  1.00  0.00    -0.241 NA
HETATM    5  C5  UNL     1      22.612   3.234  49.952  1.00  0.00     0.236 A 
HETATM    6  N2  UNL     1      23.934   3.521  49.871  1.00  0.00    -0.223 NA
HETATM    7  C6  UNL     1      24.840   2.899  50.639  1.00  0.00     0.143 A 
HETATM    8  C12 UNL     1      24.449   1.943  51.537  1.00  0.00     0.042 A 
HETATM    9  C13 UNL     1      25.378   1.303  52.326  1.00  0.00     0.057 A 
HETATM   10  C14 UNL     1      24.960   0.337  53.231  1.00  0.00     0.102 A 
ENDROOT
BRANCH   7  11
HETATM   11  N3  UNL     1      26.181   3.289  50.458  1.00  0.00    -0.327 N 
HETATM   12  H6  UNL     1      27.071   2.830  50.745  1.00  0.00     0.169 HD
BRANCH  11  13
HETATM   13  C7  UNL     1      26.492   4.500  49.780  1.00  0.00     0.104 A 
HETATM   14  C8  UNL     1      27.479   4.547  48.900  1.00  0.00     0.051 A 
HETATM   15  C9  UNL     1      27.865   5.736  48.164  1.00  0.00     0.045 A 
HETATM   16  C10 UNL     1      27.155   6.821  48.419  1.00  0.00     0.131 A 
HETATM   17  F1  UNL     1      27.486   7.951  47.748  1.00  0.00    -0.207 F 
HETATM   18  C11 UNL     1      26.017   6.975  49.361  1.00  0.00     0.243 A 
HETATM   19 CL1  UNL     1      26.429   8.193  50.599  1.00  0.00    -0.095 Cl
HETATM   20  N4  UNL     1      25.774   5.699  50.003  1.00  0.00    -0.353 N 
HETATM   21  H10 UNL     1      24.988   5.704  50.687  1.00  0.00     0.163 HD
ENDBRANCH  11  13
ENDBRANCH   7  11
BRANCH  10  22
HETATM   22  O2  UNL     1      25.844  -0.346  54.056  1.00  0.00    -0.353 OA
HETATM   23  C15 UNL     1      26.620   0.356  55.029  1.00  0.00     0.210 C 
ENDBRANCH  10  22
BRANCH   1  24
HETATM   24  O1  UNL     1      23.210  -0.934  54.233  1.00  0.00    -0.353 OA
HETATM   25  C1  UNL     1      21.949  -1.524  54.247  1.00  0.00     0.210 C 
ENDBRANCH   1  24
TORSDOF 4
ENDMDL
MODEL 6
REMARK VINA RESULT:      -7.1      8.414     11.739
REMARK  4 active torsions:
REMARK  status: ('A' for Active; 'I' for Inactive)
REMARK    1  A    between atoms: O1_2  and  C2_3 
REMARK    2  A    between atoms: C6_9  and  N3_10 
REMARK    3  A    between atoms: N3_10  and  C7_11 
REMARK    4  A    between atoms: C14_21  and  O2_22 
ROOT
HETATM    1  C2  UNL     1      33.138   5.962  48.652  1.00  0.00     0.103 A 
HETATM    2  C3  UNL     1      32.740   7.227  49.079  1.00  0.00     0.072 A 
HETATM    3  C4  UNL     1      31.426   7.682  48.988  1.00  0.00     0.075 A 
HETATM    4  N1  UNL     1      31.079   8.908  49.411  1.00  0.00    -0.241 NA
HETATM    5  C5  UNL     1      29.794   9.285  49.293  1.00  0.00     0.236 A 
HETATM    6  N2  UNL     1      28.884   8.433  48.759  1.00  0.00    -0.223 NA
HETATM    7  C6  UNL     1      29.229   7.208  48.336  1.00  0.00     0.143 A 
HETATM    8  C12 UNL     1      30.526   6.779  48.434  1.00  0.00     0.042 A 
HETATM    9  C13 UNL     1      30.881   5.522  48.000  1.00  0.00     0.057 A 
HETATM   10  C14 UNL     1      32.200   5.106  48.109  1.00  0.00     0.102 A 
ENDROOT
BRANCH   7  11
HETATM   11  N3  UNL     1      28.192   6.421  47.800  1.00  0.00    -0.327 N 
HETATM   12  H6  UNL     1      27.945   6.195  46.813  1.00  0.00     0.169 HD
BRANCH  11  13
HETATM   13  C7  UNL     1      27.263   5.774  48.661  1.00  0.00     0.104 A 
HETATM   14  C8  UNL     1      27.276   4.458  48.802  1.00  0.00     0.051 A 
HETATM   15  C9  UNL     1      26.369   3.716  49.657  1.00  0.00     0.045 A 
HETATM   16  C10 UNL     1      25.487   4.443  50.321  1.00  0.00     0.131 A 
HETATM   17  F1  UNL     1      24.622   3.783  51.130  1.00  0.00    -0.207 F 
HETATM   18  C11 UNL     1      25.310   5.918  50.302  1.00  0.00     0.243 A 
HETATM   19 CL1  UNL     1      23.671   6.314  49.717  1.00  0.00    -0.095 Cl
HETATM   20  N4  UNL     1      26.292   6.489  49.403  1.00  0.00    -0.353 N 
HETATM   21  H10 UNL     1      26.249   7.527  49.321  1.00  0.00     0.163 HD
ENDBRANCH  11  13
ENDBRANCH   7  11
BRANCH  10  22
HETATM   22  O2  UNL     1      32.626   3.853  47.692  1.00  0.00    -0.353 OA
HETATM   23  C15 UNL     1      32.362   3.401  46.362  1.00  0.00     0.210 C 
ENDBRANCH  10  22
BRANCH   1  24
HETATM   24  O1  UNL     1      34.454   5.537  48.755  1.00  0.00    -0.353 OA
HETATM   25  C1  UNL     1      35.558   6.385  48.791  1.00  0.00     0.210 C 
ENDBRANCH   1  24
TORSDOF 4
ENDMDL
MODEL 7
REMARK VINA RESULT:      -7.0      2.905      4.083
REMARK  4 active torsions:
REMARK  status: ('A' for Active; 'I' for Inactive)
REMARK    1  A    between atoms: O1_2  and  C2_3 
REMARK    2  A    between atoms: C6_9  and  N3_10 
REMARK    3  A    between atoms: N3_10  and  C7_11 
REMARK    4  A    between atoms: C14_21  and  O2_22 
ROOT
HETATM    1  C2  UNL     1      22.875   2.937  49.053  1.00  0.00     0.103 A 
HETATM    2  C3  UNL     1      22.263   1.918  49.779  1.00  0.00     0.072 A 
HETATM    3  C4  UNL     1      22.686   1.530  51.049  1.00  0.00     0.075 A 
HETATM    4  N1  UNL     1      22.070   0.544  51.721  1.00  0.00    -0.241 NA
HETATM    5  C5  UNL     1      22.530   0.219  52.942  1.00  0.00     0.236 A 
HETATM    6  N2  UNL     1      23.588   0.883  53.467  1.00  0.00    -0.223 NA
HETATM    7  C6  UNL     1      24.204   1.869  52.797  1.00  0.00     0.143 A 
HETATM    8  C12 UNL     1      23.774   2.235  51.551  1.00  0.00     0.042 A 
HETATM    9  C13 UNL     1      24.405   3.247  50.863  1.00  0.00     0.057 A 
HETATM   10  C14 UNL     1      23.953   3.603  49.600  1.00  0.00     0.102 A 
ENDROOT
BRANCH   7  11
HETATM   11  N3  UNL     1      25.291   2.479  53.451  1.00  0.00    -0.327 N 
HETATM   12  H6  UNL     1      25.382   3.415  53.900  1.00  0.00     0.169 HD
BRANCH  11  13
HETATM   13  C7  UNL     1      26.529   1.790  53.583  1.00  0.00     0.104 A 
HETATM   14  C8  UNL     1      27.676   2.421  53.392  1.00  0.00     0.051 A 
HETATM   15  C9  UNL     1      28.982   1.799  53.505  1.00  0.00     0.045 A 
HETATM   16  C10 UNL     1      28.979   0.516  53.822  1.00  0.00     0.131 A 
HETATM   17  F1  UNL     1      30.181  -0.098  53.937  1.00  0.00    -0.207 F 
HETATM   18  C11 UNL     1      27.809  -0.364  54.077  1.00  0.00     0.243 A 
HETATM   19 CL1  UNL     1      27.806  -1.705  52.898  1.00  0.00    -0.095 Cl
HETATM   20  N4  UNL     1      26.600   0.417  53.920  1.00  0.00    -0.353 N 
HETATM   21  H10 UNL     1      25.719  -0.116  54.080  1.00  0.00     0.163 HD
ENDBRANCH  11  13
ENDBRANCH   7  11
BRANCH  10  22
HETATM   22  O2  UNL     1      24.543   4.613  48.853  1.00  0.00    -0.353 OA
HETATM   23  C15 UNL     1      24.313   5.987  49.176  1.00  0.00     0.210 C 
ENDBRANCH  10  22
BRANCH   1  24
HETATM   24  O1  UNL     1      22.432   3.300  47.790  1.00  0.00    -0.353 OA
HETATM   25  C1  UNL     1      21.151   3.058  47.301  1.00  0.00     0.210 C 
ENDBRANCH   1  24
TORSDOF 4
ENDMDL
MODEL 8
REMARK VINA RESULT:      -7.0      4.588      5.575
REMARK  4 active torsions:
REMARK  status: ('A' for Active; 'I' for Inactive)
REMARK    1  A    between atoms: O1_2  and  C2_3 
REMARK    2  A    between atoms: C6_9  and  N3_10 
REMARK    3  A    between atoms: N3_10  and  C7_11 
REMARK    4  A    between atoms: C14_21  and  O2_22 
ROOT
HETATM    1  C2  UNL     1      23.190  -0.004  53.065  1.00  0.00     0.103 A 
HETATM    2  C3  UNL     1      24.502   0.137  53.511  1.00  0.00     0.072 A 
HETATM    3  C4  UNL     1      25.429   0.973  52.891  1.00  0.00     0.075 A 
HETATM    4  N1  UNL     1      26.687   1.084  53.350  1.00  0.00    -0.241 NA
HETATM    5  C5  UNL     1      27.531   1.908  52.705  1.00  0.00     0.236 A 
HETATM    6  N2  UNL     1      27.106   2.601  51.621  1.00  0.00    -0.223 NA
HETATM    7  C6  UNL     1      25.850   2.491  51.162  1.00  0.00     0.143 A 
HETATM    8  C12 UNL     1      24.954   1.665  51.784  1.00  0.00     0.042 A 
HETATM    9  C13 UNL     1      23.664   1.551  51.314  1.00  0.00     0.057 A 
HETATM   10  C14 UNL     1      22.771   0.708  51.960  1.00  0.00     0.102 A 
ENDROOT
BRANCH   7  11
HETATM   11  N3  UNL     1      25.533   3.264  50.029  1.00  0.00    -0.327 N 
HETATM   12  H6  UNL     1      25.352   2.986  49.040  1.00  0.00     0.169 HD
BRANCH  11  13
HETATM   13  C7  UNL     1      25.413   4.677  50.133  1.00  0.00     0.104 A 
HETATM   14  C8  UNL     1      24.426   5.222  50.826  1.00  0.00     0.051 A 
HETATM   15  C9  UNL     1      24.226   6.650  50.986  1.00  0.00     0.045 A 
HETATM   16  C10 UNL     1      25.113   7.421  50.383  1.00  0.00     0.131 A 
HETATM   17  F1  UNL     1      24.959   8.761  50.511  1.00  0.00    -0.207 F 
HETATM   18  C11 UNL     1      26.284   7.011  49.566  1.00  0.00     0.243 A 
HETATM   19 CL1  UNL     1      26.112   7.658  47.911  1.00  0.00    -0.095 Cl
HETATM   20  N4  UNL     1      26.326   5.564  49.514  1.00  0.00    -0.353 N 
HETATM   21  H10 UNL     1      27.118   5.175  48.960  1.00  0.00     0.163 HD
ENDBRANCH  11  13
ENDBRANCH   7  11
BRANCH  10  22
HETATM   22  O2  UNL     1      21.458   0.547  51.539  1.00  0.00    -0.353 OA
HETATM   23  C15 UNL     1      21.098   0.782  50.175  1.00  0.00     0.210 C 
ENDBRANCH  10  22
BRANCH   1  24
HETATM   24  O1  UNL     1      22.289  -0.845  53.703  1.00  0.00    -0.353 OA
HETATM   25  C1  UNL     1      21.611  -0.532  54.878  1.00  0.00     0.210 C 
ENDBRANCH   1  24
TORSDOF 4
ENDMDL
MODEL 9
REMARK VINA RESULT:      -6.9      5.393      7.327
REMARK  4 active torsions:
REMARK  status: ('A' for Active; 'I' for Inactive)
REMARK    1  A    between atoms: O1_2  and  C2_3 
REMARK    2  A    between atoms: C6_9  and  N3_10 
REMARK    3  A    between atoms: N3_10  and  C7_11 
REMARK    4  A    between atoms: C14_21  and  O2_22 
ROOT
HETATM    1  C2  UNL     1      25.825  -0.259  52.833  1.00  0.00     0.103 A 
HETATM    2  C3  UNL     1      26.560   0.529  51.950  1.00  0.00     0.072 A 
HETATM    3  C4  UNL     1      26.116   1.766  51.485  1.00  0.00     0.075 A 
HETATM    4  N1  UNL     1      26.852   2.500  50.634  1.00  0.00    -0.241 NA
HETATM    5  C5  UNL     1      26.364   3.683  50.224  1.00  0.00     0.236 A 
HETATM    6  N2  UNL     1      25.157   4.110  50.670  1.00  0.00    -0.223 NA
HETATM    7  C6  UNL     1      24.421   3.379  51.520  1.00  0.00     0.143 A 
HETATM    8  C12 UNL     1      24.874   2.167  51.965  1.00  0.00     0.042 A 
HETATM    9  C13 UNL     1      24.119   1.415  52.838  1.00  0.00     0.057 A 
HETATM   10  C14 UNL     1      24.598   0.189  53.277  1.00  0.00     0.102 A 
ENDROOT
BRANCH   7  11
HETATM   11  N3  UNL     1      23.186   3.933  51.907  1.00  0.00    -0.327 N 
HETATM   12  H6  UNL     1      22.456   3.586  52.564  1.00  0.00     0.169 HD
BRANCH  11  13
HETATM   13  C7  UNL     1      22.759   5.180  51.372  1.00  0.00     0.104 A 
HETATM   14  C8  UNL     1      21.607   5.281  50.730  1.00  0.00     0.051 A 
HETATM   15  C9  UNL     1      21.094   6.510  50.154  1.00  0.00     0.045 A 
HETATM   16  C10 UNL     1      21.861   7.575  50.304  1.00  0.00     0.131 A 
HETATM   17  F1  UNL     1      21.413   8.742  49.780  1.00  0.00    -0.207 F 
HETATM   18  C11 UNL     1      23.177   7.671  50.987  1.00  0.00     0.243 A 
HETATM   19 CL1  UNL     1      24.416   8.207  49.819  1.00  0.00    -0.095 Cl
HETATM   20  N4  UNL     1      23.530   6.362  51.496  1.00  0.00    -0.353 N 
HETATM   21  H10 UNL     1      24.443   6.325  51.995  1.00  0.00     0.163 HD
ENDBRANCH  11  13
ENDBRANCH   7  11
BRANCH  10  22
HETATM   22  O2  UNL     1      23.888  -0.618  54.156  1.00  0.00    -0.353 OA
HETATM   23  C15 UNL     1      22.464  -0.525  54.240  1.00  0.00     0.210 C 
ENDBRANCH  10  22
BRANCH   1  24
HETATM   24  O1  UNL     1      26.294  -1.486  53.278  1.00  0.00    -0.353 OA
HETATM   25  C1  UNL     1      27.226  -2.269  52.603  1.00  0.00     0.210 C 
ENDBRANCH   1  24
TORSDOF 4
ENDMDL
