MODEL 1
REMARK VINA RESULT:      -9.5      0.000      0.000
REMARK  0 active torsions:
REMARK  status: ('A' for Active; 'I' for Inactive)
ROOT
HETATM    1  C1  UNL     1      24.187   3.500  53.359  1.00  0.00     0.045 C 
HETATM    2  C2  UNL     1      23.944   2.560  52.468  1.00  0.00    -0.027 C 
HETATM    3  C3  UNL     1      23.365   2.655  51.240  1.00  0.00     0.146 C 
HETATM    4  N1  UNL     1      22.831   2.754  50.017  1.00  0.00    -0.185 NA
HETATM    5  N2  UNL     1      22.203   1.611  49.665  1.00  0.00    -0.285 N 
HETATM    6  C4  UNL     1      21.956   1.465  48.258  1.00  0.00     0.179 C 
HETATM    7  C5  UNL     1      21.805   0.636  50.503  1.00  0.00     0.124 C 
HETATM    8  C6  UNL     1      21.450   0.412  51.792  1.00  0.00    -0.005 A 
HETATM    9  C7  UNL     1      22.151   0.299  52.955  1.00  0.00     0.002 A 
HETATM   10  C8  UNL     1      23.501   0.367  53.232  1.00  0.00    -0.012 A 
HETATM   11  C9  UNL     1      23.994  -0.815  53.824  1.00  0.00     0.015 A 
HETATM   12  C10 UNL     1      25.336  -0.998  54.202  1.00  0.00     0.033 A 
HETATM   13  C11 UNL     1      26.214   0.048  53.975  1.00  0.00     0.067 A 
HETATM   14  N3  UNL     1      27.509  -0.067  54.311  1.00  0.00    -0.260 NA
HETATM   15  C12 UNL     1      28.316   0.988  54.060  1.00  0.00     0.117 A 
HETATM   16  C13 UNL     1      27.849   2.171  53.472  1.00  0.00     0.020 A 
HETATM   17  C14 UNL     1      26.495   2.282  53.125  1.00  0.00     0.016 A 
HETATM   18  C15 UNL     1      25.699   1.189  53.394  1.00  0.00     0.004 A 
HETATM   19  C16 UNL     1      24.393   1.394  53.016  1.00  0.00    -0.005 A 
HETATM   20  C17 UNL     1      21.475   0.076  54.075  1.00  0.00     0.100 A 
HETATM   21  N4  UNL     1      20.072  -0.056  54.177  1.00  0.00    -0.374 N 
HETATM   22  C18 UNL     1      19.279   0.050  53.005  1.00  0.00     0.088 A 
HETATM   23  C19 UNL     1      19.993   0.275  51.889  1.00  0.00     0.030 A 
HETATM   24  H14 UNL     1      19.557  -0.232  55.070  1.00  0.00     0.164 HD
ENDROOT
TORSDOF 0
ENDMDL
MODEL 2
REMARK VINA RESULT:      -9.1      1.353      5.602
REMARK  0 active torsions:
REMARK  status: ('A' for Active; 'I' for Inactive)
ROOT
HETATM    1  C1  UNL     1      21.569   0.519  50.024  1.00  0.00     0.045 C 
HETATM    2  C2  UNL     1      21.839   1.298  51.052  1.00  0.00    -0.027 C 
HETATM    3  C3  UNL     1      22.262   2.592  51.075  1.00  0.00     0.146 C 
HETATM    4  N1  UNL     1      22.641   3.874  51.099  1.00  0.00    -0.185 NA
HETATM    5  N2  UNL     1      23.377   4.145  52.199  1.00  0.00    -0.285 N 
HETATM    6  C4  UNL     1      23.487   5.539  52.525  1.00  0.00     0.179 C 
HETATM    7  C5  UNL     1      23.993   3.240  52.982  1.00  0.00     0.124 C 
HETATM    8  C6  UNL     1      24.513   1.989  52.965  1.00  0.00    -0.005 A 
HETATM    9  C7  UNL     1      23.965   0.742  52.984  1.00  0.00     0.002 A 
HETATM   10  C8  UNL     1      22.657   0.306  53.036  1.00  0.00    -0.012 A 
HETATM   11  C9  UNL     1      22.397  -0.499  54.165  1.00  0.00     0.015 A 
HETATM   12  C10 UNL     1      21.141  -1.066  54.448  1.00  0.00     0.033 A 
HETATM   13  C11 UNL     1      20.110  -0.813  53.560  1.00  0.00     0.067 A 
HETATM   14  N3  UNL     1      18.887  -1.323  53.776  1.00  0.00    -0.260 NA
HETATM   15  C12 UNL     1      17.921  -1.037  52.875  1.00  0.00     0.117 A 
HETATM   16  C13 UNL     1      18.157  -0.239  51.747  1.00  0.00     0.020 A 
HETATM   17  C14 UNL     1      19.436   0.290  51.530  1.00  0.00     0.016 A 
HETATM   18  C15 UNL     1      20.398  -0.022  52.467  1.00  0.00     0.004 A 
HETATM   19  C16 UNL     1      21.615   0.544  52.167  1.00  0.00    -0.005 A 
HETATM   20  C17 UNL     1      24.783  -0.303  52.953  1.00  0.00     0.100 A 
HETATM   21  N4  UNL     1      26.194  -0.242  52.900  1.00  0.00    -0.374 N 
HETATM   22  C18 UNL     1      26.833   1.024  52.878  1.00  0.00     0.088 A 
HETATM   23  C19 UNL     1      25.977   2.061  52.912  1.00  0.00     0.030 A 
HETATM   24  H14 UNL     1      26.822  -1.078  52.877  1.00  0.00     0.164 HD
ENDROOT
TORSDOF 0
ENDMDL
MODEL 3
REMARK VINA RESULT:      -8.6      3.027      5.785
REMARK  0 active torsions:
REMARK  status: ('A' for Active; 'I' for Inactive)
ROOT
HETATM    1  C1  UNL     1      22.573   1.973  48.968  1.00  0.00     0.045 C 
HETATM    2  C2  UNL     1      22.837   2.978  49.777  1.00  0.00    -0.027 C 
HETATM    3  C3  UNL     1      22.411   4.271  49.726  1.00  0.00     0.146 C 
HETATM    4  N1  UNL     1      21.962   5.530  49.699  1.00  0.00    -0.185 NA
HETATM    5  N2  UNL     1      22.853   6.379  50.257  1.00  0.00    -0.285 N 
HETATM    6  C4  UNL     1      22.316   7.654  50.640  1.00  0.00     0.179 C 
HETATM    7  C5  UNL     1      24.158   6.127  50.473  1.00  0.00     0.124 C 
HETATM    8  C6  UNL     1      25.188   5.367  50.029  1.00  0.00    -0.005 A 
HETATM    9  C7  UNL     1      25.526   4.056  50.187  1.00  0.00     0.002 A 
HETATM   10  C8  UNL     1      24.929   3.023  50.879  1.00  0.00    -0.012 A 
HETATM   11  C9  UNL     1      25.773   2.469  51.865  1.00  0.00     0.015 A 
HETATM   12  C10 UNL     1      25.399   1.404  52.704  1.00  0.00     0.033 A 
HETATM   13  C11 UNL     1      24.129   0.878  52.545  1.00  0.00     0.067 A 
HETATM   14  N3  UNL     1      23.712  -0.137  53.318  1.00  0.00    -0.260 NA
HETATM   15  C12 UNL     1      22.459  -0.604  53.116  1.00  0.00     0.117 A 
HETATM   16  C13 UNL     1      21.604  -0.068  52.144  1.00  0.00     0.020 A 
HETATM   17  C14 UNL     1      22.048   0.992  51.341  1.00  0.00     0.016 A 
HETATM   18  C15 UNL     1      23.329   1.444  51.572  1.00  0.00     0.004 A 
HETATM   19  C16 UNL     1      23.669   2.483  50.738  1.00  0.00    -0.005 A 
HETATM   20  C17 UNL     1      26.633   3.620  49.598  1.00  0.00     0.100 A 
HETATM   21  N4  UNL     1      27.506   4.398  48.806  1.00  0.00    -0.374 N 
HETATM   22  C18 UNL     1      27.215   5.772  48.599  1.00  0.00     0.088 A 
HETATM   23  C19 UNL     1      26.089   6.183  49.210  1.00  0.00     0.030 A 
HETATM   24  H14 UNL     1      28.373   4.036  48.349  1.00  0.00     0.164 HD
ENDROOT
TORSDOF 0
ENDMDL
MODEL 4
REMARK VINA RESULT:      -8.2      2.483      4.595
REMARK  0 active torsions:
REMARK  status: ('A' for Active; 'I' for Inactive)
ROOT
HETATM    1  C1  UNL     1      23.480   4.990  52.929  1.00  0.00     0.045 C 
HETATM    2  C2  UNL     1      23.201   3.903  52.238  1.00  0.00    -0.027 C 
HETATM    3  C3  UNL     1      22.075   3.137  52.240  1.00  0.00     0.146 C 
HETATM    4  N1  UNL     1      20.956   2.406  52.213  1.00  0.00    -0.185 NA
HETATM    5  N2  UNL     1      21.221   1.118  51.902  1.00  0.00    -0.285 N 
HETATM    6  C4  UNL     1      20.087   0.358  51.456  1.00  0.00     0.179 C 
HETATM    7  C5  UNL     1      22.423   0.517  51.975  1.00  0.00     0.124 C 
HETATM    8  C6  UNL     1      23.617   0.590  52.611  1.00  0.00    -0.005 A 
HETATM    9  C7  UNL     1      24.702   1.404  52.484  1.00  0.00     0.002 A 
HETATM   10  C8  UNL     1      24.974   2.459  51.638  1.00  0.00    -0.012 A 
HETATM   11  C9  UNL     1      26.122   2.240  50.847  1.00  0.00     0.015 A 
HETATM   12  C10 UNL     1      26.609   3.164  49.905  1.00  0.00     0.033 A 
HETATM   13  C11 UNL     1      25.916   4.352  49.756  1.00  0.00     0.067 A 
HETATM   14  N3  UNL     1      26.329   5.274  48.871  1.00  0.00    -0.260 NA
HETATM   15  C12 UNL     1      25.607   6.412  48.768  1.00  0.00     0.117 A 
HETATM   16  C13 UNL     1      24.464   6.650  49.543  1.00  0.00     0.020 A 
HETATM   17  C14 UNL     1      24.039   5.682  50.464  1.00  0.00     0.016 A 
HETATM   18  C15 UNL     1      24.798   4.534  50.544  1.00  0.00     0.004 A 
HETATM   19  C16 UNL     1      24.300   3.649  51.471  1.00  0.00    -0.005 A 
HETATM   20  C17 UNL     1      25.737   1.199  53.290  1.00  0.00     0.100 A 
HETATM   21  N4  UNL     1      25.819   0.201  54.286  1.00  0.00    -0.374 N 
HETATM   22  C18 UNL     1      24.725  -0.683  54.474  1.00  0.00     0.088 A 
HETATM   23  C19 UNL     1      23.695  -0.450  53.642  1.00  0.00     0.030 A 
HETATM   24  H14 UNL     1      26.644   0.056  54.913  1.00  0.00     0.164 HD
ENDROOT
TORSDOF 0
ENDMDL
MODEL 5
REMARK VINA RESULT:      -7.9      3.768      5.506
REMARK  0 active torsions:
REMARK  status: ('A' for Active; 'I' for Inactive)
ROOT
HETATM    1  C1  UNL     1      23.598   6.550  50.932  1.00  0.00     0.045 C 
HETATM    2  C2  UNL     1      23.452   5.467  50.197  1.00  0.00    -0.027 C 
HETATM    3  C3  UNL     1      22.318   4.791  49.860  1.00  0.00     0.146 C 
HETATM    4  N1  UNL     1      21.203   4.150  49.496  1.00  0.00    -0.185 NA
HETATM    5  N2  UNL     1      21.441   2.836  49.290  1.00  0.00    -0.285 N 
HETATM    6  C4  UNL     1      20.436   2.153  48.524  1.00  0.00     0.179 C 
HETATM    7  C5  UNL     1      22.508   2.146  49.731  1.00  0.00     0.124 C 
HETATM    8  C6  UNL     1      23.455   2.145  50.701  1.00  0.00    -0.005 A 
HETATM    9  C7  UNL     1      24.591   2.867  50.906  1.00  0.00     0.002 A 
HETATM   10  C8  UNL     1      25.196   3.870  50.177  1.00  0.00    -0.012 A 
HETATM   11  C9  UNL     1      26.507   3.538  49.776  1.00  0.00     0.015 A 
HETATM   12  C10 UNL     1      27.333   4.390  49.023  1.00  0.00     0.033 A 
HETATM   13  C11 UNL     1      26.821   5.623  48.660  1.00  0.00     0.067 A 
HETATM   14  N3  UNL     1      27.560   6.480  47.938  1.00  0.00    -0.260 NA
HETATM   15  C12 UNL     1      27.002   7.667  47.612  1.00  0.00     0.117 A 
HETATM   16  C13 UNL     1      25.701   8.019  47.998  1.00  0.00     0.020 A 
HETATM   17  C14 UNL     1      24.937   7.117  48.752  1.00  0.00     0.016 A 
HETATM   18  C15 UNL     1      25.536   5.917  49.068  1.00  0.00     0.004 A 
HETATM   19  C16 UNL     1      24.707   5.103  49.804  1.00  0.00    -0.005 A 
HETATM   20  C17 UNL     1      25.311   2.609  51.992  1.00  0.00     0.100 A 
HETATM   21  N4  UNL     1      25.002   1.640  52.972  1.00  0.00    -0.374 N 
HETATM   22  C18 UNL     1      23.832   0.851  52.823  1.00  0.00     0.088 A 
HETATM   23  C19 UNL     1      23.127   1.136  51.713  1.00  0.00     0.030 A 
HETATM   24  H14 UNL     1      25.581   1.451  53.822  1.00  0.00     0.164 HD
ENDROOT
TORSDOF 0
ENDMDL
MODEL 6
REMARK VINA RESULT:      -7.5      2.213      6.366
REMARK  0 active torsions:
REMARK  status: ('A' for Active; 'I' for Inactive)
ROOT
HETATM    1  C1  UNL     1      20.310   3.735  52.182  1.00  0.00     0.045 C 
HETATM    2  C2  UNL     1      20.787   2.516  52.039  1.00  0.00    -0.027 C 
HETATM    3  C3  UNL     1      20.803   1.479  52.922  1.00  0.00     0.146 C 
HETATM    4  N1  UNL     1      20.784   0.448  53.773  1.00  0.00    -0.185 NA
HETATM    5  N2  UNL     1      21.830  -0.380  53.561  1.00  0.00    -0.285 N 
HETATM    6  C4  UNL     1      21.688  -1.692  54.127  1.00  0.00     0.179 C 
HETATM    7  C5  UNL     1      22.954  -0.079  52.884  1.00  0.00     0.124 C 
HETATM    8  C6  UNL     1      23.731   0.968  52.515  1.00  0.00    -0.005 A 
HETATM    9  C7  UNL     1      23.616   1.936  51.563  1.00  0.00     0.002 A 
HETATM   10  C8  UNL     1      22.647   2.191  50.615  1.00  0.00    -0.012 A 
HETATM   11  C9  UNL     1      23.153   2.164  49.299  1.00  0.00     0.015 A 
HETATM   12  C10 UNL     1      22.369   2.393  48.155  1.00  0.00     0.033 A 
HETATM   13  C11 UNL     1      21.024   2.659  48.343  1.00  0.00     0.067 A 
HETATM   14  N3  UNL     1      20.221   2.882  47.291  1.00  0.00    -0.260 NA
HETATM   15  C12 UNL     1      18.916   3.132  47.540  1.00  0.00     0.117 A 
HETATM   16  C13 UNL     1      18.391   3.162  48.839  1.00  0.00     0.020 A 
HETATM   17  C14 UNL     1      19.236   2.928  49.932  1.00  0.00     0.016 A 
HETATM   18  C15 UNL     1      20.560   2.677  49.643  1.00  0.00     0.004 A 
HETATM   19  C16 UNL     1      21.305   2.458  50.778  1.00  0.00    -0.005 A 
HETATM   20  C17 UNL     1      24.584   2.839  51.467  1.00  0.00     0.100 A 
HETATM   21  N4  UNL     1      25.743   2.892  52.273  1.00  0.00    -0.374 N 
HETATM   22  C18 UNL     1      25.929   1.914  53.285  1.00  0.00     0.088 A 
HETATM   23  C19 UNL     1      24.932   1.014  53.355  1.00  0.00     0.030 A 
HETATM   24  H14 UNL     1      26.496   3.612  52.182  1.00  0.00     0.164 HD
ENDROOT
TORSDOF 0
ENDMDL
MODEL 7
REMARK VINA RESULT:      -7.4      9.309     12.039
REMARK  0 active torsions:
REMARK  status: ('A' for Active; 'I' for Inactive)
ROOT
HETATM    1  C1  UNL     1      27.297   8.654  46.086  1.00  0.00     0.045 C 
HETATM    2  C2  UNL     1      28.239   8.964  46.953  1.00  0.00    -0.027 C 
HETATM    3  C3  UNL     1      28.615  10.184  47.429  1.00  0.00     0.146 C 
HETATM    4  N1  UNL     1      28.960  11.376  47.927  1.00  0.00    -0.185 NA
HETATM    5  N2  UNL     1      30.265  11.401  48.277  1.00  0.00    -0.285 N 
HETATM    6  C4  UNL     1      30.631  12.462  49.172  1.00  0.00     0.179 C 
HETATM    7  C5  UNL     1      31.211  10.537  47.865  1.00  0.00     0.124 C 
HETATM    8  C6  UNL     1      31.518   9.690  46.853  1.00  0.00    -0.005 A 
HETATM    9  C7  UNL     1      31.083   8.448  46.501  1.00  0.00     0.002 A 
HETATM   10  C8  UNL     1      30.162   7.593  47.071  1.00  0.00    -0.012 A 
HETATM   11  C9  UNL     1      30.724   6.353  47.438  1.00  0.00     0.015 A 
HETATM   12  C10 UNL     1      29.994   5.311  48.038  1.00  0.00     0.033 A 
HETATM   13  C11 UNL     1      28.649   5.527  48.277  1.00  0.00     0.067 A 
HETATM   14  N3  UNL     1      27.898   4.573  48.850  1.00  0.00    -0.260 NA
HETATM   15  C12 UNL     1      26.592   4.845  49.060  1.00  0.00     0.117 A 
HETATM   16  C13 UNL     1      26.012   6.071  48.705  1.00  0.00     0.020 A 
HETATM   17  C14 UNL     1      26.802   7.062  48.107  1.00  0.00     0.016 A 
HETATM   18  C15 UNL     1      28.130   6.751  47.906  1.00  0.00     0.004 A 
HETATM   19  C16 UNL     1      28.820   7.786  47.318  1.00  0.00    -0.005 A 
HETATM   20  C17 UNL     1      31.604   7.885  45.418  1.00  0.00     0.100 A 
HETATM   21  N4  UNL     1      32.583   8.464  44.579  1.00  0.00    -0.374 N 
HETATM   22  C18 UNL     1      33.081   9.756  44.886  1.00  0.00     0.088 A 
HETATM   23  C19 UNL     1      32.535  10.298  45.989  1.00  0.00     0.030 A 
HETATM   24  H14 UNL     1      32.981   8.004  43.729  1.00  0.00     0.164 HD
ENDROOT
TORSDOF 0
ENDMDL
MODEL 8
REMARK VINA RESULT:      -7.2     17.467     21.088
REMARK  0 active torsions:
REMARK  status: ('A' for Active; 'I' for Inactive)
ROOT
HETATM    1  C1  UNL     1      43.969   8.574  57.249  1.00  0.00     0.045 C 
HETATM    2  C2  UNL     1      44.109   8.209  55.991  1.00  0.00    -0.027 C 
HETATM    3  C3  UNL     1      44.239   8.976  54.873  1.00  0.00     0.146 C 
HETATM    4  N1  UNL     1      44.405   9.727  53.779  1.00  0.00    -0.185 NA
HETATM    5  N2  UNL     1      43.921   9.106  52.682  1.00  0.00    -0.285 N 
HETATM    6  C4  UNL     1      44.400   9.626  51.432  1.00  0.00     0.179 C 
HETATM    7  C5  UNL     1      43.056   8.075  52.673  1.00  0.00     0.124 C 
HETATM    8  C6  UNL     1      42.081   7.491  53.410  1.00  0.00    -0.005 A 
HETATM    9  C7  UNL     1      42.087   6.694  54.516  1.00  0.00     0.002 A 
HETATM   10  C8  UNL     1      43.113   6.185  55.284  1.00  0.00    -0.012 A 
HETATM   11  C9  UNL     1      43.114   4.775  55.324  1.00  0.00     0.015 A 
HETATM   12  C10 UNL     1      44.057   4.014  56.038  1.00  0.00     0.033 A 
HETATM   13  C11 UNL     1      45.035   4.699  56.738  1.00  0.00     0.067 A 
HETATM   14  N3  UNL     1      45.966   4.030  57.436  1.00  0.00    -0.260 NA
HETATM   15  C12 UNL     1      46.896   4.756  58.095  1.00  0.00     0.117 A 
HETATM   16  C13 UNL     1      46.915   6.157  58.068  1.00  0.00     0.020 A 
HETATM   17  C14 UNL     1      45.940   6.848  57.336  1.00  0.00     0.016 A 
HETATM   18  C15 UNL     1      45.006   6.078  56.677  1.00  0.00     0.004 A 
HETATM   19  C16 UNL     1      44.096   6.845  55.988  1.00  0.00    -0.005 A 
HETATM   20  C17 UNL     1      40.920   6.286  55.000  1.00  0.00     0.100 A 
HETATM   21  N4  UNL     1      39.651   6.607  54.470  1.00  0.00    -0.374 N 
HETATM   22  C18 UNL     1      39.569   7.433  53.319  1.00  0.00     0.088 A 
HETATM   23  C19 UNL     1      40.767   7.828  52.852  1.00  0.00     0.030 A 
HETATM   24  H14 UNL     1      38.742   6.276  54.866  1.00  0.00     0.164 HD
ENDROOT
TORSDOF 0
ENDMDL
MODEL 9
REMARK VINA RESULT:      -7.1      4.125      7.251
REMARK  0 active torsions:
REMARK  status: ('A' for Active; 'I' for Inactive)
ROOT
HETATM    1  C1  UNL     1      22.039   3.075  47.733  1.00  0.00     0.045 C 
HETATM    2  C2  UNL     1      22.352   4.296  48.115  1.00  0.00    -0.027 C 
HETATM    3  C3  UNL     1      22.586   5.409  47.364  1.00  0.00     0.146 C 
HETATM    4  N1  UNL     1      22.777   6.510  46.631  1.00  0.00    -0.185 NA
HETATM    5  N2  UNL     1      23.630   7.362  47.242  1.00  0.00    -0.285 N 
HETATM    6  C4  UNL     1      23.589   8.712  46.755  1.00  0.00     0.179 C 
HETATM    7  C5  UNL     1      24.482   7.051  48.236  1.00  0.00     0.124 C 
HETATM    8  C6  UNL     1      25.165   6.011  48.773  1.00  0.00    -0.005 A 
HETATM    9  C7  UNL     1      24.810   4.956  49.558  1.00  0.00     0.002 A 
HETATM   10  C8  UNL     1      23.601   4.573  50.103  1.00  0.00    -0.012 A 
HETATM   11  C9  UNL     1      23.637   4.504  51.511  1.00  0.00     0.015 A 
HETATM   12  C10 UNL     1      22.534   4.138  52.303  1.00  0.00     0.033 A 
HETATM   13  C11 UNL     1      21.352   3.830  51.653  1.00  0.00     0.067 A 
HETATM   14  N3  UNL     1      20.263   3.477  52.353  1.00  0.00    -0.260 NA
HETATM   15  C12 UNL     1      19.138   3.193  51.661  1.00  0.00     0.117 A 
HETATM   16  C13 UNL     1      19.079   3.256  50.262  1.00  0.00     0.020 A 
HETATM   17  C14 UNL     1      20.221   3.626  49.538  1.00  0.00     0.016 A 
HETATM   18  C15 UNL     1      21.351   3.909  50.275  1.00  0.00     0.004 A 
HETATM   19  C16 UNL     1      22.414   4.263  49.477  1.00  0.00    -0.005 A 
HETATM   20  C17 UNL     1      25.753   4.093  49.913  1.00  0.00     0.100 A 
HETATM   21  N4  UNL     1      27.115   4.165  49.545  1.00  0.00    -0.374 N 
HETATM   22  C18 UNL     1      27.557   5.237  48.727  1.00  0.00     0.088 A 
HETATM   23  C19 UNL     1      26.578   6.094  48.387  1.00  0.00     0.030 A 
HETATM   24  H14 UNL     1      27.845   3.474  49.834  1.00  0.00     0.164 HD
ENDROOT
TORSDOF 0
ENDMDL
