MODEL 1
REMARK VINA RESULT:      -8.0      0.000      0.000
REMARK  7 active torsions:
REMARK  status: ('A' for Active; 'I' for Inactive)
REMARK    1  A    between atoms: C2_2  and  C3_3 
REMARK    2  A    between atoms: C3_3  and  C4_4 
REMARK    3  A    between atoms: C4_4  and  O1_5 
REMARK    4  A    between atoms: O1_5  and  C5_6 
REMARK    5  A    between atoms: C8_9  and  N1_10 
REMARK    6  A    between atoms: N1_10  and  C9_11 
REMARK    7  A    between atoms: C18_24  and  O2_25 
ROOT
HETATM    1  C5  UNL     1      22.270   0.996  51.642  1.00  0.00     0.103 A 
HETATM    2  C6  UNL     1      23.510   1.501  51.975  1.00  0.00     0.057 A 
HETATM    3  C7  UNL     1      24.252   2.355  51.187  1.00  0.00     0.042 A 
HETATM    4  C8  UNL     1      25.490   2.846  51.541  1.00  0.00     0.142 A 
HETATM    5  N2  UNL     1      26.019   3.654  50.618  1.00  0.00    -0.224 NA
HETATM    6  C15 UNL     1      25.494   4.009  49.459  1.00  0.00     0.236 A 
HETATM    7  N3  UNL     1      24.282   3.510  49.144  1.00  0.00    -0.241 NA
HETATM    8  C16 UNL     1      23.640   2.674  50.004  1.00  0.00     0.075 A 
HETATM    9  C17 UNL     1      22.408   2.205  49.613  1.00  0.00     0.072 A 
HETATM   10  C18 UNL     1      21.706   1.355  50.436  1.00  0.00     0.103 A 
ENDROOT
BRANCH   4  11
HETATM   11  N1  UNL     1      26.063   2.480  52.777  1.00  0.00    -0.340 N 
HETATM   12  H11 UNL     1      25.792   2.945  53.650  1.00  0.00     0.167 HD
BRANCH  11  13
HETATM   13  C9  UNL     1      27.038   1.486  53.029  1.00  0.00     0.035 A 
HETATM   14  C10 UNL     1      28.265   1.771  53.562  1.00  0.00     0.032 A 
HETATM   15  C11 UNL     1      29.244   0.848  53.829  1.00  0.00     0.046 A 
HETATM   16  C12 UNL     1      29.005  -0.495  53.549  1.00  0.00     0.138 A 
HETATM   17  F1  UNL     1      29.921  -1.458  53.787  1.00  0.00    -0.204 F 
HETATM   18  C13 UNL     1      27.800  -0.825  53.020  1.00  0.00     0.074 A 
HETATM   19 CL1  UNL     1      27.443  -2.488  52.649  1.00  0.00    -0.081 Cl
HETATM   20  C14 UNL     1      26.861   0.150  52.775  1.00  0.00     0.056 A 
ENDBRANCH  11  13
ENDBRANCH   4  11
BRANCH   1  21
HETATM   21  O1  UNL     1      21.567   0.150  52.456  1.00  0.00    -0.348 OA
BRANCH  21  22
HETATM   22  C4  UNL     1      20.583   0.451  53.386  1.00  0.00     0.176 C 
BRANCH  22  23
HETATM   23  C3  UNL     1      21.123   0.007  54.743  1.00  0.00     0.026 C 
BRANCH  23  24
HETATM   24  C2  UNL     1      21.814  -1.324  54.506  1.00  0.00    -0.002 C 
HETATM   25  C1  UNL     1      23.057  -1.385  55.358  1.00  0.00     0.005 C 
ENDBRANCH  23  24
ENDBRANCH  22  23
ENDBRANCH  21  22
ENDBRANCH   1  21
BRANCH  10  26
HETATM   26  O2  UNL     1      20.461   0.871  50.061  1.00  0.00    -0.353 OA
HETATM   27  C19 UNL     1      19.595   1.793  49.419  1.00  0.00     0.210 C 
ENDBRANCH  10  26
TORSDOF 7
ENDMDL
MODEL 2
REMARK VINA RESULT:      -7.9      2.365      4.682
REMARK  7 active torsions:
REMARK  status: ('A' for Active; 'I' for Inactive)
REMARK    1  A    between atoms: C2_2  and  C3_3 
REMARK    2  A    between atoms: C3_3  and  C4_4 
REMARK    3  A    between atoms: C4_4  and  O1_5 
REMARK    4  A    between atoms: O1_5  and  C5_6 
REMARK    5  A    between atoms: C8_9  and  N1_10 
REMARK    6  A    between atoms: N1_10  and  C9_11 
REMARK    7  A    between atoms: C18_24  and  O2_25 
ROOT
HETATM    1  C5  UNL     1      20.883   0.510  51.707  1.00  0.00     0.103 A 
HETATM    2  C6  UNL     1      22.194   0.295  52.079  1.00  0.00     0.057 A 
HETATM    3  C7  UNL     1      22.592  -0.321  53.246  1.00  0.00     0.042 A 
HETATM    4  C8  UNL     1      23.910  -0.525  53.596  1.00  0.00     0.142 A 
HETATM    5  N2  UNL     1      24.052  -1.140  54.773  1.00  0.00    -0.224 NA
HETATM    6  C15 UNL     1      23.099  -1.551  55.590  1.00  0.00     0.236 A 
HETATM    7  N3  UNL     1      21.821  -1.335  55.217  1.00  0.00    -0.241 NA
HETATM    8  C16 UNL     1      21.547  -0.716  54.038  1.00  0.00     0.075 A 
HETATM    9  C17 UNL     1      20.220  -0.531  53.725  1.00  0.00     0.072 A 
HETATM   10  C18 UNL     1      19.874   0.089  52.547  1.00  0.00     0.103 A 
ENDROOT
BRANCH   4  11
HETATM   11  N1  UNL     1      24.939  -0.096  52.732  1.00  0.00    -0.340 N 
HETATM   12  H11 UNL     1      24.733   0.279  51.800  1.00  0.00     0.167 HD
BRANCH  11  13
HETATM   13  C9  UNL     1      26.335  -0.100  52.964  1.00  0.00     0.035 A 
HETATM   14  C10 UNL     1      27.094  -1.235  52.888  1.00  0.00     0.032 A 
HETATM   15  C11 UNL     1      28.448  -1.295  53.100  1.00  0.00     0.046 A 
HETATM   16  C12 UNL     1      29.138  -0.128  53.419  1.00  0.00     0.138 A 
HETATM   17  F1  UNL     1      30.470  -0.112  53.640  1.00  0.00    -0.204 F 
HETATM   18  C13 UNL     1      28.424   1.023  53.506  1.00  0.00     0.074 A 
HETATM   19 CL1  UNL     1      29.231   2.514  53.901  1.00  0.00    -0.081 Cl
HETATM   20  C14 UNL     1      27.067   1.015  53.282  1.00  0.00     0.056 A 
ENDBRANCH  11  13
ENDBRANCH   4  11
BRANCH   1  21
HETATM   21  O1  UNL     1      20.532   1.127  50.537  1.00  0.00    -0.348 OA
BRANCH  21  22
HETATM   22  C4  UNL     1      21.246   2.051  49.789  1.00  0.00     0.176 C 
BRANCH  22  23
HETATM   23  C3  UNL     1      21.572   1.370  48.462  1.00  0.00     0.026 C 
BRANCH  23  24
HETATM   24  C2  UNL     1      22.565   2.277  47.757  1.00  0.00    -0.002 C 
HETATM   25  C1  UNL     1      23.334   3.056  48.796  1.00  0.00     0.005 C 
ENDBRANCH  23  24
ENDBRANCH  22  23
ENDBRANCH  21  22
ENDBRANCH   1  21
BRANCH  10  26
HETATM   26  O2  UNL     1      18.542   0.285  52.214  1.00  0.00    -0.353 OA
HETATM   27  C19 UNL     1      17.717  -0.869  52.211  1.00  0.00     0.210 C 
ENDBRANCH  10  26
TORSDOF 7
ENDMDL
MODEL 3
REMARK VINA RESULT:      -7.9      2.124      4.718
REMARK  7 active torsions:
REMARK  status: ('A' for Active; 'I' for Inactive)
REMARK    1  A    between atoms: C2_2  and  C3_3 
REMARK    2  A    between atoms: C3_3  and  C4_4 
REMARK    3  A    between atoms: C4_4  and  O1_5 
REMARK    4  A    between atoms: O1_5  and  C5_6 
REMARK    5  A    between atoms: C8_9  and  N1_10 
REMARK    6  A    between atoms: N1_10  and  C9_11 
REMARK    7  A    between atoms: C18_24  and  O2_25 
ROOT
HETATM    1  C5  UNL     1      23.899   3.111  50.119  1.00  0.00     0.103 A 
HETATM    2  C6  UNL     1      24.425   2.554  51.266  1.00  0.00     0.057 A 
HETATM    3  C7  UNL     1      23.851   1.522  51.977  1.00  0.00     0.042 A 
HETATM    4  C8  UNL     1      24.397   0.982  53.122  1.00  0.00     0.142 A 
HETATM    5  N2  UNL     1      23.663  -0.007  53.638  1.00  0.00    -0.224 NA
HETATM    6  C15 UNL     1      22.523  -0.493  53.178  1.00  0.00     0.236 A 
HETATM    7  N3  UNL     1      22.018   0.059  52.056  1.00  0.00    -0.241 NA
HETATM    8  C16 UNL     1      22.675   1.076  51.436  1.00  0.00     0.075 A 
HETATM    9  C17 UNL     1      22.098   1.588  50.298  1.00  0.00     0.072 A 
HETATM   10  C18 UNL     1      22.710   2.618  49.623  1.00  0.00     0.103 A 
ENDROOT
BRANCH   4  11
HETATM   11  N1  UNL     1      25.614   1.486  53.624  1.00  0.00    -0.340 N 
HETATM   12  H11 UNL     1      25.673   2.418  54.049  1.00  0.00     0.167 HD
BRANCH  11  13
HETATM   13  C9  UNL     1      26.883   0.859  53.636  1.00  0.00     0.035 A 
HETATM   14  C10 UNL     1      28.031   1.518  53.980  1.00  0.00     0.032 A 
HETATM   15  C11 UNL     1      29.283   0.959  54.011  1.00  0.00     0.046 A 
HETATM   16  C12 UNL     1      29.436  -0.384  53.674  1.00  0.00     0.138 A 
HETATM   17  F1  UNL     1      30.637  -1.001  53.683  1.00  0.00    -0.204 F 
HETATM   18  C13 UNL     1      28.322  -1.078  53.326  1.00  0.00     0.074 A 
HETATM   19 CL1  UNL     1      28.450  -2.759  52.895  1.00  0.00    -0.081 Cl
HETATM   20  C14 UNL     1      27.095  -0.457  53.315  1.00  0.00     0.056 A 
ENDBRANCH  11  13
ENDBRANCH   4  11
BRANCH   1  21
HETATM   21  O1  UNL     1      24.503   4.136  49.444  1.00  0.00    -0.348 OA
BRANCH  21  22
HETATM   22  C4  UNL     1      25.533   4.967  49.858  1.00  0.00     0.176 C 
BRANCH  22  23
HETATM   23  C3  UNL     1      26.787   4.496  49.124  1.00  0.00     0.026 C 
BRANCH  23  24
HETATM   24  C2  UNL     1      27.440   5.747  48.563  1.00  0.00    -0.002 C 
HETATM   25  C1  UNL     1      28.881   5.438  48.237  1.00  0.00     0.005 C 
ENDBRANCH  23  24
ENDBRANCH  22  23
ENDBRANCH  21  22
ENDBRANCH   1  21
BRANCH  10  26
HETATM   26  O2  UNL     1      22.145   3.148  48.472  1.00  0.00    -0.353 OA
HETATM   27  C19 UNL     1      22.316   2.395  47.282  1.00  0.00     0.210 C 
ENDBRANCH  10  26
TORSDOF 7
ENDMDL
MODEL 4
REMARK VINA RESULT:      -7.8      3.874      7.271
REMARK  7 active torsions:
REMARK  status: ('A' for Active; 'I' for Inactive)
REMARK    1  A    between atoms: C2_2  and  C3_3 
REMARK    2  A    between atoms: C3_3  and  C4_4 
REMARK    3  A    between atoms: C4_4  and  O1_5 
REMARK    4  A    between atoms: O1_5  and  C5_6 
REMARK    5  A    between atoms: C8_9  and  N1_10 
REMARK    6  A    between atoms: N1_10  and  C9_11 
REMARK    7  A    between atoms: C18_24  and  O2_25 
ROOT
HETATM    1  C5  UNL     1      25.739   0.890  52.314  1.00  0.00     0.103 A 
HETATM    2  C6  UNL     1      24.396   1.204  52.312  1.00  0.00     0.057 A 
HETATM    3  C7  UNL     1      23.441   0.590  53.094  1.00  0.00     0.042 A 
HETATM    4  C8  UNL     1      22.103   0.921  53.075  1.00  0.00     0.142 A 
HETATM    5  N2  UNL     1      21.369   0.191  53.918  1.00  0.00    -0.224 NA
HETATM    6  C15 UNL     1      21.782  -0.769  54.726  1.00  0.00     0.236 A 
HETATM    7  N3  UNL     1      23.097  -1.067  54.720  1.00  0.00    -0.241 NA
HETATM    8  C16 UNL     1      23.949  -0.392  53.903  1.00  0.00     0.075 A 
HETATM    9  C17 UNL     1      25.275  -0.752  53.952  1.00  0.00     0.072 A 
HETATM   10  C18 UNL     1      26.190  -0.109  53.151  1.00  0.00     0.103 A 
ENDROOT
BRANCH   4  11
HETATM   11  N1  UNL     1      21.647   1.946  52.220  1.00  0.00    -0.340 N 
HETATM   12  H11 UNL     1      21.102   2.738  52.577  1.00  0.00     0.167 HD
BRANCH  11  13
HETATM   13  C9  UNL     1      21.835   2.067  50.822  1.00  0.00     0.035 A 
HETATM   14  C10 UNL     1      21.537   1.062  49.945  1.00  0.00     0.032 A 
HETATM   15  C11 UNL     1      21.696   1.128  48.584  1.00  0.00     0.046 A 
HETATM   16  C12 UNL     1      22.198   2.295  48.015  1.00  0.00     0.138 A 
HETATM   17  F1  UNL     1      22.381   2.432  46.684  1.00  0.00    -0.204 F 
HETATM   18  C13 UNL     1      22.508   3.321  48.849  1.00  0.00     0.074 A 
HETATM   19 CL1  UNL     1      23.139   4.806  48.196  1.00  0.00    -0.081 Cl
HETATM   20  C14 UNL     1      22.325   3.190  50.205  1.00  0.00     0.056 A 
ENDBRANCH  11  13
ENDBRANCH   4  11
BRANCH   1  21
HETATM   21  O1  UNL     1      26.654   1.526  51.519  1.00  0.00    -0.348 OA
BRANCH  21  22
HETATM   22  C4  UNL     1      26.748   2.873  51.202  1.00  0.00     0.176 C 
BRANCH  22  23
HETATM   23  C3  UNL     1      26.455   2.985  49.708  1.00  0.00     0.026 C 
BRANCH  23  24
HETATM   24  C2  UNL     1      26.412   4.471  49.398  1.00  0.00    -0.002 C 
HETATM   25  C1  UNL     1      27.648   4.839  48.614  1.00  0.00     0.005 C 
ENDBRANCH  23  24
ENDBRANCH  22  23
ENDBRANCH  21  22
ENDBRANCH   1  21
BRANCH  10  26
HETATM   26  O2  UNL     1      27.532  -0.457  53.185  1.00  0.00    -0.353 OA
HETATM   27  C19 UNL     1      28.262  -0.039  54.327  1.00  0.00     0.210 C 
ENDBRANCH  10  26
TORSDOF 7
ENDMDL
MODEL 5
REMARK VINA RESULT:      -7.5      2.323      4.440
REMARK  7 active torsions:
REMARK  status: ('A' for Active; 'I' for Inactive)
REMARK    1  A    between atoms: C2_2  and  C3_3 
REMARK    2  A    between atoms: C3_3  and  C4_4 
REMARK    3  A    between atoms: C4_4  and  O1_5 
REMARK    4  A    between atoms: O1_5  and  C5_6 
REMARK    5  A    between atoms: C8_9  and  N1_10 
REMARK    6  A    between atoms: N1_10  and  C9_11 
REMARK    7  A    between atoms: C18_24  and  O2_25 
ROOT
HETATM    1  C5  UNL     1      22.206   3.040  51.426  1.00  0.00     0.103 A 
HETATM    2  C6  UNL     1      23.144   2.082  51.747  1.00  0.00     0.057 A 
HETATM    3  C7  UNL     1      22.949   1.058  52.649  1.00  0.00     0.042 A 
HETATM    4  C8  UNL     1      23.903   0.111  52.954  1.00  0.00     0.142 A 
HETATM    5  N2  UNL     1      23.488  -0.782  53.856  1.00  0.00    -0.224 NA
HETATM    6  C15 UNL     1      22.311  -0.841  54.453  1.00  0.00     0.236 A 
HETATM    7  N3  UNL     1      21.401   0.101  54.131  1.00  0.00    -0.241 NA
HETATM    8  C16 UNL     1      21.706   1.066  53.223  1.00  0.00     0.075 A 
HETATM    9  C17 UNL     1      20.727   1.993  52.946  1.00  0.00     0.072 A 
HETATM   10  C18 UNL     1      20.971   2.996  52.037  1.00  0.00     0.103 A 
ENDROOT
BRANCH   4  11
HETATM   11  N1  UNL     1      25.164   0.158  52.324  1.00  0.00    -0.340 N 
HETATM   12  H11 UNL     1      25.289  -0.153  51.354  1.00  0.00     0.167 HD
BRANCH  11  13
HETATM   13  C9  UNL     1      26.395   0.603  52.861  1.00  0.00     0.035 A 
HETATM   14  C10 UNL     1      26.625   1.907  53.202  1.00  0.00     0.032 A 
HETATM   15  C11 UNL     1      27.796   2.392  53.728  1.00  0.00     0.046 A 
HETATM   16  C12 UNL     1      28.856   1.515  53.947  1.00  0.00     0.138 A 
HETATM   17  F1  UNL     1      30.036   1.920  54.462  1.00  0.00    -0.204 F 
HETATM   18  C13 UNL     1      28.672   0.209  53.623  1.00  0.00     0.074 A 
HETATM   19 CL1  UNL     1      29.961  -0.933  53.873  1.00  0.00    -0.081 Cl
HETATM   20  C14 UNL     1      27.473  -0.211  53.098  1.00  0.00     0.056 A 
ENDBRANCH  11  13
ENDBRANCH   4  11
BRANCH   1  21
HETATM   21  O1  UNL     1      22.442   4.041  50.523  1.00  0.00    -0.348 OA
BRANCH  21  22
HETATM   22  C4  UNL     1      23.460   4.983  50.510  1.00  0.00     0.176 C 
BRANCH  22  23
HETATM   23  C3  UNL     1      24.395   4.590  49.368  1.00  0.00     0.026 C 
BRANCH  23  24
HETATM   24  C2  UNL     1      25.782   4.487  49.977  1.00  0.00    -0.002 C 
HETATM   25  C1  UNL     1      26.361   3.135  49.640  1.00  0.00     0.005 C 
ENDBRANCH  23  24
ENDBRANCH  22  23
ENDBRANCH  21  22
ENDBRANCH   1  21
BRANCH  10  26
HETATM   26  O2  UNL     1      19.997   3.939  51.744  1.00  0.00    -0.353 OA
HETATM   27  C19 UNL     1      18.873   3.478  51.012  1.00  0.00     0.210 C 
ENDBRANCH  10  26
TORSDOF 7
ENDMDL
MODEL 6
REMARK VINA RESULT:      -7.5      4.162      7.528
REMARK  7 active torsions:
REMARK  status: ('A' for Active; 'I' for Inactive)
REMARK    1  A    between atoms: C2_2  and  C3_3 
REMARK    2  A    between atoms: C3_3  and  C4_4 
REMARK    3  A    between atoms: C4_4  and  O1_5 
REMARK    4  A    between atoms: O1_5  and  C5_6 
REMARK    5  A    between atoms: C8_9  and  N1_10 
REMARK    6  A    between atoms: N1_10  and  C9_11 
REMARK    7  A    between atoms: C18_24  and  O2_25 
ROOT
HETATM    1  C5  UNL     1      26.334   0.900  52.374  1.00  0.00     0.103 A 
HETATM    2  C6  UNL     1      25.019   0.486  52.428  1.00  0.00     0.057 A 
HETATM    3  C7  UNL     1      24.451  -0.200  53.480  1.00  0.00     0.042 A 
HETATM    4  C8  UNL     1      23.133  -0.605  53.511  1.00  0.00     0.142 A 
HETATM    5  N2  UNL     1      22.808  -1.254  54.631  1.00  0.00    -0.224 NA
HETATM    6  C15 UNL     1      23.590  -1.531  55.659  1.00  0.00     0.236 A 
HETATM    7  N3  UNL     1      24.873  -1.122  55.596  1.00  0.00    -0.241 NA
HETATM    8  C16 UNL     1      25.325  -0.449  54.504  1.00  0.00     0.075 A 
HETATM    9  C17 UNL     1      26.645  -0.064  54.512  1.00  0.00     0.072 A 
HETATM   10  C18 UNL     1      27.166   0.620  53.438  1.00  0.00     0.103 A 
ENDROOT
BRANCH   4  11
HETATM   11  N1  UNL     1      22.285  -0.313  52.422  1.00  0.00    -0.340 N 
HETATM   12  H11 UNL     1      22.222  -0.938  51.611  1.00  0.00     0.167 HD
BRANCH  11  13
HETATM   13  C9  UNL     1      21.431   0.803  52.252  1.00  0.00     0.035 A 
HETATM   14  C10 UNL     1      20.076   0.683  52.108  1.00  0.00     0.032 A 
HETATM   15  C11 UNL     1      19.204   1.728  51.943  1.00  0.00     0.046 A 
HETATM   16  C12 UNL     1      19.700   3.029  51.917  1.00  0.00     0.138 A 
HETATM   17  F1  UNL     1      18.901   4.107  51.760  1.00  0.00    -0.204 F 
HETATM   18  C13 UNL     1      21.040   3.196  52.058  1.00  0.00     0.074 A 
HETATM   19 CL1  UNL     1      21.719   4.799  52.034  1.00  0.00    -0.081 Cl
HETATM   20  C14 UNL     1      21.861   2.104  52.219  1.00  0.00     0.056 A 
ENDBRANCH  11  13
ENDBRANCH   4  11
BRANCH   1  21
HETATM   21  O1  UNL     1      26.858   1.580  51.308  1.00  0.00    -0.348 OA
BRANCH  21  22
HETATM   22  C4  UNL     1      26.751   2.927  50.994  1.00  0.00     0.176 C 
BRANCH  22  23
HETATM   23  C3  UNL     1      26.014   2.999  49.658  1.00  0.00     0.026 C 
BRANCH  23  24
HETATM   24  C2  UNL     1      24.684   3.672  49.948  1.00  0.00    -0.002 C 
HETATM   25  C1  UNL     1      23.617   3.022  49.102  1.00  0.00     0.005 C 
ENDBRANCH  23  24
ENDBRANCH  22  23
ENDBRANCH  21  22
ENDBRANCH   1  21
BRANCH  10  26
HETATM   26  O2  UNL     1      28.494   1.017  53.426  1.00  0.00    -0.353 OA
HETATM   27  C19 UNL     1      29.457   0.004  53.669  1.00  0.00     0.210 C 
ENDBRANCH  10  26
TORSDOF 7
ENDMDL
MODEL 7
REMARK VINA RESULT:      -7.5      3.679      5.986
REMARK  7 active torsions:
REMARK  status: ('A' for Active; 'I' for Inactive)
REMARK    1  A    between atoms: C2_2  and  C3_3 
REMARK    2  A    between atoms: C3_3  and  C4_4 
REMARK    3  A    between atoms: C4_4  and  O1_5 
REMARK    4  A    between atoms: O1_5  and  C5_6 
REMARK    5  A    between atoms: C8_9  and  N1_10 
REMARK    6  A    between atoms: N1_10  and  C9_11 
REMARK    7  A    between atoms: C18_24  and  O2_25 
ROOT
HETATM    1  C5  UNL     1      24.783   0.334  53.153  1.00  0.00     0.103 A 
HETATM    2  C6  UNL     1      25.006   1.247  52.144  1.00  0.00     0.057 A 
HETATM    3  C7  UNL     1      24.019   1.851  51.394  1.00  0.00     0.042 A 
HETATM    4  C8  UNL     1      24.266   2.761  50.389  1.00  0.00     0.142 A 
HETATM    5  N2  UNL     1      23.154   3.210  49.801  1.00  0.00    -0.224 NA
HETATM    6  C15 UNL     1      21.905   2.882  50.078  1.00  0.00     0.236 A 
HETATM    7  N3  UNL     1      21.699   1.989  51.067  1.00  0.00    -0.241 NA
HETATM    8  C16 UNL     1      22.754   1.458  51.742  1.00  0.00     0.075 A 
HETATM    9  C17 UNL     1      22.465   0.553  52.736  1.00  0.00     0.072 A 
HETATM   10  C18 UNL     1      23.486  -0.021  53.457  1.00  0.00     0.103 A 
ENDROOT
BRANCH   4  11
HETATM   11  N1  UNL     1      25.594   3.125  50.084  1.00  0.00    -0.340 N 
HETATM   12  H11 UNL     1      26.363   2.448  50.150  1.00  0.00     0.167 HD
BRANCH  11  13
HETATM   13  C9  UNL     1      26.082   4.386  49.665  1.00  0.00     0.035 A 
HETATM   14  C10 UNL     1      27.202   4.526  48.892  1.00  0.00     0.032 A 
HETATM   15  C11 UNL     1      27.716   5.721  48.457  1.00  0.00     0.046 A 
HETATM   16  C12 UNL     1      27.073   6.905  48.808  1.00  0.00     0.138 A 
HETATM   17  F1  UNL     1      27.521   8.117  48.415  1.00  0.00    -0.204 F 
HETATM   18  C13 UNL     1      25.956   6.813  49.574  1.00  0.00     0.074 A 
HETATM   19 CL1  UNL     1      25.109   8.259  50.045  1.00  0.00    -0.081 Cl
HETATM   20  C14 UNL     1      25.493   5.583  49.978  1.00  0.00     0.056 A 
ENDBRANCH  11  13
ENDBRANCH   4  11
BRANCH   1  21
HETATM   21  O1  UNL     1      25.794  -0.241  53.874  1.00  0.00    -0.348 OA
BRANCH  21  22
HETATM   22  C4  UNL     1      27.074  -0.583  53.462  1.00  0.00     0.176 C 
BRANCH  22  23
HETATM   23  C3  UNL     1      28.036   0.208  54.347  1.00  0.00     0.026 C 
BRANCH  23  24
HETATM   24  C2  UNL     1      29.434  -0.188  53.907  1.00  0.00    -0.002 C 
HETATM   25  C1  UNL     1      29.390  -1.592  53.357  1.00  0.00     0.005 C 
ENDBRANCH  23  24
ENDBRANCH  22  23
ENDBRANCH  21  22
ENDBRANCH   1  21
BRANCH  10  26
HETATM   26  O2  UNL     1      23.216  -0.936  54.465  1.00  0.00    -0.353 OA
HETATM   27  C19 UNL     1      21.866  -1.354  54.591  1.00  0.00     0.210 C 
ENDBRANCH  10  26
TORSDOF 7
ENDMDL
MODEL 8
REMARK VINA RESULT:      -7.3      3.480      5.632
REMARK  7 active torsions:
REMARK  status: ('A' for Active; 'I' for Inactive)
REMARK    1  A    between atoms: C2_2  and  C3_3 
REMARK    2  A    between atoms: C3_3  and  C4_4 
REMARK    3  A    between atoms: C4_4  and  O1_5 
REMARK    4  A    between atoms: O1_5  and  C5_6 
REMARK    5  A    between atoms: C8_9  and  N1_10 
REMARK    6  A    between atoms: N1_10  and  C9_11 
REMARK    7  A    between atoms: C18_24  and  O2_25 
ROOT
HETATM    1  C5  UNL     1      23.703   5.312  50.807  1.00  0.00     0.103 A 
HETATM    2  C6  UNL     1      23.735   3.972  51.132  1.00  0.00     0.057 A 
HETATM    3  C7  UNL     1      22.686   3.269  51.685  1.00  0.00     0.042 A 
HETATM    4  C8  UNL     1      22.742   1.929  52.002  1.00  0.00     0.142 A 
HETATM    5  N2  UNL     1      21.605   1.465  52.527  1.00  0.00    -0.224 NA
HETATM    6  C15 UNL     1      20.490   2.134  52.759  1.00  0.00     0.236 A 
HETATM    7  N3  UNL     1      20.470   3.444  52.437  1.00  0.00    -0.241 NA
HETATM    8  C16 UNL     1      21.569   4.033  51.894  1.00  0.00     0.075 A 
HETATM    9  C17 UNL     1      21.473   5.371  51.592  1.00  0.00     0.072 A 
HETATM   10  C18 UNL     1      22.548   6.028  51.041  1.00  0.00     0.103 A 
ENDROOT
BRANCH   4  11
HETATM   11  N1  UNL     1      23.924   1.199  51.757  1.00  0.00    -0.340 N 
HETATM   12  H11 UNL     1      24.112   0.776  50.842  1.00  0.00     0.167 HD
BRANCH  11  13
HETATM   13  C9  UNL     1      24.988   0.932  52.651  1.00  0.00     0.035 A 
HETATM   14  C10 UNL     1      24.981  -0.129  53.514  1.00  0.00     0.032 A 
HETATM   15  C11 UNL     1      25.985  -0.435  54.397  1.00  0.00     0.046 A 
HETATM   16  C12 UNL     1      27.117   0.375  54.446  1.00  0.00     0.138 A 
HETATM   17  F1  UNL     1      28.144   0.134  55.289  1.00  0.00    -0.204 F 
HETATM   18  C13 UNL     1      27.167   1.440  53.606  1.00  0.00     0.074 A 
HETATM   19 CL1  UNL     1      28.557   2.489  53.622  1.00  0.00    -0.081 Cl
HETATM   20  C14 UNL     1      26.126   1.692  52.744  1.00  0.00     0.056 A 
ENDBRANCH  11  13
ENDBRANCH   4  11
BRANCH   1  21
HETATM   21  O1  UNL     1      24.770   5.972  50.259  1.00  0.00    -0.348 OA
BRANCH  21  22
HETATM   22  C4  UNL     1      25.218   5.968  48.946  1.00  0.00     0.176 C 
BRANCH  22  23
HETATM   23  C3  UNL     1      26.551   5.221  48.950  1.00  0.00     0.026 C 
BRANCH  23  24
HETATM   24  C2  UNL     1      27.565   6.170  48.336  1.00  0.00    -0.002 C 
HETATM   25  C1  UNL     1      28.906   5.480  48.286  1.00  0.00     0.005 C 
ENDBRANCH  23  24
ENDBRANCH  22  23
ENDBRANCH  21  22
ENDBRANCH   1  21
BRANCH  10  26
HETATM   26  O2  UNL     1      22.472   7.378  50.730  1.00  0.00    -0.353 OA
HETATM   27  C19 UNL     1      21.202   7.858  50.319  1.00  0.00     0.210 C 
ENDBRANCH  10  26
TORSDOF 7
ENDMDL
MODEL 9
REMARK VINA RESULT:      -7.2      4.496      7.758
REMARK  7 active torsions:
REMARK  status: ('A' for Active; 'I' for Inactive)
REMARK    1  A    between atoms: C2_2  and  C3_3 
REMARK    2  A    between atoms: C3_3  and  C4_4 
REMARK    3  A    between atoms: C4_4  and  O1_5 
REMARK    4  A    between atoms: O1_5  and  C5_6 
REMARK    5  A    between atoms: C8_9  and  N1_10 
REMARK    6  A    between atoms: N1_10  and  C9_11 
REMARK    7  A    between atoms: C18_24  and  O2_25 
ROOT
HETATM    1  C5  UNL     1      24.031   1.492  51.770  1.00  0.00     0.103 A 
HETATM    2  C6  UNL     1      22.887   1.123  52.447  1.00  0.00     0.057 A 
HETATM    3  C7  UNL     1      22.844   0.230  53.496  1.00  0.00     0.042 A 
HETATM    4  C8  UNL     1      21.688  -0.124  54.158  1.00  0.00     0.142 A 
HETATM    5  N2  UNL     1      21.892  -1.006  55.139  1.00  0.00    -0.224 NA
HETATM    6  C15 UNL     1      23.038  -1.545  55.515  1.00  0.00     0.236 A 
HETATM    7  N3  UNL     1      24.150  -1.177  54.847  1.00  0.00    -0.241 NA
HETATM    8  C16 UNL     1      24.071  -0.283  53.825  1.00  0.00     0.075 A 
HETATM    9  C17 UNL     1      25.246   0.042  53.190  1.00  0.00     0.072 A 
HETATM   10  C18 UNL     1      25.237   0.941  52.148  1.00  0.00     0.103 A 
ENDROOT
BRANCH   4  11
HETATM   11  N1  UNL     1      20.457   0.445  53.770  1.00  0.00    -0.340 N 
HETATM   12  H11 UNL     1      20.292   1.456  53.830  1.00  0.00     0.167 HD
BRANCH  11  13
HETATM   13  C9  UNL     1      19.309  -0.212  53.268  1.00  0.00     0.035 A 
HETATM   14  C10 UNL     1      18.536   0.309  52.267  1.00  0.00     0.032 A 
HETATM   15  C11 UNL     1      17.417  -0.285  51.742  1.00  0.00     0.046 A 
HETATM   16  C12 UNL     1      17.006  -1.519  52.241  1.00  0.00     0.138 A 
HETATM   17  F1  UNL     1      15.916  -2.164  51.772  1.00  0.00    -0.204 F 
HETATM   18  C13 UNL     1      17.744  -2.075  53.235  1.00  0.00     0.074 A 
HETATM   19 CL1  UNL     1      17.280  -3.616  53.899  1.00  0.00    -0.081 Cl
HETATM   20  C14 UNL     1      18.856  -1.425  53.718  1.00  0.00     0.056 A 
ENDBRANCH  11  13
ENDBRANCH   4  11
BRANCH   1  21
HETATM   21  O1  UNL     1      24.027   2.384  50.733  1.00  0.00    -0.348 OA
BRANCH  21  22
HETATM   22  C4  UNL     1      22.947   2.930  50.054  1.00  0.00     0.176 C 
BRANCH  22  23
HETATM   23  C3  UNL     1      23.262   2.793  48.565  1.00  0.00     0.026 C 
BRANCH  23  24
HETATM   24  C2  UNL     1      22.023   2.190  47.928  1.00  0.00    -0.002 C 
HETATM   25  C1  UNL     1      21.425   1.188  48.884  1.00  0.00     0.005 C 
ENDBRANCH  23  24
ENDBRANCH  22  23
ENDBRANCH  21  22
ENDBRANCH   1  21
BRANCH  10  26
HETATM   26  O2  UNL     1      26.411   1.282  51.495  1.00  0.00    -0.353 OA
HETATM   27  C19 UNL     1      27.335   2.068  52.230  1.00  0.00     0.210 C 
ENDBRANCH  10  26
TORSDOF 7
ENDMDL
