MODEL 1
REMARK VINA RESULT:      -7.5      0.000      0.000
REMARK  5 active torsions:
REMARK  status: ('A' for Active; 'I' for Inactive)
REMARK    1  A    between atoms: C2_3  and  C3_4 
REMARK    2  A    between atoms: C3_4  and  N1_5 
REMARK    3  A    between atoms: N1_5  and  C4_6 
REMARK    4  A    between atoms: C7_10  and  C8_11 
REMARK    5  A    between atoms: C8_11  and  C9_12 
ROOT
HETATM    1  C4  UNL     1      23.816  -0.427  53.856  1.00  0.00     0.141 A 
HETATM    2  C5  UNL     1      23.293  -1.080  54.947  1.00  0.00     0.166 A 
HETATM    3  N2  UNL     1      21.969  -1.361  55.064  1.00  0.00    -0.267 NA
HETATM    4  C6  UNL     1      21.116  -0.985  54.072  1.00  0.00     0.143 A 
HETATM    5  C7  UNL     1      21.650  -0.333  52.987  1.00  0.00     0.058 A 
HETATM    6  N4  UNL     1      22.959  -0.067  52.892  1.00  0.00    -0.233 NA
ENDROOT
BRANCH   1   7
HETATM    7  N1  UNL     1      25.179  -0.159  53.785  1.00  0.00    -0.370 N 
HETATM    8  H3  UNL     1      25.709  -0.435  54.667  1.00  0.00     0.161 HD
BRANCH   7   9
HETATM    9  C3  UNL     1      26.067   0.401  52.819  1.00  0.00     0.157 C 
BRANCH   9  10
HETATM   10  C2  UNL     1      27.447  -0.155  53.074  1.00  0.00    -0.040 A 
HETATM   11  C1  UNL     1      28.425   0.674  53.400  1.00  0.00     0.037 A 
HETATM   12 CL1  UNL     1      28.313   2.392  53.579  1.00  0.00    -0.084 Cl
HETATM   13  C15 UNL     1      29.710   0.030  53.618  1.00  0.00     0.020 A 
HETATM   14  C14 UNL     1      29.658  -1.276  53.447  1.00  0.00    -0.025 A 
HETATM   15  C13 UNL     1      28.644  -2.291  53.090  1.00  0.00     0.031 A 
HETATM   16  C12 UNL     1      27.321  -1.611  52.872  1.00  0.00     0.041 A 
ENDBRANCH   9  10
ENDBRANCH   7   9
ENDBRANCH   1   7
BRANCH   5  17
HETATM   17  C8  UNL     1      20.756   0.092  51.887  1.00  0.00     0.102 C 
BRANCH  17  18
HETATM   18  C9  UNL     1      20.228   1.473  52.066  1.00  0.00    -0.017 A 
HETATM   19  C10 UNL     1      20.752   2.636  52.492  1.00  0.00     0.125 A 
HETATM   20  N3  UNL     1      19.512   3.330  52.304  1.00  0.00    -0.272 NA
HETATM   21  C11 UNL     1      18.993   2.225  51.893  1.00  0.00     0.125 A 
ENDBRANCH  17  18
ENDBRANCH   5  17
TORSDOF 5
ENDMDL
MODEL 2
REMARK VINA RESULT:      -7.5      1.991      3.784
REMARK  5 active torsions:
REMARK  status: ('A' for Active; 'I' for Inactive)
REMARK    1  A    between atoms: C2_3  and  C3_4 
REMARK    2  A    between atoms: C3_4  and  N1_5 
REMARK    3  A    between atoms: N1_5  and  C4_6 
REMARK    4  A    between atoms: C7_10  and  C8_11 
REMARK    5  A    between atoms: C8_11  and  C9_12 
ROOT
HETATM    1  C4  UNL     1      24.375   2.670  52.356  1.00  0.00     0.141 A 
HETATM    2  C5  UNL     1      23.534   3.757  52.342  1.00  0.00     0.166 A 
HETATM    3  N2  UNL     1      22.182   3.632  52.292  1.00  0.00    -0.267 NA
HETATM    4  C6  UNL     1      21.626   2.390  52.251  1.00  0.00     0.143 A 
HETATM    5  C7  UNL     1      22.477   1.312  52.266  1.00  0.00     0.058 A 
HETATM    6  N4  UNL     1      23.807   1.458  52.317  1.00  0.00    -0.233 NA
ENDROOT
BRANCH   1   7
HETATM    7  N1  UNL     1      25.754   2.850  52.405  1.00  0.00    -0.370 N 
HETATM    8  H3  UNL     1      26.057   3.604  53.093  1.00  0.00     0.161 HD
BRANCH   7   9
HETATM    9  C3  UNL     1      26.889   2.275  51.757  1.00  0.00     0.157 C 
BRANCH   9  10
HETATM   10  C2  UNL     1      27.678   1.509  52.790  1.00  0.00    -0.040 A 
HETATM   11  C1  UNL     1      27.503   0.202  52.894  1.00  0.00     0.037 A 
HETATM   12 CL1  UNL     1      26.437  -0.781  51.949  1.00  0.00    -0.084 Cl
HETATM   13  C15 UNL     1      28.311  -0.432  53.924  1.00  0.00     0.020 A 
HETATM   14  C14 UNL     1      29.075   0.427  54.569  1.00  0.00    -0.025 A 
HETATM   15  C13 UNL     1      29.348   1.880  54.542  1.00  0.00     0.031 A 
HETATM   16  C12 UNL     1      28.510   2.520  53.471  1.00  0.00     0.041 A 
ENDBRANCH   9  10
ENDBRANCH   7   9
ENDBRANCH   1   7
BRANCH   5  17
HETATM   17  C8  UNL     1      21.913  -0.056  52.223  1.00  0.00     0.102 C 
BRANCH  17  18
HETATM   18  C9  UNL     1      21.988  -0.758  53.534  1.00  0.00    -0.017 A 
HETATM   19  C10 UNL     1      21.117  -1.459  54.280  1.00  0.00     0.125 A 
HETATM   20  N3  UNL     1      22.096  -1.703  55.299  1.00  0.00    -0.272 NA
HETATM   21  C11 UNL     1      22.945  -1.033  54.597  1.00  0.00     0.125 A 
ENDBRANCH  17  18
ENDBRANCH   5  17
TORSDOF 5
ENDMDL
MODEL 3
REMARK VINA RESULT:      -7.3      1.776      3.395
REMARK  5 active torsions:
REMARK  status: ('A' for Active; 'I' for Inactive)
REMARK    1  A    between atoms: C2_3  and  C3_4 
REMARK    2  A    between atoms: C3_4  and  N1_5 
REMARK    3  A    between atoms: N1_5  and  C4_6 
REMARK    4  A    between atoms: C7_10  and  C8_11 
REMARK    5  A    between atoms: C8_11  and  C9_12 
ROOT
HETATM    1  C4  UNL     1      24.231   2.954  52.466  1.00  0.00     0.141 A 
HETATM    2  C5  UNL     1      23.658   4.202  52.394  1.00  0.00     0.166 A 
HETATM    3  N2  UNL     1      22.315   4.382  52.285  1.00  0.00    -0.267 NA
HETATM    4  C6  UNL     1      21.495   3.297  52.242  1.00  0.00     0.143 A 
HETATM    5  C7  UNL     1      22.080   2.055  52.314  1.00  0.00     0.058 A 
HETATM    6  N4  UNL     1      23.406   1.900  52.422  1.00  0.00    -0.233 NA
ENDROOT
BRANCH   1   7
HETATM    7  N1  UNL     1      25.612   2.821  52.573  1.00  0.00    -0.370 N 
HETATM    8  H3  UNL     1      26.000   3.187  53.495  1.00  0.00     0.161 HD
BRANCH   7   9
HETATM    9  C3  UNL     1      26.661   2.311  51.752  1.00  0.00     0.157 C 
BRANCH   9  10
HETATM   10  C2  UNL     1      27.215   1.073  52.414  1.00  0.00    -0.040 A 
HETATM   11  C1  UNL     1      28.227   1.192  53.257  1.00  0.00     0.037 A 
HETATM   12 CL1  UNL     1      29.030   2.656  53.716  1.00  0.00    -0.084 Cl
HETATM   13  C15 UNL     1      28.681  -0.064  53.832  1.00  0.00     0.020 A 
HETATM   14  C14 UNL     1      27.988  -1.099  53.398  1.00  0.00    -0.025 A 
HETATM   15  C13 UNL     1      26.860  -1.349  52.476  1.00  0.00     0.031 A 
HETATM   16  C12 UNL     1      26.400  -0.041  51.894  1.00  0.00     0.041 A 
ENDBRANCH   9  10
ENDBRANCH   7   9
ENDBRANCH   1   7
BRANCH   5  17
HETATM   17  C8  UNL     1      21.224   0.849  52.270  1.00  0.00     0.102 C 
BRANCH  17  18
HETATM   18  C9  UNL     1      21.434  -0.057  53.433  1.00  0.00    -0.017 A 
HETATM   19  C10 UNL     1      21.049  -0.044  54.721  1.00  0.00     0.125 A 
HETATM   20  N3  UNL     1      21.720  -1.280  54.995  1.00  0.00    -0.272 NA
HETATM   21  C11 UNL     1      22.099  -1.310  53.764  1.00  0.00     0.125 A 
ENDBRANCH  17  18
ENDBRANCH   5  17
TORSDOF 5
ENDMDL
MODEL 4
REMARK VINA RESULT:      -7.2      1.323      1.881
REMARK  5 active torsions:
REMARK  status: ('A' for Active; 'I' for Inactive)
REMARK    1  A    between atoms: C2_3  and  C3_4 
REMARK    2  A    between atoms: C3_4  and  N1_5 
REMARK    3  A    between atoms: N1_5  and  C4_6 
REMARK    4  A    between atoms: C7_10  and  C8_11 
REMARK    5  A    between atoms: C8_11  and  C9_12 
ROOT
HETATM    1  C4  UNL     1      23.686  -0.619  53.745  1.00  0.00     0.141 A 
HETATM    2  C5  UNL     1      23.199  -1.221  54.881  1.00  0.00     0.166 A 
HETATM    3  N2  UNL     1      21.872  -1.438  55.080  1.00  0.00    -0.267 NA
HETATM    4  C6  UNL     1      20.981  -1.049  54.127  1.00  0.00     0.143 A 
HETATM    5  C7  UNL     1      21.480  -0.450  52.997  1.00  0.00     0.058 A 
HETATM    6  N4  UNL     1      22.792  -0.246  52.821  1.00  0.00    -0.233 NA
ENDROOT
BRANCH   1   7
HETATM    7  N1  UNL     1      25.054  -0.416  53.590  1.00  0.00    -0.370 N 
HETATM    8  H3  UNL     1      25.418   0.426  54.131  1.00  0.00     0.161 HD
BRANCH   7   9
HETATM    9  C3  UNL     1      26.114  -1.055  52.880  1.00  0.00     0.157 C 
BRANCH   9  10
HETATM   10  C2  UNL     1      27.396  -0.325  53.197  1.00  0.00    -0.040 A 
HETATM   11  C1  UNL     1      28.522  -1.012  53.291  1.00  0.00     0.037 A 
HETATM   12 CL1  UNL     1      28.715  -2.721  53.084  1.00  0.00    -0.084 Cl
HETATM   13  C15 UNL     1      29.693  -0.209  53.605  1.00  0.00     0.020 A 
HETATM   14  C14 UNL     1      29.407   1.072  53.739  1.00  0.00    -0.025 A 
HETATM   15  C13 UNL     1      28.211   1.938  53.659  1.00  0.00     0.031 A 
HETATM   16  C12 UNL     1      27.012   1.094  53.330  1.00  0.00     0.041 A 
ENDBRANCH   9  10
ENDBRANCH   7   9
ENDBRANCH   1   7
BRANCH   5  17
HETATM   17  C8  UNL     1      20.545  -0.012  51.936  1.00  0.00     0.102 C 
BRANCH  17  18
HETATM   18  C9  UNL     1      20.150   1.418  52.062  1.00  0.00    -0.017 A 
HETATM   19  C10 UNL     1      19.161   2.173  51.551  1.00  0.00     0.125 A 
HETATM   20  N3  UNL     1      19.622   3.344  52.236  1.00  0.00    -0.272 NA
HETATM   21  C11 UNL     1      20.577   2.637  52.736  1.00  0.00     0.125 A 
ENDBRANCH  17  18
ENDBRANCH   5  17
TORSDOF 5
ENDMDL
MODEL 5
REMARK VINA RESULT:      -7.1      4.866      7.090
REMARK  5 active torsions:
REMARK  status: ('A' for Active; 'I' for Inactive)
REMARK    1  A    between atoms: C2_3  and  C3_4 
REMARK    2  A    between atoms: C3_4  and  N1_5 
REMARK    3  A    between atoms: N1_5  and  C4_6 
REMARK    4  A    between atoms: C7_10  and  C8_11 
REMARK    5  A    between atoms: C8_11  and  C9_12 
ROOT
HETATM    1  C4  UNL     1      25.061   2.947  51.641  1.00  0.00     0.141 A 
HETATM    2  C5  UNL     1      23.894   2.803  52.353  1.00  0.00     0.166 A 
HETATM    3  N2  UNL     1      23.571   1.651  52.999  1.00  0.00    -0.267 NA
HETATM    4  C6  UNL     1      24.426   0.593  52.947  1.00  0.00     0.143 A 
HETATM    5  C7  UNL     1      25.589   0.750  52.233  1.00  0.00     0.058 A 
HETATM    6  N4  UNL     1      25.887   1.894  51.604  1.00  0.00    -0.233 NA
ENDROOT
BRANCH   1   7
HETATM    7  N1  UNL     1      25.344   4.145  50.993  1.00  0.00    -0.370 N 
HETATM    8  H3  UNL     1      26.052   4.748  51.513  1.00  0.00     0.161 HD
BRANCH   7   9
HETATM    9  C3  UNL     1      24.923   4.787  49.790  1.00  0.00     0.157 C 
BRANCH   9  10
HETATM   10  C2  UNL     1      26.103   5.536  49.222  1.00  0.00    -0.040 A 
HETATM   11  C1  UNL     1      26.018   6.846  49.063  1.00  0.00     0.037 A 
HETATM   12 CL1  UNL     1      24.661   7.852  49.445  1.00  0.00    -0.084 Cl
HETATM   13  C15 UNL     1      27.211   7.463  48.505  1.00  0.00     0.020 A 
HETATM   14  C14 UNL     1      28.165   6.587  48.258  1.00  0.00    -0.025 A 
HETATM   15  C13 UNL     1      28.370   5.129  48.390  1.00  0.00     0.031 A 
HETATM   16  C12 UNL     1      27.131   4.507  48.973  1.00  0.00     0.041 A 
ENDBRANCH   9  10
ENDBRANCH   7   9
ENDBRANCH   1   7
BRANCH   5  17
HETATM   17  C8  UNL     1      26.545  -0.377  52.151  1.00  0.00     0.102 C 
BRANCH  17  18
HETATM   18  C9  UNL     1      27.549  -0.369  53.251  1.00  0.00    -0.017 A 
HETATM   19  C10 UNL     1      27.595   0.167  54.483  1.00  0.00     0.125 A 
HETATM   20  N3  UNL     1      28.904  -0.363  54.729  1.00  0.00    -0.272 NA
HETATM   21  C11 UNL     1      28.878  -0.885  53.551  1.00  0.00     0.125 A 
ENDBRANCH  17  18
ENDBRANCH   5  17
TORSDOF 5
ENDMDL
MODEL 6
REMARK VINA RESULT:      -6.9      4.544      7.338
REMARK  5 active torsions:
REMARK  status: ('A' for Active; 'I' for Inactive)
REMARK    1  A    between atoms: C2_3  and  C3_4 
REMARK    2  A    between atoms: C3_4  and  N1_5 
REMARK    3  A    between atoms: N1_5  and  C4_6 
REMARK    4  A    between atoms: C7_10  and  C8_11 
REMARK    5  A    between atoms: C8_11  and  C9_12 
ROOT
HETATM    1  C4  UNL     1      25.554   2.439  51.786  1.00  0.00     0.141 A 
HETATM    2  C5  UNL     1      24.327   1.858  51.571  1.00  0.00     0.166 A 
HETATM    3  N2  UNL     1      23.867   0.825  52.325  1.00  0.00    -0.267 NA
HETATM    4  C6  UNL     1      24.640   0.337  53.333  1.00  0.00     0.143 A 
HETATM    5  C7  UNL     1      25.864   0.927  53.538  1.00  0.00     0.058 A 
HETATM    6  N4  UNL     1      26.298   1.944  52.783  1.00  0.00    -0.233 NA
ENDROOT
BRANCH   1   7
HETATM    7  N1  UNL     1      25.982   3.492  50.983  1.00  0.00    -0.370 N 
HETATM    8  H3  UNL     1      25.743   4.451  51.382  1.00  0.00     0.161 HD
BRANCH   7   9
HETATM    9  C3  UNL     1      26.670   3.622  49.740  1.00  0.00     0.157 C 
BRANCH   9  10
HETATM   10  C2  UNL     1      26.311   4.962  49.145  1.00  0.00    -0.040 A 
HETATM   11  C1  UNL     1      27.253   5.675  48.550  1.00  0.00     0.037 A 
HETATM   12 CL1  UNL     1      28.919   5.242  48.359  1.00  0.00    -0.084 Cl
HETATM   13  C15 UNL     1      26.796   6.949  48.018  1.00  0.00     0.020 A 
HETATM   14  C14 UNL     1      25.512   7.156  48.232  1.00  0.00    -0.025 A 
HETATM   15  C13 UNL     1      24.383   6.447  48.873  1.00  0.00     0.031 A 
HETATM   16  C12 UNL     1      24.870   5.132  49.413  1.00  0.00     0.041 A 
ENDBRANCH   9  10
ENDBRANCH   7   9
ENDBRANCH   1   7
BRANCH   5  17
HETATM   17  C8  UNL     1      26.735   0.426  54.625  1.00  0.00     0.102 C 
BRANCH  17  18
HETATM   18  C9  UNL     1      28.111   0.095  54.162  1.00  0.00    -0.017 A 
HETATM   19  C10 UNL     1      29.305   0.709  54.237  1.00  0.00     0.125 A 
HETATM   20  N3  UNL     1      29.962  -0.356  53.538  1.00  0.00    -0.272 NA
HETATM   21  C11 UNL     1      28.826  -0.959  53.456  1.00  0.00     0.125 A 
ENDBRANCH  17  18
ENDBRANCH   5  17
TORSDOF 5
ENDMDL
MODEL 7
REMARK VINA RESULT:      -6.8      1.541      1.982
REMARK  5 active torsions:
REMARK  status: ('A' for Active; 'I' for Inactive)
REMARK    1  A    between atoms: C2_3  and  C3_4 
REMARK    2  A    between atoms: C3_4  and  N1_5 
REMARK    3  A    between atoms: N1_5  and  C4_6 
REMARK    4  A    between atoms: C7_10  and  C8_11 
REMARK    5  A    between atoms: C8_11  and  C9_12 
ROOT
HETATM    1  C4  UNL     1      23.596  -0.704  53.867  1.00  0.00     0.141 A 
HETATM    2  C5  UNL     1      22.987  -1.243  54.976  1.00  0.00     0.166 A 
HETATM    3  N2  UNL     1      21.635  -1.310  55.106  1.00  0.00    -0.267 NA
HETATM    4  C6  UNL     1      20.843  -0.828  54.110  1.00  0.00     0.143 A 
HETATM    5  C7  UNL     1      21.464  -0.292  53.007  1.00  0.00     0.058 A 
HETATM    6  N4  UNL     1      22.797  -0.236  52.899  1.00  0.00    -0.233 NA
ENDROOT
BRANCH   1   7
HETATM    7  N1  UNL     1      24.984  -0.655  53.784  1.00  0.00    -0.370 N 
HETATM    8  H3  UNL     1      25.460  -0.561  54.732  1.00  0.00     0.161 HD
BRANCH   7   9
HETATM    9  C3  UNL     1      25.952  -0.697  52.736  1.00  0.00     0.157 C 
BRANCH   9  10
HETATM   10  C2  UNL     1      27.103   0.196  53.127  1.00  0.00    -0.040 A 
HETATM   11  C1  UNL     1      26.932   1.507  53.121  1.00  0.00     0.037 A 
HETATM   12 CL1  UNL     1      25.486   2.364  52.703  1.00  0.00    -0.084 Cl
HETATM   13  C15 UNL     1      28.108   2.269  53.511  1.00  0.00     0.020 A 
HETATM   14  C14 UNL     1      29.138   1.498  53.800  1.00  0.00    -0.025 A 
HETATM   15  C13 UNL     1      29.442   0.051  53.841  1.00  0.00     0.031 A 
HETATM   16  C12 UNL     1      28.216  -0.721  53.441  1.00  0.00     0.041 A 
ENDBRANCH   9  10
ENDBRANCH   7   9
ENDBRANCH   1   7
BRANCH   5  17
HETATM   17  C8  UNL     1      20.638   0.243  51.901  1.00  0.00     0.102 C 
BRANCH  17  18
HETATM   18  C9  UNL     1      21.398   1.141  50.989  1.00  0.00    -0.017 A 
HETATM   19  C10 UNL     1      21.754   1.088  49.693  1.00  0.00     0.125 A 
HETATM   20  N3  UNL     1      22.422   2.354  49.764  1.00  0.00    -0.272 NA
HETATM   21  C11 UNL     1      22.091   2.422  51.008  1.00  0.00     0.125 A 
ENDBRANCH  17  18
ENDBRANCH   5  17
TORSDOF 5
ENDMDL
MODEL 8
REMARK VINA RESULT:      -6.8      3.182      7.026
REMARK  5 active torsions:
REMARK  status: ('A' for Active; 'I' for Inactive)
REMARK    1  A    between atoms: C2_3  and  C3_4 
REMARK    2  A    between atoms: C3_4  and  N1_5 
REMARK    3  A    between atoms: N1_5  and  C4_6 
REMARK    4  A    between atoms: C7_10  and  C8_11 
REMARK    5  A    between atoms: C8_11  and  C9_12 
ROOT
HETATM    1  C4  UNL     1      23.727   1.631  52.797  1.00  0.00     0.141 A 
HETATM    2  C5  UNL     1      23.177   0.525  53.402  1.00  0.00     0.166 A 
HETATM    3  N2  UNL     1      23.897  -0.598  53.663  1.00  0.00    -0.267 NA
HETATM    4  C6  UNL     1      25.213  -0.643  53.318  1.00  0.00     0.143 A 
HETATM    5  C7  UNL     1      25.751   0.468  52.714  1.00  0.00     0.058 A 
HETATM    6  N4  UNL     1      25.023   1.564  52.466  1.00  0.00    -0.233 NA
ENDROOT
BRANCH   1   7
HETATM    7  N1  UNL     1      22.946   2.755  52.547  1.00  0.00    -0.370 N 
HETATM    8  H3  UNL     1      23.349   3.649  52.963  1.00  0.00     0.161 HD
BRANCH   7   9
HETATM    9  C3  UNL     1      21.722   3.024  51.866  1.00  0.00     0.157 C 
BRANCH   9  10
HETATM   10  C2  UNL     1      21.854   2.520  50.450  1.00  0.00    -0.040 A 
HETATM   11  C1  UNL     1      21.259   1.388  50.111  1.00  0.00     0.037 A 
HETATM   12 CL1  UNL     1      20.304   0.371  51.136  1.00  0.00    -0.084 Cl
HETATM   13  C15 UNL     1      21.456   0.997  48.725  1.00  0.00     0.020 A 
HETATM   14  C14 UNL     1      22.203   1.855  48.057  1.00  0.00    -0.025 A 
HETATM   15  C13 UNL     1      22.909   3.126  48.324  1.00  0.00     0.031 A 
HETATM   16  C12 UNL     1      22.691   3.520  49.759  1.00  0.00     0.041 A 
ENDBRANCH   9  10
ENDBRANCH   7   9
ENDBRANCH   1   7
BRANCH   5  17
HETATM   17  C8  UNL     1      27.178   0.459  52.322  1.00  0.00     0.102 C 
BRANCH  17  18
HETATM   18  C9  UNL     1      28.064   1.094  53.335  1.00  0.00    -0.017 A 
HETATM   19  C10 UNL     1      28.495   2.348  53.559  1.00  0.00     0.125 A 
HETATM   20  N3  UNL     1      29.257   1.945  54.704  1.00  0.00    -0.272 NA
HETATM   21  C11 UNL     1      28.854   0.737  54.506  1.00  0.00     0.125 A 
ENDBRANCH  17  18
ENDBRANCH   5  17
TORSDOF 5
ENDMDL
MODEL 9
REMARK VINA RESULT:      -6.5      3.194      7.469
REMARK  5 active torsions:
REMARK  status: ('A' for Active; 'I' for Inactive)
REMARK    1  A    between atoms: C2_3  and  C3_4 
REMARK    2  A    between atoms: C3_4  and  N1_5 
REMARK    3  A    between atoms: N1_5  and  C4_6 
REMARK    4  A    between atoms: C7_10  and  C8_11 
REMARK    5  A    between atoms: C8_11  and  C9_12 
ROOT
HETATM    1  C4  UNL     1      24.083   1.916  51.598  1.00  0.00     0.141 A 
HETATM    2  C5  UNL     1      24.423   3.032  50.869  1.00  0.00     0.166 A 
HETATM    3  N2  UNL     1      25.713   3.361  50.599  1.00  0.00    -0.267 NA
HETATM    4  C6  UNL     1      26.717   2.566  51.061  1.00  0.00     0.143 A 
HETATM    5  C7  UNL     1      26.365   1.454  51.787  1.00  0.00     0.058 A 
HETATM    6  N4  UNL     1      25.086   1.148  52.042  1.00  0.00    -0.233 NA
ENDROOT
BRANCH   1   7
HETATM    7  N1  UNL     1      22.746   1.624  51.852  1.00  0.00    -0.370 N 
HETATM    8  H3  UNL     1      22.387   2.050  52.760  1.00  0.00     0.161 HD
BRANCH   7   9
HETATM    9  C3  UNL     1      21.714   0.887  51.198  1.00  0.00     0.157 C 
BRANCH   9  10
HETATM   10  C2  UNL     1      21.023   0.032  52.233  1.00  0.00    -0.040 A 
HETATM   11  C1  UNL     1      19.702   0.029  52.288  1.00  0.00     0.037 A 
HETATM   12 CL1  UNL     1      18.619   0.922  51.274  1.00  0.00    -0.084 Cl
HETATM   13  C15 UNL     1      19.145  -0.827  53.323  1.00  0.00     0.020 A 
HETATM   14  C14 UNL     1      20.076  -1.446  54.023  1.00  0.00    -0.025 A 
HETATM   15  C13 UNL     1      21.553  -1.518  54.053  1.00  0.00     0.031 A 
HETATM   16  C12 UNL     1      22.112  -0.633  52.974  1.00  0.00     0.041 A 
ENDBRANCH   9  10
ENDBRANCH   7   9
ENDBRANCH   1   7
BRANCH   5  17
HETATM   17  C8  UNL     1      27.426   0.563  52.308  1.00  0.00     0.102 C 
BRANCH  17  18
HETATM   18  C9  UNL     1      28.229   1.188  53.394  1.00  0.00    -0.017 A 
HETATM   19  C10 UNL     1      28.698   0.768  54.582  1.00  0.00     0.125 A 
HETATM   20  N3  UNL     1      29.312   2.034  54.854  1.00  0.00    -0.272 NA
HETATM   21  C11 UNL     1      28.871   2.455  53.718  1.00  0.00     0.125 A 
ENDBRANCH  17  18
ENDBRANCH   5  17
TORSDOF 5
ENDMDL
