MODEL 1
REMARK VINA RESULT:      -7.7      0.000      0.000
REMARK  5 active torsions:
REMARK  status: ('A' for Active; 'I' for Inactive)
REMARK    1  A    between atoms: O1_1  and  C1_2 
REMARK    2  A    between atoms: C1_2  and  C2_3 
REMARK    3  A    between atoms: C2_3  and  O2_4 
REMARK    4  A    between atoms: O2_4  and  C3_5 
REMARK    5  A    between atoms: C4_6  and  C5_7 
ROOT
HETATM    1  C5  UNL     1      25.409   1.254  53.364  1.00  0.00     0.072 A 
HETATM    2  N1  UNL     1      26.486   1.396  54.200  1.00  0.00    -0.241 NA
HETATM    3  C6  UNL     1      27.597   2.007  53.788  1.00  0.00     0.235 A 
HETATM    4  N2  UNL     1      27.776   2.537  52.547  1.00  0.00    -0.224 NA
HETATM    5  C7  UNL     1      26.799   2.461  51.658  1.00  0.00     0.135 A 
HETATM    6  C8  UNL     1      25.680   1.804  52.177  1.00  0.00     0.040 A 
HETATM    7  C9  UNL     1      24.573   1.800  51.176  1.00  0.00     0.212 C 
HETATM    8  O3  UNL     1      23.952   3.012  51.130  1.00  0.00    -0.384 OA
HETATM    9  C10 UNL     1      23.382   3.539  52.227  1.00  0.00     0.194 C 
HETATM   10  C11 UNL     1      22.821   4.942  51.949  1.00  0.00     0.193 C 
HETATM   11  O4  UNL     1      23.830   5.825  51.533  1.00  0.00    -0.389 OA
HETATM   12  C12 UNL     1      23.239   6.985  51.049  1.00  0.00     0.168 C 
HETATM   13  C13 UNL     1      24.122   8.119  50.692  1.00  0.00     0.032 C 
HETATM   14  C14 UNL     1      25.340   7.795  49.930  1.00  0.00     0.001 C 
HETATM   15  C15 UNL     1      26.261   7.110  49.348  1.00  0.00     0.020 C 
HETATM   16  C16 UNL     1      27.083   6.052  48.831  1.00  0.00    -0.023 C 
HETATM   17  C17 UNL     1      27.321   4.766  48.700  1.00  0.00    -0.011 C 
HETATM   18  C18 UNL     1      26.314   3.867  49.390  1.00  0.00     0.148 C 
HETATM   19  N3  UNL     1      27.017   3.075  50.415  1.00  0.00    -0.371 N 
HETATM   20  H25 UNL     1      28.013   2.911  50.066  1.00  0.00     0.161 HD
ENDROOT
BRANCH   1  21
HETATM   21  C4  UNL     1      24.084   0.646  53.716  1.00  0.00     0.056 C 
HETATM   22  C3  UNL     1      24.354  -0.586  54.074  1.00  0.00     0.137 C 
BRANCH  22  23
HETATM   23  O2  UNL     1      23.021  -0.964  54.353  1.00  0.00    -0.361 OA
BRANCH  23  24
HETATM   24  C2  UNL     1      21.978  -0.182  53.823  1.00  0.00     0.200 C 
BRANCH  24  25
HETATM   25  C1  UNL     1      20.649  -0.869  53.854  1.00  0.00     0.190 C 
BRANCH  25  26
HETATM   26  O1  UNL     1      20.707  -1.853  54.864  1.00  0.00    -0.399 OA
HETATM   27  H1  UNL     1      21.580  -1.804  55.323  1.00  0.00     0.209 HD
ENDBRANCH  25  26
ENDBRANCH  24  25
ENDBRANCH  23  24
ENDBRANCH  22  23
ENDBRANCH   1  21
TORSDOF 5
ENDMDL
MODEL 2
REMARK VINA RESULT:      -7.4      3.038      7.762
REMARK  5 active torsions:
REMARK  status: ('A' for Active; 'I' for Inactive)
REMARK    1  A    between atoms: O1_1  and  C1_2 
REMARK    2  A    between atoms: C1_2  and  C2_3 
REMARK    3  A    between atoms: C2_3  and  O2_4 
REMARK    4  A    between atoms: O2_4  and  C3_5 
REMARK    5  A    between atoms: C4_6  and  C5_7 
ROOT
HETATM    1  C5  UNL     1      23.784   5.888  49.792  1.00  0.00     0.072 A 
HETATM    2  N1  UNL     1      23.045   6.695  50.617  1.00  0.00    -0.241 NA
HETATM    3  C6  UNL     1      21.991   6.217  51.280  1.00  0.00     0.235 A 
HETATM    4  N2  UNL     1      21.554   4.929  51.215  1.00  0.00    -0.224 NA
HETATM    5  C7  UNL     1      22.195   4.060  50.452  1.00  0.00     0.135 A 
HETATM    6  C8  UNL     1      23.280   4.651  49.797  1.00  0.00     0.040 A 
HETATM    7  C9  UNL     1      24.023   3.628  49.004  1.00  0.00     0.212 C 
HETATM    8  O3  UNL     1      24.812   2.863  49.810  1.00  0.00    -0.384 OA
HETATM    9  C10 UNL     1      25.765   3.421  50.576  1.00  0.00     0.194 C 
HETATM   10  C11 UNL     1      26.462   2.372  51.456  1.00  0.00     0.193 C 
HETATM   11  O4  UNL     1      25.552   1.734  52.312  1.00  0.00    -0.389 OA
HETATM   12  C12 UNL     1      26.174   0.632  52.886  1.00  0.00     0.168 C 
HETATM   13  C13 UNL     1      25.445  -0.107  53.943  1.00  0.00     0.032 C 
HETATM   14  C14 UNL     1      24.020  -0.381  53.695  1.00  0.00     0.001 C 
HETATM   15  C15 UNL     1      22.860  -0.367  53.137  1.00  0.00     0.020 C 
HETATM   16  C16 UNL     1      21.746  -0.122  52.265  1.00  0.00    -0.023 C 
HETATM   17  C17 UNL     1      21.252   0.470  51.200  1.00  0.00    -0.011 C 
HETATM   18  C18 UNL     1      22.238   1.348  50.454  1.00  0.00     0.148 C 
HETATM   19  N3  UNL     1      21.736   2.733  50.469  1.00  0.00    -0.371 N 
HETATM   20  H25 UNL     1      20.669   2.689  50.475  1.00  0.00     0.161 HD
ENDROOT
BRANCH   1  21
HETATM   21  C4  UNL     1      25.022   6.279  49.040  1.00  0.00     0.056 C 
HETATM   22  C3  UNL     1      25.740   6.967  49.894  1.00  0.00     0.137 C 
BRANCH  22  23
HETATM   23  O2  UNL     1      26.817   7.230  49.017  1.00  0.00    -0.361 OA
BRANCH  23  24
HETATM   24  C2  UNL     1      27.602   8.375  49.246  1.00  0.00     0.200 C 
BRANCH  24  25
HETATM   25  C1  UNL     1      26.891   9.433  50.030  1.00  0.00     0.190 C 
BRANCH  25  26
HETATM   26  O1  UNL     1      27.657   9.687  51.188  1.00  0.00    -0.399 OA
HETATM   27  H1  UNL     1      28.554  10.009  50.926  1.00  0.00     0.209 HD
ENDBRANCH  25  26
ENDBRANCH  24  25
ENDBRANCH  23  24
ENDBRANCH  22  23
ENDBRANCH   1  21
TORSDOF 5
ENDMDL
MODEL 3
REMARK VINA RESULT:      -7.2      4.283      6.448
REMARK  5 active torsions:
REMARK  status: ('A' for Active; 'I' for Inactive)
REMARK    1  A    between atoms: O1_1  and  C1_2 
REMARK    2  A    between atoms: C1_2  and  C2_3 
REMARK    3  A    between atoms: C2_3  and  O2_4 
REMARK    4  A    between atoms: O2_4  and  C3_5 
REMARK    5  A    between atoms: C4_6  and  C5_7 
ROOT
HETATM    1  C5  UNL     1      19.847   2.695  50.311  1.00  0.00     0.072 A 
HETATM    2  N1  UNL     1      19.736   2.225  49.028  1.00  0.00    -0.241 NA
HETATM    3  C6  UNL     1      20.786   2.225  48.206  1.00  0.00     0.235 A 
HETATM    4  N2  UNL     1      22.029   2.668  48.536  1.00  0.00    -0.224 NA
HETATM    5  C7  UNL     1      22.253   3.140  49.751  1.00  0.00     0.135 A 
HETATM    6  C8  UNL     1      21.098   3.103  50.538  1.00  0.00     0.040 A 
HETATM    7  C9  UNL     1      21.402   3.572  51.922  1.00  0.00     0.212 C 
HETATM    8  O3  UNL     1      22.031   2.601  52.641  1.00  0.00    -0.384 OA
HETATM    9  C10 UNL     1      21.455   1.402  52.835  1.00  0.00     0.194 C 
HETATM   10  C11 UNL     1      22.387   0.449  53.599  1.00  0.00     0.193 C 
HETATM   11  O4  UNL     1      23.585   0.233  52.901  1.00  0.00    -0.389 OA
HETATM   12  C12 UNL     1      24.483  -0.410  53.742  1.00  0.00     0.168 C 
HETATM   13  C13 UNL     1      25.767  -0.873  53.166  1.00  0.00     0.032 C 
HETATM   14  C14 UNL     1      26.467   0.065  52.273  1.00  0.00     0.001 C 
HETATM   15  C15 UNL     1      26.709   1.105  51.553  1.00  0.00     0.020 C 
HETATM   16  C16 UNL     1      26.627   2.362  50.864  1.00  0.00    -0.023 C 
HETATM   17  C17 UNL     1      25.940   3.440  50.557  1.00  0.00    -0.011 C 
HETATM   18  C18 UNL     1      24.547   3.491  51.154  1.00  0.00     0.148 C 
HETATM   19  N3  UNL     1      23.567   3.529  50.054  1.00  0.00    -0.371 N 
HETATM   20  H25 UNL     1      24.022   4.043  49.236  1.00  0.00     0.161 HD
ENDROOT
BRANCH   1  21
HETATM   21  C4  UNL     1      18.769   2.696  51.354  1.00  0.00     0.056 C 
HETATM   22  C3  UNL     1      18.035   3.750  51.091  1.00  0.00     0.137 C 
BRANCH  22  23
HETATM   23  O2  UNL     1      17.116   3.571  52.149  1.00  0.00    -0.361 OA
BRANCH  23  24
HETATM   24  C2  UNL     1      15.954   4.365  52.168  1.00  0.00     0.200 C 
BRANCH  24  25
HETATM   25  C1  UNL     1      14.924   3.881  53.141  1.00  0.00     0.190 C 
BRANCH  25  26
HETATM   26  O1  UNL     1      14.989   4.719  54.275  1.00  0.00    -0.399 OA
HETATM   27  H1  UNL     1      14.960   5.664  53.990  1.00  0.00     0.209 HD
ENDBRANCH  25  26
ENDBRANCH  24  25
ENDBRANCH  23  24
ENDBRANCH  22  23
ENDBRANCH   1  21
TORSDOF 5
ENDMDL
MODEL 4
REMARK VINA RESULT:      -7.2      3.291      6.679
REMARK  5 active torsions:
REMARK  status: ('A' for Active; 'I' for Inactive)
REMARK    1  A    between atoms: O1_1  and  C1_2 
REMARK    2  A    between atoms: C1_2  and  C2_3 
REMARK    3  A    between atoms: C2_3  and  O2_4 
REMARK    4  A    between atoms: O2_4  and  C3_5 
REMARK    5  A    between atoms: C4_6  and  C5_7 
ROOT
HETATM    1  C5  UNL     1      24.844   2.606  53.327  1.00  0.00     0.072 A 
HETATM    2  N1  UNL     1      24.506   3.905  53.606  1.00  0.00    -0.241 NA
HETATM    3  C6  UNL     1      23.546   4.526  52.920  1.00  0.00     0.235 A 
HETATM    4  N2  UNL     1      22.823   3.962  51.915  1.00  0.00    -0.224 NA
HETATM    5  C7  UNL     1      23.061   2.709  51.563  1.00  0.00     0.135 A 
HETATM    6  C8  UNL     1      24.082   2.144  52.332  1.00  0.00     0.040 A 
HETATM    7  C9  UNL     1      24.274   0.711  51.961  1.00  0.00     0.212 C 
HETATM    8  O3  UNL     1      23.304  -0.071  52.512  1.00  0.00    -0.384 OA
HETATM    9  C10 UNL     1      23.122  -0.113  53.843  1.00  0.00     0.194 C 
HETATM   10  C11 UNL     1      21.921  -0.995  54.218  1.00  0.00     0.193 C 
HETATM   11  O4  UNL     1      20.734  -0.515  53.644  1.00  0.00    -0.389 OA
HETATM   12  C12 UNL     1      19.744  -1.478  53.792  1.00  0.00     0.168 C 
HETATM   13  C13 UNL     1      18.362  -1.125  53.392  1.00  0.00     0.032 C 
HETATM   14  C14 UNL     1      18.208  -0.408  52.115  1.00  0.00     0.001 C 
HETATM   15  C15 UNL     1      18.506   0.217  51.029  1.00  0.00     0.020 C 
HETATM   16  C16 UNL     1      19.195   0.861  49.947  1.00  0.00    -0.023 C 
HETATM   17  C17 UNL     1      20.325   1.245  49.395  1.00  0.00    -0.011 C 
HETATM   18  C18 UNL     1      21.565   0.905  50.197  1.00  0.00     0.148 C 
HETATM   19  N3  UNL     1      22.247   2.161  50.560  1.00  0.00    -0.371 N 
HETATM   20  H25 UNL     1      22.063   2.864  49.777  1.00  0.00     0.161 HD
ENDROOT
BRANCH   1  21
HETATM   21  C4  UNL     1      25.856   1.774  54.057  1.00  0.00     0.056 C 
HETATM   22  C3  UNL     1      27.020   2.162  53.593  1.00  0.00     0.137 C 
BRANCH  22  23
HETATM   23  O2  UNL     1      27.802   1.287  54.380  1.00  0.00    -0.361 OA
BRANCH  23  24
HETATM   24  C2  UNL     1      27.861  -0.071  54.013  1.00  0.00     0.200 C 
BRANCH  24  25
HETATM   25  C1  UNL     1      29.260  -0.584  53.871  1.00  0.00     0.190 C 
BRANCH  25  26
HETATM   26  O1  UNL     1      30.082   0.517  53.547  1.00  0.00    -0.399 OA
HETATM   27  H1  UNL     1      29.562   1.175  53.026  1.00  0.00     0.209 HD
ENDBRANCH  25  26
ENDBRANCH  24  25
ENDBRANCH  23  24
ENDBRANCH  22  23
ENDBRANCH   1  21
TORSDOF 5
ENDMDL
MODEL 5
REMARK VINA RESULT:      -7.0      3.600      5.876
REMARK  5 active torsions:
REMARK  status: ('A' for Active; 'I' for Inactive)
REMARK    1  A    between atoms: O1_1  and  C1_2 
REMARK    2  A    between atoms: C1_2  and  C2_3 
REMARK    3  A    between atoms: C2_3  and  O2_4 
REMARK    4  A    between atoms: O2_4  and  C3_5 
REMARK    5  A    between atoms: C4_6  and  C5_7 
ROOT
HETATM    1  C5  UNL     1      24.721   1.418  53.070  1.00  0.00     0.072 A 
HETATM    2  N1  UNL     1      24.535   0.066  53.201  1.00  0.00    -0.241 NA
HETATM    3  C6  UNL     1      23.312  -0.464  53.170  1.00  0.00     0.235 A 
HETATM    4  N2  UNL     1      22.163   0.248  53.009  1.00  0.00    -0.224 NA
HETATM    5  C7  UNL     1      22.223   1.562  52.869  1.00  0.00     0.135 A 
HETATM    6  C8  UNL     1      23.541   2.025  52.916  1.00  0.00     0.040 A 
HETATM    7  C9  UNL     1      23.579   3.498  52.681  1.00  0.00     0.212 C 
HETATM    8  O3  UNL     1      23.430   3.787  51.357  1.00  0.00    -0.384 OA
HETATM    9  C10 UNL     1      24.288   3.300  50.444  1.00  0.00     0.194 C 
HETATM   10  C11 UNL     1      23.868   3.690  49.018  1.00  0.00     0.193 C 
HETATM   11  O4  UNL     1      22.593   3.195  48.705  1.00  0.00    -0.389 OA
HETATM   12  C12 UNL     1      22.160   3.789  47.526  1.00  0.00     0.168 C 
HETATM   13  C13 UNL     1      20.896   3.301  46.925  1.00  0.00     0.032 C 
HETATM   14  C14 UNL     1      19.768   3.082  47.845  1.00  0.00     0.001 C 
HETATM   15  C15 UNL     1      19.095   2.978  48.937  1.00  0.00     0.020 C 
HETATM   16  C16 UNL     1      18.683   2.944  50.313  1.00  0.00    -0.023 C 
HETATM   17  C17 UNL     1      18.987   3.053  51.587  1.00  0.00    -0.011 C 
HETATM   18  C18 UNL     1      20.449   3.349  51.862  1.00  0.00     0.148 C 
HETATM   19  N3  UNL     1      21.012   2.238  52.648  1.00  0.00    -0.371 N 
HETATM   20  H25 UNL     1      20.228   1.843  53.256  1.00  0.00     0.161 HD
ENDROOT
BRANCH   1  21
HETATM   21  C4  UNL     1      26.038   2.135  53.024  1.00  0.00     0.056 C 
HETATM   22  C3  UNL     1      26.849   1.326  52.388  1.00  0.00     0.137 C 
BRANCH  22  23
HETATM   23  O2  UNL     1      27.987   2.160  52.455  1.00  0.00    -0.361 OA
BRANCH  23  24
HETATM   24  C2  UNL     1      28.628   2.319  53.698  1.00  0.00     0.200 C 
BRANCH  24  25
HETATM   25  C1  UNL     1      29.182   1.041  54.245  1.00  0.00     0.190 C 
BRANCH  25  26
HETATM   26  O1  UNL     1      30.242   0.645  53.401  1.00  0.00    -0.399 OA
HETATM   27  H1  UNL     1      30.008  -0.204  52.953  1.00  0.00     0.209 HD
ENDBRANCH  25  26
ENDBRANCH  24  25
ENDBRANCH  23  24
ENDBRANCH  22  23
ENDBRANCH   1  21
TORSDOF 5
ENDMDL
MODEL 6
REMARK VINA RESULT:      -6.6      2.845      4.583
REMARK  5 active torsions:
REMARK  status: ('A' for Active; 'I' for Inactive)
REMARK    1  A    between atoms: O1_1  and  C1_2 
REMARK    2  A    between atoms: C1_2  and  C2_3 
REMARK    3  A    between atoms: C2_3  and  O2_4 
REMARK    4  A    between atoms: O2_4  and  C3_5 
REMARK    5  A    between atoms: C4_6  and  C5_7 
ROOT
HETATM    1  C5  UNL     1      20.958   3.275  51.433  1.00  0.00     0.072 A 
HETATM    2  N1  UNL     1      20.042   3.454  50.429  1.00  0.00    -0.241 NA
HETATM    3  C6  UNL     1      19.988   4.599  49.747  1.00  0.00     0.235 A 
HETATM    4  N2  UNL     1      20.802   5.668  49.963  1.00  0.00    -0.224 NA
HETATM    5  C7  UNL     1      21.727   5.605  50.906  1.00  0.00     0.135 A 
HETATM    6  C8  UNL     1      21.707   4.373  51.565  1.00  0.00     0.040 A 
HETATM    7  C9  UNL     1      22.808   4.307  52.571  1.00  0.00     0.212 C 
HETATM    8  O3  UNL     1      24.006   4.067  51.969  1.00  0.00    -0.384 OA
HETATM    9  C10 UNL     1      24.196   2.966  51.222  1.00  0.00     0.194 C 
HETATM   10  C11 UNL     1      25.592   2.956  50.581  1.00  0.00     0.193 C 
HETATM   11  O4  UNL     1      25.781   4.069  49.747  1.00  0.00    -0.389 OA
HETATM   12  C12 UNL     1      27.126   4.151  49.409  1.00  0.00     0.168 C 
HETATM   13  C13 UNL     1      27.531   5.167  48.409  1.00  0.00     0.032 C 
HETATM   14  C14 UNL     1      26.946   6.510  48.558  1.00  0.00     0.001 C 
HETATM   15  C15 UNL     1      26.210   7.473  48.994  1.00  0.00     0.020 C 
HETATM   16  C16 UNL     1      25.253   8.270  49.708  1.00  0.00    -0.023 C 
HETATM   17  C17 UNL     1      24.310   8.358  50.619  1.00  0.00    -0.011 C 
HETATM   18  C18 UNL     1      23.984   7.052  51.316  1.00  0.00     0.148 C 
HETATM   19  N3  UNL     1      22.575   6.715  51.045  1.00  0.00    -0.371 N 
HETATM   20  H25 UNL     1      22.039   7.633  50.943  1.00  0.00     0.161 HD
ENDROOT
BRANCH   1  21
HETATM   21  C4  UNL     1      21.167   2.023  52.233  1.00  0.00     0.056 C 
HETATM   22  C3  UNL     1      20.669   1.057  51.499  1.00  0.00     0.137 C 
BRANCH  22  23
HETATM   23  O2  UNL     1      20.957   0.009  52.401  1.00  0.00    -0.361 OA
BRANCH  23  24
HETATM   24  C2  UNL     1      20.430   0.085  53.705  1.00  0.00     0.200 C 
BRANCH  24  25
HETATM   25  C1  UNL     1      21.362  -0.444  54.750  1.00  0.00     0.190 C 
BRANCH  25  26
HETATM   26  O1  UNL     1      20.979  -1.775  55.022  1.00  0.00    -0.399 OA
HETATM   27  H1  UNL     1      21.127  -1.972  55.978  1.00  0.00     0.209 HD
ENDBRANCH  25  26
ENDBRANCH  24  25
ENDBRANCH  23  24
ENDBRANCH  22  23
ENDBRANCH   1  21
TORSDOF 5
ENDMDL
MODEL 7
REMARK VINA RESULT:      -6.4      3.167      7.467
REMARK  5 active torsions:
REMARK  status: ('A' for Active; 'I' for Inactive)
REMARK    1  A    between atoms: O1_1  and  C1_2 
REMARK    2  A    between atoms: C1_2  and  C2_3 
REMARK    3  A    between atoms: C2_3  and  O2_4 
REMARK    4  A    between atoms: O2_4  and  C3_5 
REMARK    5  A    between atoms: C4_6  and  C5_7 
ROOT
HETATM    1  C5  UNL     1      22.157   5.513  49.891  1.00  0.00     0.072 A 
HETATM    2  N1  UNL     1      22.692   5.191  48.670  1.00  0.00    -0.241 NA
HETATM    3  C6  UNL     1      23.796   4.448  48.580  1.00  0.00     0.235 A 
HETATM    4  N2  UNL     1      24.481   3.946  49.644  1.00  0.00    -0.224 NA
HETATM    5  C7  UNL     1      24.052   4.191  50.871  1.00  0.00     0.135 A 
HETATM    6  C8  UNL     1      22.896   4.976  50.865  1.00  0.00     0.040 A 
HETATM    7  C9  UNL     1      22.398   5.171  52.259  1.00  0.00     0.212 C 
HETATM    8  O3  UNL     1      21.749   4.060  52.706  1.00  0.00    -0.384 OA
HETATM    9  C10 UNL     1      20.678   3.576  52.055  1.00  0.00     0.194 C 
HETATM   10  C11 UNL     1      20.172   2.275  52.698  1.00  0.00     0.193 C 
HETATM   11  O4  UNL     1      21.160   1.278  52.686  1.00  0.00    -0.389 OA
HETATM   12  C12 UNL     1      20.749   0.231  53.500  1.00  0.00     0.168 C 
HETATM   13  C13 UNL     1      21.572  -1.001  53.519  1.00  0.00     0.032 C 
HETATM   14  C14 UNL     1      23.032  -0.819  53.596  1.00  0.00     0.001 C 
HETATM   15  C15 UNL     1      24.185  -0.247  53.615  1.00  0.00     0.020 C 
HETATM   16  C16 UNL     1      25.258   0.706  53.587  1.00  0.00    -0.023 C 
HETATM   17  C17 UNL     1      25.662   1.951  53.465  1.00  0.00    -0.011 C 
HETATM   18  C18 UNL     1      24.548   2.954  53.233  1.00  0.00     0.148 C 
HETATM   19  N3  UNL     1      24.765   3.601  51.927  1.00  0.00    -0.371 N 
HETATM   20  H25 UNL     1      25.819   3.639  51.757  1.00  0.00     0.161 HD
ENDROOT
BRANCH   1  21
HETATM   21  C4  UNL     1      20.894   6.284  50.132  1.00  0.00     0.056 C 
HETATM   22  C3  UNL     1      20.821   7.145  49.146  1.00  0.00     0.137 C 
BRANCH  22  23
HETATM   23  O2  UNL     1      19.608   7.746  49.551  1.00  0.00    -0.361 OA
BRANCH  23  24
HETATM   24  C2  UNL     1      19.652   9.049  50.082  1.00  0.00     0.200 C 
BRANCH  24  25
HETATM   25  C1  UNL     1      18.716   9.997  49.399  1.00  0.00     0.190 C 
BRANCH  25  26
HETATM   26  O1  UNL     1      17.812   9.224  48.640  1.00  0.00    -0.399 OA
HETATM   27  H1  UNL     1      17.718   8.330  49.048  1.00  0.00     0.209 HD
ENDBRANCH  25  26
ENDBRANCH  24  25
ENDBRANCH  23  24
ENDBRANCH  22  23
ENDBRANCH   1  21
TORSDOF 5
ENDMDL
MODEL 8
REMARK VINA RESULT:      -6.4      4.546      8.466
REMARK  5 active torsions:
REMARK  status: ('A' for Active; 'I' for Inactive)
REMARK    1  A    between atoms: O1_1  and  C1_2 
REMARK    2  A    between atoms: C1_2  and  C2_3 
REMARK    3  A    between atoms: C2_3  and  O2_4 
REMARK    4  A    between atoms: O2_4  and  C3_5 
REMARK    5  A    between atoms: C4_6  and  C5_7 
ROOT
HETATM    1  C5  UNL     1      27.202   7.245  48.869  1.00  0.00     0.072 A 
HETATM    2  N1  UNL     1      28.266   6.528  48.386  1.00  0.00    -0.241 NA
HETATM    3  C6  UNL     1      28.258   5.194  48.404  1.00  0.00     0.235 A 
HETATM    4  N2  UNL     1      27.235   4.432  48.878  1.00  0.00    -0.224 NA
HETATM    5  C7  UNL     1      26.154   5.019  49.365  1.00  0.00     0.135 A 
HETATM    6  C8  UNL     1      26.255   6.411  49.308  1.00  0.00     0.040 A 
HETATM    7  C9  UNL     1      24.992   7.040  49.795  1.00  0.00     0.212 C 
HETATM    8  O3  UNL     1      24.018   6.982  48.844  1.00  0.00    -0.384 OA
HETATM    9  C10 UNL     1      24.199   7.538  47.634  1.00  0.00     0.194 C 
HETATM   10  C11 UNL     1      23.002   7.271  46.708  1.00  0.00     0.193 C 
HETATM   11  O4  UNL     1      22.800   5.896  46.515  1.00  0.00    -0.389 OA
HETATM   12  C12 UNL     1      21.569   5.706  45.899  1.00  0.00     0.168 C 
HETATM   13  C13 UNL     1      21.213   4.337  45.461  1.00  0.00     0.032 C 
HETATM   14  C14 UNL     1      21.497   3.246  46.409  1.00  0.00     0.001 C 
HETATM   15  C15 UNL     1      21.932   2.622  47.448  1.00  0.00     0.020 C 
HETATM   16  C16 UNL     1      22.548   2.275  48.697  1.00  0.00    -0.023 C 
HETATM   17  C17 UNL     1      23.238   2.636  49.757  1.00  0.00    -0.011 C 
HETATM   18  C18 UNL     1      23.637   4.099  49.780  1.00  0.00     0.148 C 
HETATM   19  N3  UNL     1      25.108   4.183  49.787  1.00  0.00    -0.371 N 
HETATM   20  H25 UNL     1      25.477   3.325  50.305  1.00  0.00     0.161 HD
ENDROOT
BRANCH   1  21
HETATM   21  C4  UNL     1      27.055   8.738  48.853  1.00  0.00     0.056 C 
HETATM   22  C3  UNL     1      27.919   9.178  49.736  1.00  0.00     0.137 C 
BRANCH  22  23
HETATM   23  O2  UNL     1      27.627  10.550  49.570  1.00  0.00    -0.361 OA
BRANCH  23  24
HETATM   24  C2  UNL     1      28.187  11.226  48.469  1.00  0.00     0.200 C 
BRANCH  24  25
HETATM   25  C1  UNL     1      29.179  12.276  48.863  1.00  0.00     0.190 C 
BRANCH  25  26
HETATM   26  O1  UNL     1      28.533  13.150  49.764  1.00  0.00    -0.399 OA
HETATM   27  H1  UNL     1      27.555  13.031  49.695  1.00  0.00     0.209 HD
ENDBRANCH  25  26
ENDBRANCH  24  25
ENDBRANCH  23  24
ENDBRANCH  22  23
ENDBRANCH   1  21
TORSDOF 5
ENDMDL
MODEL 9
REMARK VINA RESULT:      -6.3      2.823      3.420
REMARK  5 active torsions:
REMARK  status: ('A' for Active; 'I' for Inactive)
REMARK    1  A    between atoms: O1_1  and  C1_2 
REMARK    2  A    between atoms: C1_2  and  C2_3 
REMARK    3  A    between atoms: C2_3  and  O2_4 
REMARK    4  A    between atoms: O2_4  and  C3_5 
REMARK    5  A    between atoms: C4_6  and  C5_7 
ROOT
HETATM    1  C5  UNL     1      22.094   0.676  51.883  1.00  0.00     0.072 A 
HETATM    2  N1  UNL     1      22.724   0.508  53.090  1.00  0.00    -0.241 NA
HETATM    3  C6  UNL     1      23.927   1.037  53.314  1.00  0.00     0.235 A 
HETATM    4  N2  UNL     1      24.631   1.772  52.411  1.00  0.00    -0.224 NA
HETATM    5  C7  UNL     1      24.118   2.000  51.214  1.00  0.00     0.135 A 
HETATM    6  C8  UNL     1      22.861   1.408  51.070  1.00  0.00     0.040 A 
HETATM    7  C9  UNL     1      22.279   1.747  49.738  1.00  0.00     0.212 C 
HETATM    8  O3  UNL     1      21.781   3.015  49.730  1.00  0.00    -0.384 OA
HETATM    9  C10 UNL     1      20.823   3.387  50.595  1.00  0.00     0.194 C 
HETATM   10  C11 UNL     1      20.485   4.879  50.451  1.00  0.00     0.193 C 
HETATM   11  O4  UNL     1      21.608   5.685  50.694  1.00  0.00    -0.389 OA
HETATM   12  C12 UNL     1      21.320   6.985  50.299  1.00  0.00     0.168 C 
HETATM   13  C13 UNL     1      22.314   8.041  50.603  1.00  0.00     0.032 C 
HETATM   14  C14 UNL     1      23.726   7.715  50.341  1.00  0.00     0.001 C 
HETATM   15  C15 UNL     1      24.780   7.042  50.036  1.00  0.00     0.020 C 
HETATM   16  C16 UNL     1      25.703   6.008  49.662  1.00  0.00    -0.023 C 
HETATM   17  C17 UNL     1      25.924   4.752  49.342  1.00  0.00    -0.011 C 
HETATM   18  C18 UNL     1      24.687   3.875  49.338  1.00  0.00     0.148 C 
HETATM   19  N3  UNL     1      24.863   2.813  50.343  1.00  0.00    -0.371 N 
HETATM   20  H25 UNL     1      25.906   2.590  50.397  1.00  0.00     0.161 HD
ENDROOT
BRANCH   1  21
HETATM   21  C4  UNL     1      20.722   0.191  51.521  1.00  0.00     0.056 C 
HETATM   22  C3  UNL     1      20.028   0.260  52.631  1.00  0.00     0.137 C 
BRANCH  22  23
HETATM   23  O2  UNL     1      18.816  -0.224  52.088  1.00  0.00    -0.361 OA
BRANCH  23  24
HETATM   24  C2  UNL     1      18.385   0.289  50.851  1.00  0.00     0.200 C 
BRANCH  24  25
HETATM   25  C1  UNL     1      17.020  -0.184  50.458  1.00  0.00     0.190 C 
BRANCH  25  26
HETATM   26  O1  UNL     1      16.971  -0.209  49.048  1.00  0.00    -0.399 OA
HETATM   27  H1  UNL     1      16.190   0.308  48.735  1.00  0.00     0.209 HD
ENDBRANCH  25  26
ENDBRANCH  24  25
ENDBRANCH  23  24
ENDBRANCH  22  23
ENDBRANCH   1  21
TORSDOF 5
ENDMDL
