MODEL 1
REMARK VINA RESULT:      -6.9      0.000      0.000
REMARK  7 active torsions:
REMARK  status: ('A' for Active; 'I' for Inactive)
REMARK    1  A    between atoms: N1_3  and  C3_4 
REMARK    2  A    between atoms: C3_4  and  C4_5 
REMARK    3  A    between atoms: C4_5  and  N2_6 
REMARK    4  A    between atoms: N2_6  and  C5_7 
REMARK    5  A    between atoms: N2_6  and  C12_14 
REMARK    6  A    between atoms: C5_7  and  C6_8 
REMARK    7  A    between atoms: C14_17  and  N4_18 
ROOT
HETATM    1  N2  UNL     1      24.330   2.142  51.973  1.00  0.00    -0.373 N 
ENDROOT
BRANCH   1   2
HETATM    2  C4  UNL     1      23.721   3.375  51.482  1.00  0.00     0.145 C 
BRANCH   2   3
HETATM    3  C3  UNL     1      23.479   3.352  49.987  1.00  0.00     0.167 C 
BRANCH   3   4
HETATM    4  N1  UNL     1      24.691   3.893  49.382  1.00  0.00    -0.304 NA
HETATM    5  C2  UNL     1      25.184   5.006  49.749  1.00  0.00     0.079 C 
HETATM    6  C1  UNL     1      26.433   5.336  48.969  1.00  0.00     0.056 C 
ENDBRANCH   3   4
ENDBRANCH   2   3
ENDBRANCH   1   2
BRANCH   1   7
HETATM    7  C5  UNL     1      23.375   1.120  51.673  1.00  0.00     0.161 C 
BRANCH   7   8
HETATM    8  C6  UNL     1      22.743   0.436  52.828  1.00  0.00    -0.040 C 
HETATM    9  C7  UNL     1      23.339  -0.569  53.496  1.00  0.00     0.010 C 
HETATM   10  C8  UNL     1      22.596  -1.147  54.611  1.00  0.00     0.014 C 
HETATM   11  C9  UNL     1      21.302  -0.867  54.645  1.00  0.00    -0.014 C 
HETATM   12  C10 UNL     1      20.958   0.328  54.344  1.00  0.00    -0.013 C 
HETATM   13  C11 UNL     1      21.369   0.855  53.202  1.00  0.00     0.022 C 
ENDBRANCH   7   8
ENDBRANCH   1   7
BRANCH   1  14
HETATM   14  C12 UNL     1      25.609   2.139  52.588  1.00  0.00     0.067 A 
HETATM   15  C13 UNL     1      25.924   1.985  53.916  1.00  0.00     0.167 A 
HETATM   16  N3  UNL     1      27.177   2.041  54.382  1.00  0.00    -0.073 NA
HETATM   17  C14 UNL     1      28.233   2.251  53.593  1.00  0.00     0.719 A 
HETATM   18  N5  UNL     1      27.959   2.407  52.266  1.00  0.00    -0.073 NA
HETATM   19  C15 UNL     1      26.706   2.353  51.796  1.00  0.00     0.167 A 
BRANCH  17  20
HETATM   20  N4  UNL     1      29.497   2.286  54.230  1.00  0.00    -0.231 N 
HETATM   21  H15 UNL     1      30.330   2.809  53.860  1.00  0.00     0.174 HD
HETATM   22  H16 UNL     1      29.414   1.713  55.088  1.00  0.00     0.174 HD
ENDBRANCH  17  20
ENDBRANCH   1  14
TORSDOF 7
ENDMDL
MODEL 2
REMARK VINA RESULT:      -6.9      1.248      1.776
REMARK  7 active torsions:
REMARK  status: ('A' for Active; 'I' for Inactive)
REMARK    1  A    between atoms: N1_3  and  C3_4 
REMARK    2  A    between atoms: C3_4  and  C4_5 
REMARK    3  A    between atoms: C4_5  and  N2_6 
REMARK    4  A    between atoms: N2_6  and  C5_7 
REMARK    5  A    between atoms: N2_6  and  C12_14 
REMARK    6  A    between atoms: C5_7  and  C6_8 
REMARK    7  A    between atoms: C14_17  and  N4_18 
ROOT
HETATM    1  N2  UNL     1      24.249   2.266  51.752  1.00  0.00    -0.373 N 
ENDROOT
BRANCH   1   2
HETATM    2  C4  UNL     1      23.694   3.508  51.219  1.00  0.00     0.145 C 
BRANCH   2   3
HETATM    3  C3  UNL     1      23.177   4.429  52.305  1.00  0.00     0.167 C 
BRANCH   3   4
HETATM    4  N1  UNL     1      23.053   5.743  51.682  1.00  0.00    -0.304 NA
HETATM    5  C2  UNL     1      24.070   6.395  51.284  1.00  0.00     0.079 C 
HETATM    6  C1  UNL     1      23.669   7.718  50.680  1.00  0.00     0.056 C 
ENDBRANCH   3   4
ENDBRANCH   2   3
ENDBRANCH   1   2
BRANCH   1   7
HETATM    7  C5  UNL     1      23.281   1.266  51.423  1.00  0.00     0.161 C 
BRANCH   7   8
HETATM    8  C6  UNL     1      22.545   0.651  52.555  1.00  0.00    -0.040 C 
HETATM    9  C7  UNL     1      21.381   1.140  53.020  1.00  0.00     0.010 C 
HETATM   10  C8  UNL     1      20.773   0.431  54.141  1.00  0.00     0.014 C 
HETATM   11  C9  UNL     1      21.569  -0.401  54.795  1.00  0.00    -0.014 C 
HETATM   12  C10 UNL     1      22.371  -1.110  54.094  1.00  0.00    -0.013 C 
HETATM   13  C11 UNL     1      23.173  -0.516  53.224  1.00  0.00     0.022 C 
ENDBRANCH   7   8
ENDBRANCH   1   7
BRANCH   1  14
HETATM   14  C12 UNL     1      25.499   2.238  52.421  1.00  0.00     0.067 A 
HETATM   15  C13 UNL     1      25.752   2.133  53.767  1.00  0.00     0.167 A 
HETATM   16  N3  UNL     1      26.986   2.158  54.284  1.00  0.00    -0.073 NA
HETATM   17  C14 UNL     1      28.081   2.288  53.534  1.00  0.00     0.719 A 
HETATM   18  N5  UNL     1      27.870   2.394  52.191  1.00  0.00    -0.073 NA
HETATM   19  C15 UNL     1      26.637   2.371  51.669  1.00  0.00     0.167 A 
BRANCH  17  20
HETATM   20  N4  UNL     1      29.318   2.300  54.224  1.00  0.00    -0.231 N 
HETATM   21  H15 UNL     1      29.722   1.469  54.725  1.00  0.00     0.174 HD
HETATM   22  H16 UNL     1      29.704   3.255  54.128  1.00  0.00     0.174 HD
ENDBRANCH  17  20
ENDBRANCH   1  14
TORSDOF 7
ENDMDL
MODEL 3
REMARK VINA RESULT:      -6.9      2.639      6.367
REMARK  7 active torsions:
REMARK  status: ('A' for Active; 'I' for Inactive)
REMARK    1  A    between atoms: N1_3  and  C3_4 
REMARK    2  A    between atoms: C3_4  and  C4_5 
REMARK    3  A    between atoms: C4_5  and  N2_6 
REMARK    4  A    between atoms: N2_6  and  C5_7 
REMARK    5  A    between atoms: N2_6  and  C12_14 
REMARK    6  A    between atoms: C5_7  and  C6_8 
REMARK    7  A    between atoms: C14_17  and  N4_18 
ROOT
HETATM    1  N2  UNL     1      24.530   0.614  53.515  1.00  0.00    -0.373 N 
ENDROOT
BRANCH   1   2
HETATM    2  C4  UNL     1      25.742  -0.195  53.612  1.00  0.00     0.145 C 
BRANCH   2   3
HETATM    3  C3  UNL     1      26.586   0.160  54.819  1.00  0.00     0.167 C 
BRANCH   3   4
HETATM    4  N1  UNL     1      27.894  -0.438  54.578  1.00  0.00    -0.304 NA
HETATM    5  C2  UNL     1      28.583  -0.149  53.549  1.00  0.00     0.079 C 
HETATM    6  C1  UNL     1      29.891  -0.902  53.537  1.00  0.00     0.056 C 
ENDBRANCH   3   4
ENDBRANCH   2   3
ENDBRANCH   1   2
BRANCH   1   7
HETATM    7  C5  UNL     1      25.001   1.954  53.341  1.00  0.00     0.161 C 
BRANCH   7   8
HETATM    8  C6  UNL     1      25.204   2.416  51.946  1.00  0.00    -0.040 C 
HETATM    9  C7  UNL     1      26.419   2.503  51.376  1.00  0.00     0.010 C 
HETATM   10  C8  UNL     1      26.463   2.975  49.996  1.00  0.00     0.014 C 
HETATM   11  C9  UNL     1      25.369   3.579  49.560  1.00  0.00    -0.014 C 
HETATM   12  C10 UNL     1      24.247   3.072  49.909  1.00  0.00    -0.013 C 
HETATM   13  C11 UNL     1      24.003   2.853  51.191  1.00  0.00     0.022 C 
ENDBRANCH   7   8
ENDBRANCH   1   7
BRANCH   1  14
HETATM   14  C12 UNL     1      23.240   0.031  53.591  1.00  0.00     0.067 A 
HETATM   15  C13 UNL     1      22.141   0.266  52.800  1.00  0.00     0.167 A 
HETATM   16  N3  UNL     1      20.957  -0.323  52.998  1.00  0.00    -0.073 NA
HETATM   17  C14 UNL     1      20.739  -1.194  53.986  1.00  0.00     0.719 A 
HETATM   18  N5  UNL     1      21.808  -1.454  54.792  1.00  0.00    -0.073 NA
HETATM   19  C15 UNL     1      22.995  -0.866  54.597  1.00  0.00     0.167 A 
BRANCH  17  20
HETATM   20  N4  UNL     1      19.433  -1.734  54.071  1.00  0.00    -0.231 N 
HETATM   21  H15 UNL     1      19.221  -2.724  54.355  1.00  0.00     0.174 HD
HETATM   22  H16 UNL     1      18.779  -0.978  53.804  1.00  0.00     0.174 HD
ENDBRANCH  17  20
ENDBRANCH   1  14
TORSDOF 7
ENDMDL
MODEL 4
REMARK VINA RESULT:      -6.8      2.515      3.081
REMARK  7 active torsions:
REMARK  status: ('A' for Active; 'I' for Inactive)
REMARK    1  A    between atoms: N1_3  and  C3_4 
REMARK    2  A    between atoms: C3_4  and  C4_5 
REMARK    3  A    between atoms: C4_5  and  N2_6 
REMARK    4  A    between atoms: N2_6  and  C5_7 
REMARK    5  A    between atoms: N2_6  and  C12_14 
REMARK    6  A    between atoms: C5_7  and  C6_8 
REMARK    7  A    between atoms: C14_17  and  N4_18 
ROOT
HETATM    1  N2  UNL     1      26.092   1.517  52.518  1.00  0.00    -0.373 N 
ENDROOT
BRANCH   1   2
HETATM    2  C4  UNL     1      26.689   2.613  51.760  1.00  0.00     0.145 C 
BRANCH   2   3
HETATM    3  C3  UNL     1      26.244   2.632  50.311  1.00  0.00     0.167 C 
BRANCH   3   4
HETATM    4  N1  UNL     1      27.076   3.635  49.655  1.00  0.00    -0.304 NA
HETATM    5  C2  UNL     1      26.578   4.686  49.141  1.00  0.00     0.079 C 
HETATM    6  C1  UNL     1      27.649   5.555  48.527  1.00  0.00     0.056 C 
ENDBRANCH   3   4
ENDBRANCH   2   3
ENDBRANCH   1   2
BRANCH   1   7
HETATM    7  C5  UNL     1      24.839   2.034  52.977  1.00  0.00     0.161 C 
BRANCH   7   8
HETATM    8  C6  UNL     1      23.621   1.288  52.575  1.00  0.00    -0.040 C 
HETATM    9  C7  UNL     1      22.911   1.590  51.474  1.00  0.00     0.010 C 
HETATM   10  C8  UNL     1      21.734   0.769  51.207  1.00  0.00     0.014 C 
HETATM   11  C9  UNL     1      21.296   0.045  52.225  1.00  0.00    -0.014 C 
HETATM   12  C10 UNL     1      22.179  -0.520  52.958  1.00  0.00    -0.013 C 
HETATM   13  C11 UNL     1      23.154   0.207  53.479  1.00  0.00     0.022 C 
ENDBRANCH   7   8
ENDBRANCH   1   7
BRANCH   1  14
HETATM   14  C12 UNL     1      26.750   0.270  52.663  1.00  0.00     0.067 A 
HETATM   15  C13 UNL     1      26.422  -0.946  52.114  1.00  0.00     0.167 A 
HETATM   16  N3  UNL     1      27.105  -2.069  52.360  1.00  0.00    -0.073 NA
HETATM   17  C14 UNL     1      28.168  -2.107  53.165  1.00  0.00     0.719 A 
HETATM   18  N5  UNL     1      28.526  -0.918  53.730  1.00  0.00    -0.073 NA
HETATM   19  C15 UNL     1      27.844   0.209  53.486  1.00  0.00     0.167 A 
BRANCH  17  20
HETATM   20  N4  UNL     1      28.787  -3.369  53.331  1.00  0.00    -0.231 N 
HETATM   21  H15 UNL     1      29.703  -3.640  52.891  1.00  0.00     0.174 HD
HETATM   22  H16 UNL     1      28.168  -3.927  53.945  1.00  0.00     0.174 HD
ENDBRANCH  17  20
ENDBRANCH   1  14
TORSDOF 7
ENDMDL
MODEL 5
REMARK VINA RESULT:      -6.6      1.903      4.713
REMARK  7 active torsions:
REMARK  status: ('A' for Active; 'I' for Inactive)
REMARK    1  A    between atoms: N1_3  and  C3_4 
REMARK    2  A    between atoms: C3_4  and  C4_5 
REMARK    3  A    between atoms: C4_5  and  N2_6 
REMARK    4  A    between atoms: N2_6  and  C5_7 
REMARK    5  A    between atoms: N2_6  and  C12_14 
REMARK    6  A    between atoms: C5_7  and  C6_8 
REMARK    7  A    between atoms: C14_17  and  N4_18 
ROOT
HETATM    1  N2  UNL     1      25.185   1.425  53.007  1.00  0.00    -0.373 N 
ENDROOT
BRANCH   1   2
HETATM    2  C4  UNL     1      26.457   1.384  53.723  1.00  0.00     0.145 C 
BRANCH   2   3
HETATM    3  C3  UNL     1      26.533   0.240  54.714  1.00  0.00     0.167 C 
BRANCH   3   4
HETATM    4  N1  UNL     1      27.898  -0.267  54.629  1.00  0.00    -0.304 NA
HETATM    5  C2  UNL     1      28.461  -0.492  53.510  1.00  0.00     0.079 C 
HETATM    6  C1  UNL     1      29.865  -1.010  53.699  1.00  0.00     0.056 C 
ENDBRANCH   3   4
ENDBRANCH   2   3
ENDBRANCH   1   2
BRANCH   1   7
HETATM    7  C5  UNL     1      24.744   0.064  52.973  1.00  0.00     0.161 C 
BRANCH   7   8
HETATM    8  C6  UNL     1      23.307  -0.180  53.252  1.00  0.00    -0.040 C 
HETATM    9  C7  UNL     1      22.325   0.221  52.424  1.00  0.00     0.010 C 
HETATM   10  C8  UNL     1      20.958  -0.088  52.830  1.00  0.00     0.014 C 
HETATM   11  C9  UNL     1      20.799  -0.422  54.102  1.00  0.00    -0.014 C 
HETATM   12  C10 UNL     1      21.688  -1.183  54.619  1.00  0.00    -0.013 C 
HETATM   13  C11 UNL     1      22.964  -0.841  54.536  1.00  0.00     0.022 C 
ENDBRANCH   7   8
ENDBRANCH   1   7
BRANCH   1  14
HETATM   14  C12 UNL     1      24.645   2.643  52.521  1.00  0.00     0.067 A 
HETATM   15  C13 UNL     1      24.600   3.110  51.231  1.00  0.00     0.167 A 
HETATM   16  N3  UNL     1      24.096   4.304  50.901  1.00  0.00    -0.073 NA
HETATM   17  C14 UNL     1      23.590   5.148  51.802  1.00  0.00     0.719 A 
HETATM   18  N5  UNL     1      23.615   4.718  53.096  1.00  0.00    -0.073 NA
HETATM   19  C15 UNL     1      24.121   3.524  53.430  1.00  0.00     0.167 A 
BRANCH  17  20
HETATM   20  N4  UNL     1      23.093   6.377  51.303  1.00  0.00    -0.231 N 
HETATM   21  H15 UNL     1      22.854   6.551  50.294  1.00  0.00     0.174 HD
HETATM   22  H16 UNL     1      23.025   7.021  52.110  1.00  0.00     0.174 HD
ENDBRANCH  17  20
ENDBRANCH   1  14
TORSDOF 7
ENDMDL
MODEL 6
REMARK VINA RESULT:      -6.4      1.471      5.560
REMARK  7 active torsions:
REMARK  status: ('A' for Active; 'I' for Inactive)
REMARK    1  A    between atoms: N1_3  and  C3_4 
REMARK    2  A    between atoms: C3_4  and  C4_5 
REMARK    3  A    between atoms: C4_5  and  N2_6 
REMARK    4  A    between atoms: N2_6  and  C5_7 
REMARK    5  A    between atoms: N2_6  and  C12_14 
REMARK    6  A    between atoms: C5_7  and  C6_8 
REMARK    7  A    between atoms: C14_17  and  N4_18 
ROOT
HETATM    1  N2  UNL     1      24.525   2.257  51.801  1.00  0.00    -0.373 N 
ENDROOT
BRANCH   1   2
HETATM    2  C4  UNL     1      23.372   1.545  51.258  1.00  0.00     0.145 C 
BRANCH   2   3
HETATM    3  C3  UNL     1      22.163   1.610  52.168  1.00  0.00     0.167 C 
BRANCH   3   4
HETATM    4  N1  UNL     1      22.131   0.335  52.875  1.00  0.00    -0.304 NA
HETATM    5  C2  UNL     1      21.582   0.215  54.016  1.00  0.00     0.079 C 
HETATM    6  C1  UNL     1      21.686  -1.201  54.528  1.00  0.00     0.056 C 
ENDBRANCH   3   4
ENDBRANCH   2   3
ENDBRANCH   1   2
BRANCH   1   7
HETATM    7  C5  UNL     1      24.309   3.625  51.441  1.00  0.00     0.161 C 
BRANCH   7   8
HETATM    8  C6  UNL     1      25.215   4.197  50.415  1.00  0.00    -0.040 C 
HETATM    9  C7  UNL     1      26.337   3.578  50.006  1.00  0.00     0.010 C 
HETATM   10  C8  UNL     1      27.130   4.262  48.990  1.00  0.00     0.014 C 
HETATM   11  C9  UNL     1      26.859   5.547  48.819  1.00  0.00    -0.014 C 
HETATM   12  C10 UNL     1      25.627   5.889  48.845  1.00  0.00    -0.013 C 
HETATM   13  C11 UNL     1      24.877   5.539  49.878  1.00  0.00     0.022 C 
ENDBRANCH   7   8
ENDBRANCH   1   7
BRANCH   1  14
HETATM   14  C12 UNL     1      25.548   1.581  52.514  1.00  0.00     0.067 A 
HETATM   15  C13 UNL     1      26.175   0.399  52.204  1.00  0.00     0.167 A 
HETATM   16  N3  UNL     1      27.106  -0.162  52.983  1.00  0.00    -0.073 NA
HETATM   17  C14 UNL     1      27.507   0.380  54.135  1.00  0.00     0.719 A 
HETATM   18  N5  UNL     1      26.907   1.556  54.476  1.00  0.00    -0.073 NA
HETATM   19  C15 UNL     1      25.974   2.121  53.699  1.00  0.00     0.167 A 
BRANCH  17  20
HETATM   20  N4  UNL     1      28.500  -0.331  54.852  1.00  0.00    -0.231 N 
HETATM   21  H15 UNL     1      29.533  -0.232  54.686  1.00  0.00     0.174 HD
HETATM   22  H16 UNL     1      28.003  -0.932  55.533  1.00  0.00     0.174 HD
ENDBRANCH  17  20
ENDBRANCH   1  14
TORSDOF 7
ENDMDL
MODEL 7
REMARK VINA RESULT:      -6.3      1.558      2.155
REMARK  7 active torsions:
REMARK  status: ('A' for Active; 'I' for Inactive)
REMARK    1  A    between atoms: N1_3  and  C3_4 
REMARK    2  A    between atoms: C3_4  and  C4_5 
REMARK    3  A    between atoms: C4_5  and  N2_6 
REMARK    4  A    between atoms: N2_6  and  C5_7 
REMARK    5  A    between atoms: N2_6  and  C12_14 
REMARK    6  A    between atoms: C5_7  and  C6_8 
REMARK    7  A    between atoms: C14_17  and  N4_18 
ROOT
HETATM    1  N2  UNL     1      24.642   1.813  52.634  1.00  0.00    -0.373 N 
ENDROOT
BRANCH   1   2
HETATM    2  C4  UNL     1      24.138   3.153  52.923  1.00  0.00     0.145 C 
BRANCH   2   3
HETATM    3  C3  UNL     1      23.998   4.005  51.678  1.00  0.00     0.167 C 
BRANCH   3   4
HETATM    4  N1  UNL     1      22.602   4.428  51.644  1.00  0.00    -0.304 NA
HETATM    5  C2  UNL     1      21.883   4.283  50.605  1.00  0.00     0.079 C 
HETATM    6  C1  UNL     1      20.483   4.801  50.831  1.00  0.00     0.056 C 
ENDBRANCH   3   4
ENDBRANCH   2   3
ENDBRANCH   1   2
BRANCH   1   7
HETATM    7  C5  UNL     1      23.509   1.102  52.125  1.00  0.00     0.161 C 
BRANCH   7   8
HETATM    8  C6  UNL     1      22.703   0.337  53.108  1.00  0.00    -0.040 C 
HETATM    9  C7  UNL     1      23.200  -0.698  53.811  1.00  0.00     0.010 C 
HETATM   10  C8  UNL     1      22.288  -1.356  54.741  1.00  0.00     0.014 C 
HETATM   11  C9  UNL     1      21.002  -1.099  54.563  1.00  0.00    -0.014 C 
HETATM   12  C10 UNL     1      20.684   0.106  54.277  1.00  0.00    -0.013 C 
HETATM   13  C11 UNL     1      21.274   0.710  53.258  1.00  0.00     0.022 C 
ENDBRANCH   7   8
ENDBRANCH   1   7
BRANCH   1  14
HETATM   14  C12 UNL     1      25.996   1.462  52.865  1.00  0.00     0.067 A 
HETATM   15  C13 UNL     1      26.668   0.326  52.484  1.00  0.00     0.167 A 
HETATM   16  N3  UNL     1      27.947   0.091  52.799  1.00  0.00    -0.073 NA
HETATM   17  C14 UNL     1      28.683   0.944  53.513  1.00  0.00     0.719 A 
HETATM   18  N5  UNL     1      28.051   2.086  53.908  1.00  0.00    -0.073 NA
HETATM   19  C15 UNL     1      26.770   2.324  53.596  1.00  0.00     0.167 A 
BRANCH  17  20
HETATM   20  N4  UNL     1      30.022   0.558  53.768  1.00  0.00    -0.231 N 
HETATM   21  H15 UNL     1      30.863   1.118  53.479  1.00  0.00     0.174 HD
HETATM   22  H16 UNL     1      29.981  -0.344  54.272  1.00  0.00     0.174 HD
ENDBRANCH  17  20
ENDBRANCH   1  14
TORSDOF 7
ENDMDL
MODEL 8
REMARK VINA RESULT:      -6.2      2.481      5.687
REMARK  7 active torsions:
REMARK  status: ('A' for Active; 'I' for Inactive)
REMARK    1  A    between atoms: N1_3  and  C3_4 
REMARK    2  A    between atoms: C3_4  and  C4_5 
REMARK    3  A    between atoms: C4_5  and  N2_6 
REMARK    4  A    between atoms: N2_6  and  C5_7 
REMARK    5  A    between atoms: N2_6  and  C12_14 
REMARK    6  A    between atoms: C5_7  and  C6_8 
REMARK    7  A    between atoms: C14_17  and  N4_18 
ROOT
HETATM    1  N2  UNL     1      23.596   0.059  53.313  1.00  0.00    -0.373 N 
ENDROOT
BRANCH   1   2
HETATM    2  C4  UNL     1      22.481  -0.865  53.126  1.00  0.00     0.145 C 
BRANCH   2   3
HETATM    3  C3  UNL     1      21.515  -0.859  54.293  1.00  0.00     0.167 C 
BRANCH   3   4
HETATM    4  N1  UNL     1      20.182  -0.800  53.703  1.00  0.00    -0.304 NA
HETATM    5  C2  UNL     1      19.936  -0.096  52.672  1.00  0.00     0.079 C 
HETATM    6  C1  UNL     1      18.487  -0.209  52.266  1.00  0.00     0.056 C 
ENDBRANCH   3   4
ENDBRANCH   2   3
ENDBRANCH   1   2
BRANCH   1   7
HETATM    7  C5  UNL     1      24.446  -0.585  54.267  1.00  0.00     0.161 C 
BRANCH   7   8
HETATM    8  C6  UNL     1      25.906  -0.525  54.010  1.00  0.00    -0.040 C 
HETATM    9  C7  UNL     1      26.498  -1.200  53.008  1.00  0.00     0.010 C 
HETATM   10  C8  UNL     1      27.943  -1.045  52.877  1.00  0.00     0.014 C 
HETATM   11  C9  UNL     1      28.564  -0.541  53.933  1.00  0.00    -0.014 C 
HETATM   12  C10 UNL     1      27.983   0.421  54.544  1.00  0.00    -0.013 C 
HETATM   13  C11 UNL     1      26.733   0.272  54.950  1.00  0.00     0.022 C 
ENDBRANCH   7   8
ENDBRANCH   1   7
BRANCH   1  14
HETATM   14  C12 UNL     1      23.666   1.291  52.613  1.00  0.00     0.067 A 
HETATM   15  C13 UNL     1      24.149   2.501  53.046  1.00  0.00     0.167 A 
HETATM   16  N3  UNL     1      24.123   3.610  52.299  1.00  0.00    -0.073 NA
HETATM   17  C14 UNL     1      23.624   3.636  51.062  1.00  0.00     0.719 A 
HETATM   18  N5  UNL     1      23.135   2.451  50.595  1.00  0.00    -0.073 NA
HETATM   19  C15 UNL     1      23.158   1.339  51.341  1.00  0.00     0.167 A 
BRANCH  17  20
HETATM   20  N4  UNL     1      23.664   4.884  50.394  1.00  0.00    -0.231 N 
HETATM   21  H15 UNL     1      24.547   5.345  50.056  1.00  0.00     0.174 HD
HETATM   22  H16 UNL     1      22.686   5.215  50.321  1.00  0.00     0.174 HD
ENDBRANCH  17  20
ENDBRANCH   1  14
TORSDOF 7
ENDMDL
MODEL 9
REMARK VINA RESULT:      -6.2      2.162      5.117
REMARK  7 active torsions:
REMARK  status: ('A' for Active; 'I' for Inactive)
REMARK    1  A    between atoms: N1_3  and  C3_4 
REMARK    2  A    between atoms: C3_4  and  C4_5 
REMARK    3  A    between atoms: C4_5  and  N2_6 
REMARK    4  A    between atoms: N2_6  and  C5_7 
REMARK    5  A    between atoms: N2_6  and  C12_14 
REMARK    6  A    between atoms: C5_7  and  C6_8 
REMARK    7  A    between atoms: C14_17  and  N4_18 
ROOT
HETATM    1  N2  UNL     1      25.047   1.602  52.042  1.00  0.00    -0.373 N 
ENDROOT
BRANCH   1   2
HETATM    2  C4  UNL     1      24.880   2.993  51.631  1.00  0.00     0.145 C 
BRANCH   2   3
HETATM    3  C3  UNL     1      25.699   3.343  50.405  1.00  0.00     0.167 C 
BRANCH   3   4
HETATM    4  N1  UNL     1      24.733   3.592  49.341  1.00  0.00    -0.304 NA
HETATM    5  C2  UNL     1      23.482   3.632  49.569  1.00  0.00     0.079 C 
HETATM    6  C1  UNL     1      22.705   3.903  48.304  1.00  0.00     0.056 C 
ENDBRANCH   3   4
ENDBRANCH   2   3
ENDBRANCH   1   2
BRANCH   1   7
HETATM    7  C5  UNL     1      26.351   1.240  51.576  1.00  0.00     0.161 C 
BRANCH   7   8
HETATM    8  C6  UNL     1      27.379   0.968  52.612  1.00  0.00    -0.040 C 
HETATM    9  C7  UNL     1      27.731  -0.278  52.980  1.00  0.00     0.010 C 
HETATM   10  C8  UNL     1      28.755  -0.391  54.013  1.00  0.00     0.014 C 
HETATM   11  C9  UNL     1      28.990   0.709  54.712  1.00  0.00    -0.014 C 
HETATM   12  C10 UNL     1      29.010   1.814  54.067  1.00  0.00    -0.013 C 
HETATM   13  C11 UNL     1      27.983   2.137  53.298  1.00  0.00     0.022 C 
ENDBRANCH   7   8
ENDBRANCH   1   7
BRANCH   1  14
HETATM   14  C12 UNL     1      24.032   0.909  52.750  1.00  0.00     0.067 A 
HETATM   15  C13 UNL     1      24.114  -0.287  53.420  1.00  0.00     0.167 A 
HETATM   16  N3  UNL     1      23.067  -0.862  54.021  1.00  0.00    -0.073 NA
HETATM   17  C14 UNL     1      21.847  -0.322  54.021  1.00  0.00     0.719 A 
HETATM   18  N5  UNL     1      21.726   0.868  53.365  1.00  0.00    -0.073 NA
HETATM   19  C15 UNL     1      22.772   1.446  52.761  1.00  0.00     0.167 A 
BRANCH  17  20
HETATM   20  N4  UNL     1      20.837  -1.049  54.697  1.00  0.00    -0.231 N 
HETATM   21  H15 UNL     1      19.947  -1.381  54.248  1.00  0.00     0.174 HD
HETATM   22  H16 UNL     1      21.158  -1.166  55.674  1.00  0.00     0.174 HD
ENDBRANCH  17  20
ENDBRANCH   1  14
TORSDOF 7
ENDMDL
