MODEL 1
REMARK VINA RESULT:      -7.3      0.000      0.000
REMARK  1 active torsions:
REMARK  status: ('A' for Active; 'I' for Inactive)
REMARK    1  A    between atoms: N1_1  and  C1_2 
ROOT
HETATM    1  C1  UNL     1      25.183   1.754  51.962  1.00  0.00     0.144 C 
HETATM    2  C2  UNL     1      24.927   2.947  51.365  1.00  0.00     0.125 C 
HETATM    3  S1  UNL     1      23.777   4.252  51.840  1.00  0.00    -0.000 SA
HETATM    4  N2  UNL     1      22.144   3.643  51.595  1.00  0.00    -0.225 N 
HETATM    5  N3  UNL     1      21.194   2.971  52.367  1.00  0.00    -0.165 NA
HETATM    6  C3  UNL     1      20.552   2.120  51.681  1.00  0.00     0.087 C 
HETATM    7  C4  UNL     1      19.686   0.959  52.008  1.00  0.00     0.030 C 
HETATM    8  C5  UNL     1      19.766  -0.237  52.640  1.00  0.00    -0.019 C 
HETATM    9  C6  UNL     1      21.171  -0.350  53.128  1.00  0.00     0.044 C 
HETATM   10  C7  UNL     1      21.837  -1.319  53.814  1.00  0.00    -0.012 C 
HETATM   11  C8  UNL     1      23.086  -0.511  53.804  1.00  0.00     0.025 C 
HETATM   12  C9  UNL     1      23.892   0.513  53.550  1.00  0.00     0.165 C 
HETATM   13  O1  UNL     1      24.329   1.753  53.074  1.00  0.00    -0.327 OA
HETATM   14  C10 UNL     1      20.784   2.429  50.246  1.00  0.00     0.013 C 
HETATM   15  C11 UNL     1      20.498   1.694  49.188  1.00  0.00    -0.002 C 
HETATM   16  C12 UNL     1      21.549   1.138  48.647  1.00  0.00    -0.013 C 
HETATM   17  C13 UNL     1      22.327   1.840  47.864  1.00  0.00     0.013 C 
HETATM   18  C14 UNL     1      22.642   3.232  48.206  1.00  0.00    -0.001 C 
HETATM   19  C15 UNL     1      22.296   4.044  49.199  1.00  0.00     0.006 C 
HETATM   20  C16 UNL     1      21.432   3.791  50.341  1.00  0.00     0.177 C 
ENDROOT
BRANCH   1  21
HETATM   21  N1  UNL     1      26.031   0.580  51.774  1.00  0.00    -0.380 N 
HETATM   22  H1  UNL     1      25.989   0.583  52.840  1.00  0.00     0.158 HD
HETATM   23  H2  UNL     1      26.056   0.602  50.707  1.00  0.00     0.158 HD
ENDBRANCH   1  21
TORSDOF 1
ENDMDL
MODEL 2
REMARK VINA RESULT:      -7.3      1.425      1.906
REMARK  1 active torsions:
REMARK  status: ('A' for Active; 'I' for Inactive)
REMARK    1  A    between atoms: N1_1  and  C1_2 
ROOT
HETATM    1  C1  UNL     1      24.586   4.193  51.343  1.00  0.00     0.144 C 
HETATM    2  C2  UNL     1      23.515   4.893  50.887  1.00  0.00     0.125 C 
HETATM    3  S1  UNL     1      21.908   5.172  51.656  1.00  0.00    -0.000 SA
HETATM    4  N2  UNL     1      21.049   3.636  51.675  1.00  0.00    -0.225 N 
HETATM    5  N3  UNL     1      20.924   2.562  52.560  1.00  0.00    -0.165 NA
HETATM    6  C3  UNL     1      20.872   1.454  51.947  1.00  0.00     0.087 C 
HETATM    7  C4  UNL     1      21.043   0.035  52.347  1.00  0.00     0.030 C 
HETATM    8  C5  UNL     1      21.994  -0.778  52.867  1.00  0.00    -0.019 C 
HETATM    9  C6  UNL     1      23.196   0.078  53.079  1.00  0.00     0.044 C 
HETATM   10  C7  UNL     1      24.442  -0.180  53.562  1.00  0.00    -0.012 C 
HETATM   11  C8  UNL     1      24.842   1.241  53.378  1.00  0.00     0.025 C 
HETATM   12  C9  UNL     1      24.729   2.523  53.051  1.00  0.00     0.165 C 
HETATM   13  O1  UNL     1      24.161   3.715  52.590  1.00  0.00    -0.327 OA
HETATM   14  C10 UNL     1      20.578   1.742  50.519  1.00  0.00     0.013 C 
HETATM   15  C11 UNL     1      20.646   0.927  49.483  1.00  0.00    -0.002 C 
HETATM   16  C12 UNL     1      21.684   1.148  48.720  1.00  0.00    -0.013 C 
HETATM   17  C13 UNL     1      21.659   2.132  47.858  1.00  0.00     0.013 C 
HETATM   18  C14 UNL     1      21.055   3.416  48.232  1.00  0.00    -0.001 C 
HETATM   19  C15 UNL     1      20.457   3.876  49.326  1.00  0.00     0.006 C 
HETATM   20  C16 UNL     1      20.193   3.202  50.588  1.00  0.00     0.177 C 
ENDROOT
BRANCH   1  21
HETATM   21  N1  UNL     1      25.939   3.838  50.920  1.00  0.00    -0.380 N 
HETATM   22  H1  UNL     1      25.574   2.861  51.143  1.00  0.00     0.158 HD
HETATM   23  H2  UNL     1      26.276   4.827  50.705  1.00  0.00     0.158 HD
ENDBRANCH   1  21
TORSDOF 1
ENDMDL
MODEL 3
REMARK VINA RESULT:      -6.8      2.715      5.223
REMARK  1 active torsions:
REMARK  status: ('A' for Active; 'I' for Inactive)
REMARK    1  A    between atoms: N1_1  and  C1_2 
ROOT
HETATM    1  C1  UNL     1      22.645   6.144  48.525  1.00  0.00     0.144 C 
HETATM    2  C2  UNL     1      21.593   6.016  49.374  1.00  0.00     0.125 C 
HETATM    3  S1  UNL     1      21.546   6.109  51.174  1.00  0.00    -0.000 SA
HETATM    4  N2  UNL     1      22.382   4.694  51.805  1.00  0.00    -0.225 N 
HETATM    5  N3  UNL     1      23.691   4.382  52.179  1.00  0.00    -0.165 NA
HETATM    6  C3  UNL     1      23.998   3.194  51.860  1.00  0.00     0.087 C 
HETATM    7  C4  UNL     1      25.274   2.448  51.730  1.00  0.00     0.030 C 
HETATM    8  C5  UNL     1      26.418   2.488  51.006  1.00  0.00    -0.019 C 
HETATM    9  C6  UNL     1      26.285   3.659  50.092  1.00  0.00     0.044 C 
HETATM   10  C7  UNL     1      27.101   4.188  49.140  1.00  0.00    -0.012 C 
HETATM   11  C8  UNL     1      26.114   5.261  48.843  1.00  0.00     0.025 C 
HETATM   12  C9  UNL     1      24.996   5.969  48.938  1.00  0.00     0.165 C 
HETATM   13  O1  UNL     1      23.732   6.374  49.379  1.00  0.00    -0.327 OA
HETATM   14  C10 UNL     1      22.736   2.467  51.562  1.00  0.00     0.013 C 
HETATM   15  C11 UNL     1      22.579   1.289  50.989  1.00  0.00    -0.002 C 
HETATM   16  C12 UNL     1      22.153   1.367  49.756  1.00  0.00    -0.013 C 
HETATM   17  C13 UNL     1      20.884   1.576  49.518  1.00  0.00     0.013 C 
HETATM   18  C14 UNL     1      20.132   2.524  50.347  1.00  0.00    -0.001 C 
HETATM   19  C15 UNL     1      20.437   3.291  51.389  1.00  0.00     0.006 C 
HETATM   20  C16 UNL     1      21.706   3.442  52.084  1.00  0.00     0.177 C 
ENDROOT
BRANCH   1  21
HETATM   21  N1  UNL     1      22.922   6.109  47.090  1.00  0.00    -0.380 N 
HETATM   22  H1  UNL     1      21.934   6.510  47.058  1.00  0.00     0.158 HD
HETATM   23  H2  UNL     1      23.908   5.706  47.154  1.00  0.00     0.158 HD
ENDBRANCH   1  21
TORSDOF 1
ENDMDL
MODEL 4
REMARK VINA RESULT:      -6.7     11.066     13.346
REMARK  1 active torsions:
REMARK  status: ('A' for Active; 'I' for Inactive)
REMARK    1  A    between atoms: N1_1  and  C1_2 
ROOT
HETATM    1  C1  UNL     1      32.579   7.724  44.183  1.00  0.00     0.144 C 
HETATM    2  C2  UNL     1      32.339   8.716  45.080  1.00  0.00     0.125 C 
HETATM    3  S1  UNL     1      33.431   9.440  46.318  1.00  0.00    -0.000 SA
HETATM    4  N2  UNL     1      33.715   8.223  47.558  1.00  0.00    -0.225 N 
HETATM    5  N3  UNL     1      34.658   7.217  47.785  1.00  0.00    -0.165 NA
HETATM    6  C3  UNL     1      34.127   6.185  48.293  1.00  0.00     0.087 C 
HETATM    7  C4  UNL     1      34.547   4.770  48.455  1.00  0.00     0.030 C 
HETATM    8  C5  UNL     1      34.883   3.704  47.689  1.00  0.00    -0.019 C 
HETATM    9  C6  UNL     1      34.780   4.166  46.274  1.00  0.00     0.044 C 
HETATM   10  C7  UNL     1      34.985   3.544  45.081  1.00  0.00    -0.012 C 
HETATM   11  C8  UNL     1      34.647   4.789  44.339  1.00  0.00     0.025 C 
HETATM   12  C9  UNL     1      34.292   6.053  44.147  1.00  0.00     0.165 C 
HETATM   13  O1  UNL     1      33.911   7.368  44.434  1.00  0.00    -0.327 OA
HETATM   14  C10 UNL     1      32.787   6.573  48.808  1.00  0.00     0.013 C 
HETATM   15  C11 UNL     1      31.803   5.794  49.215  1.00  0.00    -0.002 C 
HETATM   16  C12 UNL     1      30.818   5.715  48.359  1.00  0.00    -0.013 C 
HETATM   17  C13 UNL     1      29.936   6.679  48.293  1.00  0.00     0.013 C 
HETATM   18  C14 UNL     1      30.372   8.076  48.397  1.00  0.00    -0.001 C 
HETATM   19  C15 UNL     1      31.548   8.671  48.571  1.00  0.00     0.006 C 
HETATM   20  C16 UNL     1      32.868   8.080  48.726  1.00  0.00     0.177 C 
ENDROOT
BRANCH   1  21
HETATM   21  N1  UNL     1      31.883   6.995  43.124  1.00  0.00    -0.380 N 
HETATM   22  H1  UNL     1      31.077   7.088  43.817  1.00  0.00     0.158 HD
HETATM   23  H2  UNL     1      32.708   6.917  42.451  1.00  0.00     0.158 HD
ENDBRANCH   1  21
TORSDOF 1
ENDMDL
MODEL 5
REMARK VINA RESULT:      -6.4      2.058      4.725
REMARK  1 active torsions:
REMARK  status: ('A' for Active; 'I' for Inactive)
REMARK    1  A    between atoms: N1_1  and  C1_2 
ROOT
HETATM    1  C1  UNL     1      23.923   4.092  52.949  1.00  0.00     0.144 C 
HETATM    2  C2  UNL     1      24.422   2.834  53.061  1.00  0.00     0.125 C 
HETATM    3  S1  UNL     1      24.739   1.601  51.782  1.00  0.00    -0.000 SA
HETATM    4  N2  UNL     1      23.183   1.059  51.164  1.00  0.00    -0.225 N 
HETATM    5  N3  UNL     1      22.322   1.437  50.130  1.00  0.00    -0.165 NA
HETATM    6  C3  UNL     1      21.107   1.336  50.473  1.00  0.00     0.087 C 
HETATM    7  C4  UNL     1      19.826   1.860  49.935  1.00  0.00     0.030 C 
HETATM    8  C5  UNL     1      19.222   3.049  49.698  1.00  0.00    -0.019 C 
HETATM    9  C6  UNL     1      20.193   4.097  50.126  1.00  0.00     0.044 C 
HETATM   10  C7  UNL     1      20.143   5.457  50.135  1.00  0.00    -0.012 C 
HETATM   11  C8  UNL     1      21.516   5.535  50.704  1.00  0.00     0.025 C 
HETATM   12  C9  UNL     1      22.683   5.112  51.174  1.00  0.00     0.165 C 
HETATM   13  O1  UNL     1      23.698   4.237  51.573  1.00  0.00    -0.327 OA
HETATM   14  C10 UNL     1      21.052   0.495  51.697  1.00  0.00     0.013 C 
HETATM   15  C11 UNL     1      20.038   0.301  52.520  1.00  0.00    -0.002 C 
HETATM   16  C12 UNL     1      20.166   0.937  53.655  1.00  0.00    -0.013 C 
HETATM   17  C13 UNL     1      20.932   0.444  54.593  1.00  0.00     0.013 C 
HETATM   18  C14 UNL     1      22.217  -0.170  54.239  1.00  0.00    -0.001 C 
HETATM   19  C15 UNL     1      22.858  -0.386  53.095  1.00  0.00     0.006 C 
HETATM   20  C16 UNL     1      22.457  -0.058  51.736  1.00  0.00     0.177 C 
ENDROOT
BRANCH   1  21
HETATM   21  N1  UNL     1      23.589   5.231  53.801  1.00  0.00    -0.380 N 
HETATM   22  H1  UNL     1      22.922   4.511  54.219  1.00  0.00     0.158 HD
HETATM   23  H2  UNL     1      24.266   5.930  53.363  1.00  0.00     0.158 HD
ENDBRANCH   1  21
TORSDOF 1
ENDMDL
MODEL 6
REMARK VINA RESULT:      -6.4      2.588      4.470
REMARK  1 active torsions:
REMARK  status: ('A' for Active; 'I' for Inactive)
REMARK    1  A    between atoms: N1_1  and  C1_2 
ROOT
HETATM    1  C1  UNL     1      18.377   2.424  50.514  1.00  0.00     0.144 C 
HETATM    2  C2  UNL     1      18.978   3.077  49.486  1.00  0.00     0.125 C 
HETATM    3  S1  UNL     1      20.250   2.505  48.343  1.00  0.00    -0.000 SA
HETATM    4  N2  UNL     1      21.744   2.315  49.254  1.00  0.00    -0.225 N 
HETATM    5  N3  UNL     1      22.370   1.284  49.958  1.00  0.00    -0.165 NA
HETATM    6  C3  UNL     1      22.951   1.714  50.999  1.00  0.00     0.087 C 
HETATM    7  C4  UNL     1      23.486   1.079  52.230  1.00  0.00     0.030 C 
HETATM    8  C5  UNL     1      23.045   0.354  53.287  1.00  0.00    -0.019 C 
HETATM    9  C6  UNL     1      21.578   0.179  53.082  1.00  0.00     0.044 C 
HETATM   10  C7  UNL     1      20.611  -0.445  53.808  1.00  0.00    -0.012 C 
HETATM   11  C8  UNL     1      19.575  -0.071  52.808  1.00  0.00     0.025 C 
HETATM   12  C9  UNL     1      19.056   0.465  51.710  1.00  0.00     0.165 C 
HETATM   13  O1  UNL     1      18.978   1.158  50.497  1.00  0.00    -0.327 OA
HETATM   14  C10 UNL     1      23.072   3.190  50.871  1.00  0.00     0.013 C 
HETATM   15  C11 UNL     1      23.407   4.072  51.794  1.00  0.00    -0.002 C 
HETATM   16  C12 UNL     1      22.392   4.768  52.235  1.00  0.00    -0.013 C 
HETATM   17  C13 UNL     1      21.940   5.775  51.533  1.00  0.00     0.013 C 
HETATM   18  C14 UNL     1      21.848   5.665  50.073  1.00  0.00    -0.001 C 
HETATM   19  C15 UNL     1      22.149   4.715  49.194  1.00  0.00     0.006 C 
HETATM   20  C16 UNL     1      22.703   3.389  49.420  1.00  0.00     0.177 C 
ENDROOT
BRANCH   1  21
HETATM   21  N1  UNL     1      17.365   2.666  51.540  1.00  0.00    -0.380 N 
HETATM   22  H1  UNL     1      17.130   1.651  51.313  1.00  0.00     0.158 HD
HETATM   23  H2  UNL     1      17.621   3.681  51.745  1.00  0.00     0.158 HD
ENDBRANCH   1  21
TORSDOF 1
ENDMDL
MODEL 7
REMARK VINA RESULT:      -6.3      2.644      5.659
REMARK  1 active torsions:
REMARK  status: ('A' for Active; 'I' for Inactive)
REMARK    1  A    between atoms: N1_1  and  C1_2 
ROOT
HETATM    1  C1  UNL     1      21.876   2.007  48.197  1.00  0.00     0.144 C 
HETATM    2  C2  UNL     1      21.271   1.364  49.229  1.00  0.00     0.125 C 
HETATM    3  S1  UNL     1      20.160   2.006  50.496  1.00  0.00    -0.000 SA
HETATM    4  N2  UNL     1      21.098   3.062  51.546  1.00  0.00    -0.225 N 
HETATM    5  N3  UNL     1      21.408   4.424  51.588  1.00  0.00    -0.165 NA
HETATM    6  C3  UNL     1      22.597   4.620  51.980  1.00  0.00     0.087 C 
HETATM    7  C4  UNL     1      23.532   5.772  51.931  1.00  0.00     0.030 C 
HETATM    8  C5  UNL     1      24.155   6.551  51.013  1.00  0.00    -0.019 C 
HETATM    9  C6  UNL     1      23.719   6.043  49.679  1.00  0.00     0.044 C 
HETATM   10  C7  UNL     1      24.016   6.417  48.405  1.00  0.00    -0.012 C 
HETATM   11  C8  UNL     1      23.125   5.360  47.854  1.00  0.00     0.025 C 
HETATM   12  C9  UNL     1      22.274   4.342  47.851  1.00  0.00     0.165 C 
HETATM   13  O1  UNL     1      21.434   3.331  48.330  1.00  0.00    -0.327 OA
HETATM   14  C10 UNL     1      23.078   3.363  52.610  1.00  0.00     0.013 C 
HETATM   15  C11 UNL     1      24.308   3.035  52.960  1.00  0.00    -0.002 C 
HETATM   16  C12 UNL     1      24.860   2.167  52.153  1.00  0.00    -0.013 C 
HETATM   17  C13 UNL     1      24.563   0.898  52.260  1.00  0.00     0.013 C 
HETATM   18  C14 UNL     1      23.179   0.492  52.528  1.00  0.00    -0.001 C 
HETATM   19  C15 UNL     1      22.040   1.149  52.719  1.00  0.00     0.006 C 
HETATM   20  C16 UNL     1      21.790   2.582  52.726  1.00  0.00     0.177 C 
ENDROOT
BRANCH   1  21
HETATM   21  N1  UNL     1      22.781   1.716  47.088  1.00  0.00    -0.380 N 
HETATM   22  H1  UNL     1      23.226   1.094  47.831  1.00  0.00     0.158 HD
HETATM   23  H2  UNL     1      22.315   2.348  46.365  1.00  0.00     0.158 HD
ENDBRANCH   1  21
TORSDOF 1
ENDMDL
MODEL 8
REMARK VINA RESULT:      -6.3      9.112     11.559
REMARK  1 active torsions:
REMARK  status: ('A' for Active; 'I' for Inactive)
REMARK    1  A    between atoms: N1_1  and  C1_2 
ROOT
HETATM    1  C1  UNL     1      26.578   8.953  49.371  1.00  0.00     0.144 C 
HETATM    2  C2  UNL     1      26.373  10.171  48.805  1.00  0.00     0.125 C 
HETATM    3  S1  UNL     1      26.293  10.635  47.064  1.00  0.00    -0.000 SA
HETATM    4  N2  UNL     1      27.909  10.459  46.389  1.00  0.00    -0.225 N 
HETATM    5  N3  UNL     1      28.629   9.446  45.751  1.00  0.00    -0.165 NA
HETATM    6  C3  UNL     1      29.848   9.449  46.097  1.00  0.00     0.087 C 
HETATM    7  C4  UNL     1      30.963   8.474  45.995  1.00  0.00     0.030 C 
HETATM    8  C5  UNL     1      31.281   7.230  46.427  1.00  0.00    -0.019 C 
HETATM    9  C6  UNL     1      30.118   6.764  47.236  1.00  0.00     0.044 C 
HETATM   10  C7  UNL     1      29.867   5.615  47.919  1.00  0.00    -0.012 C 
HETATM   11  C8  UNL     1      28.530   6.118  48.337  1.00  0.00     0.025 C 
HETATM   12  C9  UNL     1      27.502   6.951  48.441  1.00  0.00     0.165 C 
HETATM   13  O1  UNL     1      26.719   8.098  48.270  1.00  0.00    -0.327 OA
HETATM   14  C10 UNL     1      30.129  10.757  46.746  1.00  0.00     0.013 C 
HETATM   15  C11 UNL     1      31.188  11.120  47.446  1.00  0.00    -0.002 C 
HETATM   16  C12 UNL     1      30.961  11.179  48.732  1.00  0.00    -0.013 C 
HETATM   17  C13 UNL     1      30.354  12.222  49.237  1.00  0.00     0.013 C 
HETATM   18  C14 UNL     1      29.226  12.828  48.523  1.00  0.00    -0.001 C 
HETATM   19  C15 UNL     1      28.610  12.571  47.373  1.00  0.00     0.006 C 
HETATM   20  C16 UNL     1      28.882  11.533  46.391  1.00  0.00     0.177 C 
ENDROOT
BRANCH   1  21
HETATM   21  N1  UNL     1      26.682   8.352  50.699  1.00  0.00    -0.380 N 
HETATM   22  H1  UNL     1      27.601   8.001  50.287  1.00  0.00     0.158 HD
HETATM   23  H2  UNL     1      25.756   8.717  51.084  1.00  0.00     0.158 HD
ENDBRANCH   1  21
TORSDOF 1
ENDMDL
MODEL 9
REMARK VINA RESULT:      -6.1     10.680     13.150
REMARK  1 active torsions:
REMARK  status: ('A' for Active; 'I' for Inactive)
REMARK    1  A    between atoms: N1_1  and  C1_2 
ROOT
HETATM    1  C1  UNL     1      31.192   6.307  48.883  1.00  0.00     0.144 C 
HETATM    2  C2  UNL     1      30.669   7.463  48.401  1.00  0.00     0.125 C 
HETATM    3  S1  UNL     1      29.920   7.810  46.797  1.00  0.00    -0.000 SA
HETATM    4  N2  UNL     1      31.195   7.740  45.585  1.00  0.00    -0.225 N 
HETATM    5  N3  UNL     1      31.742   6.760  44.755  1.00  0.00    -0.165 NA
HETATM    6  C3  UNL     1      32.996   6.896  44.634  1.00  0.00     0.087 C 
HETATM    7  C4  UNL     1      34.097   6.022  44.158  1.00  0.00     0.030 C 
HETATM    8  C5  UNL     1      34.681   4.841  44.475  1.00  0.00    -0.019 C 
HETATM    9  C6  UNL     1      33.942   4.322  45.662  1.00  0.00     0.044 C 
HETATM   10  C7  UNL     1      34.078   3.198  46.418  1.00  0.00    -0.012 C 
HETATM   11  C8  UNL     1      32.935   3.602  47.281  1.00  0.00     0.025 C 
HETATM   12  C9  UNL     1      31.930   4.343  47.730  1.00  0.00     0.165 C 
HETATM   13  O1  UNL     1      31.019   5.401  47.828  1.00  0.00    -0.327 OA
HETATM   14  C10 UNL     1      33.349   8.261  45.104  1.00  0.00     0.013 C 
HETATM   15  C11 UNL     1      34.543   8.761  45.362  1.00  0.00    -0.002 C 
HETATM   16  C12 UNL     1      34.788   8.879  46.641  1.00  0.00    -0.013 C 
HETATM   17  C13 UNL     1      34.295   9.891  47.307  1.00  0.00     0.013 C 
HETATM   18  C14 UNL     1      32.927  10.347  47.036  1.00  0.00    -0.001 C 
HETATM   19  C15 UNL     1      31.971   9.965  46.196  1.00  0.00     0.006 C 
HETATM   20  C16 UNL     1      31.982   8.897  45.208  1.00  0.00     0.177 C 
ENDROOT
BRANCH   1  21
HETATM   21  N1  UNL     1      31.829   5.800  50.097  1.00  0.00    -0.380 N 
HETATM   22  H1  UNL     1      32.658   5.719  49.430  1.00  0.00     0.158 HD
HETATM   23  H2  UNL     1      30.983   5.892  50.741  1.00  0.00     0.158 HD
ENDBRANCH   1  21
TORSDOF 1
ENDMDL
