MODEL 1
REMARK VINA RESULT:      -6.8      0.000      0.000
REMARK  6 active torsions:
REMARK  status: ('A' for Active; 'I' for Inactive)
REMARK    1  A    between atoms: O1_2  and  C2_3 
REMARK    2  A    between atoms: C4_6  and  C5_7 
REMARK    3  A    between atoms: N1_8  and  C6_9 
REMARK    4  A    between atoms: N2_10  and  C7_11 
REMARK    5  A    between atoms: C7_11  and  N3_12 
REMARK    6  A    between atoms: C15_21  and  O2_22 
ROOT
HETATM    1  C5  UNL     1      24.122   2.790  52.890  1.00  0.00     0.110 C 
HETATM    2  N1  UNL     1      23.122   3.464  52.441  1.00  0.00    -0.257 NA
ENDROOT
BRANCH   2   3
HETATM    3  C6  UNL     1      22.439   3.183  51.225  1.00  0.00     0.227 C 
HETATM    4  N2  UNL     1      21.202   2.765  51.124  1.00  0.00    -0.264 NA
BRANCH   4   5
HETATM    5  C7  UNL     1      20.459   2.569  52.335  1.00  0.00     0.269 C 
BRANCH   5   6
HETATM    6  N3  UNL     1      20.164   1.200  52.634  1.00  0.00    -0.389 N 
HETATM    7  C8  UNL     1      21.258   0.329  52.703  1.00  0.00     0.146 C 
HETATM    8  C9  UNL     1      21.153  -0.728  53.763  1.00  0.00    -0.006 C 
HETATM    9  C10 UNL     1      20.076  -1.492  54.019  1.00  0.00     0.016 C 
HETATM   10  C11 UNL     1      18.800  -1.429  53.301  1.00  0.00     0.008 C 
HETATM   11 BR1  UNL     1      17.587  -2.894  53.562  1.00  0.00    -0.051 Br
HETATM   12  C12 UNL     1      18.366  -0.462  52.474  1.00  0.00     0.011 C 
HETATM   13  C13 UNL     1      18.966   0.790  52.020  1.00  0.00     0.147 C 
ENDBRANCH   5   6
ENDBRANCH   4   5
ENDBRANCH   2   3
BRANCH   1  14
HETATM   14  C4  UNL     1      24.814   1.610  52.324  1.00  0.00     0.117 A 
HETATM   15  S1  UNL     1      26.470   2.032  51.715  1.00  0.00    -0.124 SA
HETATM   16  C3  UNL     1      27.585   0.991  52.644  1.00  0.00     0.085 A 
HETATM   17  C2  UNL     1      27.357   0.095  53.578  1.00  0.00     0.107 A 
HETATM   18  C15 UNL     1      25.954  -0.092  53.923  1.00  0.00     0.099 A 
HETATM   19  C14 UNL     1      24.961   0.573  53.358  1.00  0.00     0.033 A 
BRANCH  17  20
HETATM   20  O1  UNL     1      28.324  -0.656  54.232  1.00  0.00    -0.353 OA
HETATM   21  C1  UNL     1      29.405  -1.269  53.596  1.00  0.00     0.210 C 
ENDBRANCH  17  20
BRANCH  18  22
HETATM   22  O2  UNL     1      25.648  -1.030  54.907  1.00  0.00    -0.353 OA
HETATM   23  C16 UNL     1      24.406  -1.173  55.529  1.00  0.00     0.210 C 
ENDBRANCH  18  22
ENDBRANCH   1  14
TORSDOF 6
ENDMDL
MODEL 2
REMARK VINA RESULT:      -6.8      4.938      7.086
REMARK  6 active torsions:
REMARK  status: ('A' for Active; 'I' for Inactive)
REMARK    1  A    between atoms: O1_2  and  C2_3 
REMARK    2  A    between atoms: C4_6  and  C5_7 
REMARK    3  A    between atoms: N1_8  and  C6_9 
REMARK    4  A    between atoms: N2_10  and  C7_11 
REMARK    5  A    between atoms: C7_11  and  N3_12 
REMARK    6  A    between atoms: C15_21  and  O2_22 
ROOT
HETATM    1  C5  UNL     1      23.950   1.683  51.469  1.00  0.00     0.110 C 
HETATM    2  N1  UNL     1      23.496   2.693  50.812  1.00  0.00    -0.257 NA
ENDROOT
BRANCH   2   3
HETATM    3  C6  UNL     1      23.018   3.894  51.404  1.00  0.00     0.227 C 
HETATM    4  N2  UNL     1      23.045   5.081  50.850  1.00  0.00    -0.264 NA
BRANCH   4   5
HETATM    5  C7  UNL     1      23.600   5.193  49.533  1.00  0.00     0.269 C 
BRANCH   5   6
HETATM    6  N3  UNL     1      24.879   5.836  49.483  1.00  0.00    -0.389 N 
HETATM    7  C8  UNL     1      25.995   4.995  49.408  1.00  0.00     0.146 C 
HETATM    8  C9  UNL     1      27.109   5.505  48.541  1.00  0.00    -0.006 C 
HETATM    9  C10 UNL     1      27.607   6.754  48.541  1.00  0.00     0.016 C 
HETATM   10  C11 UNL     1      27.147   7.852  49.396  1.00  0.00     0.008 C 
HETATM   11 BR1  UNL     1      28.287   9.393  49.514  1.00  0.00    -0.051 Br
HETATM   12  C12 UNL     1      26.014   7.917  50.116  1.00  0.00     0.011 C 
HETATM   13  C13 UNL     1      24.906   6.983  50.298  1.00  0.00     0.147 C 
ENDBRANCH   5   6
ENDBRANCH   4   5
ENDBRANCH   2   3
BRANCH   1  14
HETATM   14  C4  UNL     1      24.101   1.480  52.928  1.00  0.00     0.117 A 
HETATM   15  S1  UNL     1      24.018  -0.277  53.373  1.00  0.00    -0.124 SA
HETATM   16  C3  UNL     1      25.576  -0.628  54.172  1.00  0.00     0.085 A 
HETATM   17  C2  UNL     1      26.610   0.141  54.426  1.00  0.00     0.107 A 
HETATM   18  C15 UNL     1      26.475   1.523  53.984  1.00  0.00     0.099 A 
HETATM   19  C14 UNL     1      25.405   1.999  53.372  1.00  0.00     0.033 A 
BRANCH  17  20
HETATM   20  O1  UNL     1      27.778  -0.258  55.061  1.00  0.00    -0.353 OA
HETATM   21  C1  UNL     1      28.955  -0.604  54.395  1.00  0.00     0.210 C 
ENDBRANCH  17  20
BRANCH  18  22
HETATM   22  O2  UNL     1      27.541   2.388  54.226  1.00  0.00    -0.353 OA
HETATM   23  C16 UNL     1      28.616   2.606  53.361  1.00  0.00     0.210 C 
ENDBRANCH  18  22
ENDBRANCH   1  14
TORSDOF 6
ENDMDL
MODEL 3
REMARK VINA RESULT:      -6.7      4.653      6.792
REMARK  6 active torsions:
REMARK  status: ('A' for Active; 'I' for Inactive)
REMARK    1  A    between atoms: O1_2  and  C2_3 
REMARK    2  A    between atoms: C4_6  and  C5_7 
REMARK    3  A    between atoms: N1_8  and  C6_9 
REMARK    4  A    between atoms: N2_10  and  C7_11 
REMARK    5  A    between atoms: C7_11  and  N3_12 
REMARK    6  A    between atoms: C15_21  and  O2_22 
ROOT
HETATM    1  C5  UNL     1      23.625   2.321  52.653  1.00  0.00     0.110 C 
HETATM    2  N1  UNL     1      22.928   3.130  51.935  1.00  0.00    -0.257 NA
ENDROOT
BRANCH   2   3
HETATM    3  C6  UNL     1      22.858   3.093  50.515  1.00  0.00     0.227 C 
HETATM    4  N2  UNL     1      23.417   3.954  49.701  1.00  0.00    -0.264 NA
BRANCH   4   5
HETATM    5  C7  UNL     1      24.169   5.031  50.277  1.00  0.00     0.269 C 
BRANCH   5   6
HETATM    6  N3  UNL     1      25.304   5.439  49.506  1.00  0.00    -0.389 N 
HETATM    7  C8  UNL     1      25.057   6.341  48.464  1.00  0.00     0.146 C 
HETATM    8  C9  UNL     1      26.128   7.372  48.258  1.00  0.00    -0.006 C 
HETATM    9  C10 UNL     1      27.453   7.145  48.222  1.00  0.00     0.016 C 
HETATM   10  C11 UNL     1      28.095   5.836  48.378  1.00  0.00     0.008 C 
HETATM   11 BR1  UNL     1      29.940   5.711  47.862  1.00  0.00    -0.051 Br
HETATM   12  C12 UNL     1      27.547   4.699  48.842  1.00  0.00     0.011 C 
HETATM   13  C13 UNL     1      26.208   4.376  49.327  1.00  0.00     0.147 C 
ENDBRANCH   5   6
ENDBRANCH   4   5
ENDBRANCH   2   3
BRANCH   1  14
HETATM   14  C4  UNL     1      24.498   1.194  52.254  1.00  0.00     0.117 A 
HETATM   15  S1  UNL     1      26.128   1.770  51.704  1.00  0.00    -0.124 SA
HETATM   16  C3  UNL     1      27.294   0.977  52.801  1.00  0.00     0.085 A 
HETATM   17  C2  UNL     1      27.113   0.152  53.806  1.00  0.00     0.107 A 
HETATM   18  C15 UNL     1      25.723  -0.185  54.085  1.00  0.00     0.099 A 
HETATM   19  C14 UNL     1      24.698   0.288  53.396  1.00  0.00     0.033 A 
BRANCH  17  20
HETATM   20  O1  UNL     1      28.116  -0.400  54.591  1.00  0.00    -0.353 OA
HETATM   21  C1  UNL     1      29.380  -0.752  54.115  1.00  0.00     0.210 C 
ENDBRANCH  17  20
BRANCH  18  22
HETATM   22  O2  UNL     1      25.467  -1.058  55.141  1.00  0.00    -0.353 OA
HETATM   23  C16 UNL     1      24.201  -1.366  55.645  1.00  0.00     0.210 C 
ENDBRANCH  18  22
ENDBRANCH   1  14
TORSDOF 6
ENDMDL
MODEL 4
REMARK VINA RESULT:      -6.5      3.365      4.999
REMARK  6 active torsions:
REMARK  status: ('A' for Active; 'I' for Inactive)
REMARK    1  A    between atoms: O1_2  and  C2_3 
REMARK    2  A    between atoms: C4_6  and  C5_7 
REMARK    3  A    between atoms: N1_8  and  C6_9 
REMARK    4  A    between atoms: N2_10  and  C7_11 
REMARK    5  A    between atoms: C7_11  and  N3_12 
REMARK    6  A    between atoms: C15_21  and  O2_22 
ROOT
HETATM    1  C5  UNL     1      22.583   0.605  53.027  1.00  0.00     0.110 C 
HETATM    2  N1  UNL     1      21.476   0.320  52.435  1.00  0.00    -0.257 NA
ENDROOT
BRANCH   2   3
HETATM    3  C6  UNL     1      21.309   0.251  51.024  1.00  0.00     0.227 C 
HETATM    4  N2  UNL     1      21.056   1.265  50.235  1.00  0.00    -0.264 NA
BRANCH   4   5
HETATM    5  C7  UNL     1      20.937   2.564  50.831  1.00  0.00     0.269 C 
BRANCH   5   6
HETATM    6  N3  UNL     1      22.014   3.457  50.524  1.00  0.00    -0.389 N 
HETATM    7  C8  UNL     1      21.726   4.825  50.592  1.00  0.00     0.146 C 
HETATM    8  C9  UNL     1      22.841   5.676  51.127  1.00  0.00    -0.006 C 
HETATM    9  C10 UNL     1      24.136   5.604  50.771  1.00  0.00     0.016 C 
HETATM   10  C11 UNL     1      24.696   4.674  49.787  1.00  0.00     0.008 C 
HETATM   11 BR1  UNL     1      26.465   5.054  49.146  1.00  0.00    -0.051 Br
HETATM   12  C12 UNL     1      24.120   3.574  49.271  1.00  0.00     0.011 C 
HETATM   13  C13 UNL     1      22.817   2.950  49.486  1.00  0.00     0.147 C 
ENDBRANCH   5   6
ENDBRANCH   4   5
ENDBRANCH   2   3
BRANCH   1  14
HETATM   14  C4  UNL     1      23.915   0.925  52.466  1.00  0.00     0.117 A 
HETATM   15  S1  UNL     1      24.532   2.521  53.068  1.00  0.00    -0.124 SA
HETATM   16  C3  UNL     1      26.074   2.143  53.887  1.00  0.00     0.085 A 
HETATM   17  C2  UNL     1      26.701   1.003  54.068  1.00  0.00     0.107 A 
HETATM   18  C15 UNL     1      26.033  -0.164  53.505  1.00  0.00     0.099 A 
HETATM   19  C14 UNL     1      24.883  -0.113  52.856  1.00  0.00     0.033 A 
BRANCH  17  20
HETATM   20  O1  UNL     1      27.909   0.841  54.732  1.00  0.00    -0.353 OA
HETATM   21  C1  UNL     1      29.160   0.961  54.126  1.00  0.00     0.210 C 
ENDBRANCH  17  20
BRANCH  18  22
HETATM   22  O2  UNL     1      26.651  -1.403  53.665  1.00  0.00    -0.353 OA
HETATM   23  C16 UNL     1      27.086  -2.228  52.625  1.00  0.00     0.210 C 
ENDBRANCH  18  22
ENDBRANCH   1  14
TORSDOF 6
ENDMDL
MODEL 5
REMARK VINA RESULT:      -6.5      4.195      7.435
REMARK  6 active torsions:
REMARK  status: ('A' for Active; 'I' for Inactive)
REMARK    1  A    between atoms: O1_2  and  C2_3 
REMARK    2  A    between atoms: C4_6  and  C5_7 
REMARK    3  A    between atoms: N1_8  and  C6_9 
REMARK    4  A    between atoms: N2_10  and  C7_11 
REMARK    5  A    between atoms: C7_11  and  N3_12 
REMARK    6  A    between atoms: C15_21  and  O2_22 
ROOT
HETATM    1  C5  UNL     1      21.372   2.178  52.257  1.00  0.00     0.110 C 
HETATM    2  N1  UNL     1      22.223   2.982  51.723  1.00  0.00    -0.257 NA
ENDROOT
BRANCH   2   3
HETATM    3  C6  UNL     1      23.135   2.626  50.692  1.00  0.00     0.227 C 
HETATM    4  N2  UNL     1      24.429   2.479  50.834  1.00  0.00    -0.264 NA
BRANCH   4   5
HETATM    5  C7  UNL     1      24.988   2.692  52.138  1.00  0.00     0.269 C 
BRANCH   5   6
HETATM    6  N3  UNL     1      25.815   1.621  52.608  1.00  0.00    -0.389 N 
HETATM    7  C8  UNL     1      25.164   0.585  53.287  1.00  0.00     0.146 C 
HETATM    8  C9  UNL     1      25.715  -0.785  53.019  1.00  0.00    -0.006 C 
HETATM    9  C10 UNL     1      27.014  -1.131  53.008  1.00  0.00     0.016 C 
HETATM   10  C11 UNL     1      28.137  -0.223  53.260  1.00  0.00     0.008 C 
HETATM   11 BR1  UNL     1      29.842  -1.032  53.611  1.00  0.00    -0.051 Br
HETATM   12  C12 UNL     1      28.123   1.122  53.275  1.00  0.00     0.011 C 
HETATM   13  C13 UNL     1      27.059   2.099  53.062  1.00  0.00     0.147 C 
ENDBRANCH   5   6
ENDBRANCH   4   5
ENDBRANCH   2   3
BRANCH   1  14
HETATM   14  C4  UNL     1      21.103   0.748  51.983  1.00  0.00     0.117 A 
HETATM   15  S1  UNL     1      21.450  -0.289  53.430  1.00  0.00    -0.124 SA
HETATM   16  C3  UNL     1      19.902  -1.100  53.802  1.00  0.00     0.085 A 
HETATM   17  C2  UNL     1      18.726  -1.026  53.222  1.00  0.00     0.107 A 
HETATM   18  C15 UNL     1      18.660  -0.132  52.073  1.00  0.00     0.099 A 
HETATM   19  C14 UNL     1      19.688   0.566  51.623  1.00  0.00     0.033 A 
BRANCH  17  20
HETATM   20  O1  UNL     1      17.586  -1.716  53.613  1.00  0.00    -0.353 OA
HETATM   21  C1  UNL     1      17.474  -3.106  53.620  1.00  0.00     0.210 C 
ENDBRANCH  17  20
BRANCH  18  22
HETATM   22  O2  UNL     1      17.437  -0.013  51.414  1.00  0.00    -0.353 OA
HETATM   23  C16 UNL     1      17.250  -0.116  50.034  1.00  0.00     0.210 C 
ENDBRANCH  18  22
ENDBRANCH   1  14
TORSDOF 6
ENDMDL
MODEL 6
REMARK VINA RESULT:      -6.4      4.032      7.273
REMARK  6 active torsions:
REMARK  status: ('A' for Active; 'I' for Inactive)
REMARK    1  A    between atoms: O1_2  and  C2_3 
REMARK    2  A    between atoms: C4_6  and  C5_7 
REMARK    3  A    between atoms: N1_8  and  C6_9 
REMARK    4  A    between atoms: N2_10  and  C7_11 
REMARK    5  A    between atoms: C7_11  and  N3_12 
REMARK    6  A    between atoms: C15_21  and  O2_22 
ROOT
HETATM    1  C5  UNL     1      20.143   1.153  50.713  1.00  0.00     0.110 C 
HETATM    2  N1  UNL     1      21.222   1.812  50.473  1.00  0.00    -0.257 NA
ENDROOT
BRANCH   2   3
HETATM    3  C6  UNL     1      21.878   2.658  51.408  1.00  0.00     0.227 C 
HETATM    4  N2  UNL     1      22.921   2.333  52.131  1.00  0.00    -0.264 NA
BRANCH   4   5
HETATM    5  C7  UNL     1      23.459   1.013  51.976  1.00  0.00     0.269 C 
BRANCH   5   6
HETATM    6  N3  UNL     1      24.753   0.830  52.561  1.00  0.00    -0.389 N 
HETATM    7  C8  UNL     1      25.028  -0.442  53.076  1.00  0.00     0.146 C 
HETATM    8  C9  UNL     1      26.440  -0.910  52.875  1.00  0.00    -0.006 C 
HETATM    9  C10 UNL     1      27.554  -0.191  53.096  1.00  0.00     0.016 C 
HETATM   10  C11 UNL     1      27.590   1.193  53.579  1.00  0.00     0.008 C 
HETATM   11 BR1  UNL     1      29.280   1.843  54.218  1.00  0.00    -0.051 Br
HETATM   12  C12 UNL     1      26.576   2.075  53.631  1.00  0.00     0.011 C 
HETATM   13  C13 UNL     1      25.169   1.982  53.252  1.00  0.00     0.147 C 
ENDBRANCH   5   6
ENDBRANCH   4   5
ENDBRANCH   2   3
BRANCH   1  14
HETATM   14  C4  UNL     1      19.319   1.081  51.941  1.00  0.00     0.117 A 
HETATM   15  S1  UNL     1      17.619   0.563  51.579  1.00  0.00    -0.124 SA
HETATM   16  C3  UNL     1      17.376  -0.931  52.528  1.00  0.00     0.085 A 
HETATM   17  C2  UNL     1      18.183  -1.585  53.331  1.00  0.00     0.107 A 
HETATM   18  C15 UNL     1      19.508  -1.001  53.485  1.00  0.00     0.099 A 
HETATM   19  C14 UNL     1      19.901   0.104  52.876  1.00  0.00     0.033 A 
BRANCH  17  20
HETATM   20  O1  UNL     1      17.870  -2.751  54.018  1.00  0.00    -0.353 OA
HETATM   21  C1  UNL     1      17.081  -3.779  53.500  1.00  0.00     0.210 C 
ENDBRANCH  17  20
BRANCH  18  22
HETATM   22  O2  UNL     1      20.409  -1.651  54.327  1.00  0.00    -0.353 OA
HETATM   23  C16 UNL     1      21.697  -1.204  54.630  1.00  0.00     0.210 C 
ENDBRANCH  18  22
ENDBRANCH   1  14
TORSDOF 6
ENDMDL
MODEL 7
REMARK VINA RESULT:      -6.3      4.459      7.590
REMARK  6 active torsions:
REMARK  status: ('A' for Active; 'I' for Inactive)
REMARK    1  A    between atoms: O1_2  and  C2_3 
REMARK    2  A    between atoms: C4_6  and  C5_7 
REMARK    3  A    between atoms: N1_8  and  C6_9 
REMARK    4  A    between atoms: N2_10  and  C7_11 
REMARK    5  A    between atoms: C7_11  and  N3_12 
REMARK    6  A    between atoms: C15_21  and  O2_22 
ROOT
HETATM    1  C5  UNL     1      20.262   0.525  53.376  1.00  0.00     0.110 C 
HETATM    2  N1  UNL     1      21.049   0.140  54.318  1.00  0.00    -0.257 NA
ENDROOT
BRANCH   2   3
HETATM    3  C6  UNL     1      21.957  -0.949  54.218  1.00  0.00     0.227 C 
HETATM    4  N2  UNL     1      23.210  -0.867  53.845  1.00  0.00    -0.264 NA
BRANCH   4   5
HETATM    5  C7  UNL     1      23.724   0.428  53.506  1.00  0.00     0.269 C 
BRANCH   5   6
HETATM    6  N3  UNL     1      25.151   0.487  53.396  1.00  0.00    -0.389 N 
HETATM    7  C8  UNL     1      25.685   1.666  52.863  1.00  0.00     0.146 C 
HETATM    8  C9  UNL     1      26.973   2.112  53.491  1.00  0.00    -0.006 C 
HETATM    9  C10 UNL     1      28.036   1.334  53.764  1.00  0.00     0.016 C 
HETATM   10  C11 UNL     1      28.127  -0.104  53.492  1.00  0.00     0.008 C 
HETATM   11 BR1  UNL     1      29.877  -0.889  53.571  1.00  0.00    -0.051 Br
HETATM   12  C12 UNL     1      27.128  -0.951  53.193  1.00  0.00     0.011 C 
HETATM   13  C13 UNL     1      25.688  -0.763  53.038  1.00  0.00     0.147 C 
ENDBRANCH   5   6
ENDBRANCH   4   5
ENDBRANCH   2   3
BRANCH   1  14
HETATM   14  C4  UNL     1      20.075  -0.006  52.007  1.00  0.00     0.117 A 
HETATM   15  S1  UNL     1      18.436   0.400  51.346  1.00  0.00    -0.124 SA
HETATM   16  C3  UNL     1      18.753   1.341  49.862  1.00  0.00     0.085 A 
HETATM   17  C2  UNL     1      19.879   1.709  49.295  1.00  0.00     0.107 A 
HETATM   18  C15 UNL     1      21.087   1.281  49.988  1.00  0.00     0.099 A 
HETATM   19  C14 UNL     1      21.084   0.573  51.104  1.00  0.00     0.033 A 
BRANCH  17  20
HETATM   20  O1  UNL     1      19.992   2.451  48.127  1.00  0.00    -0.353 OA
HETATM   21  C1  UNL     1      19.163   3.523  47.794  1.00  0.00     0.210 C 
ENDBRANCH  17  20
BRANCH  18  22
HETATM   22  O2  UNL     1      22.314   1.642  49.434  1.00  0.00    -0.353 OA
HETATM   23  C16 UNL     1      23.249   2.493  50.028  1.00  0.00     0.210 C 
ENDBRANCH  18  22
ENDBRANCH   1  14
TORSDOF 6
ENDMDL
MODEL 8
REMARK VINA RESULT:      -6.2      3.493      5.389
REMARK  6 active torsions:
REMARK  status: ('A' for Active; 'I' for Inactive)
REMARK    1  A    between atoms: O1_2  and  C2_3 
REMARK    2  A    between atoms: C4_6  and  C5_7 
REMARK    3  A    between atoms: N1_8  and  C6_9 
REMARK    4  A    between atoms: N2_10  and  C7_11 
REMARK    5  A    between atoms: C7_11  and  N3_12 
REMARK    6  A    between atoms: C15_21  and  O2_22 
ROOT
HETATM    1  C5  UNL     1      22.015   0.487  52.138  1.00  0.00     0.110 C 
HETATM    2  N1  UNL     1      20.844   1.006  52.007  1.00  0.00    -0.257 NA
ENDROOT
BRANCH   2   3
HETATM    3  C6  UNL     1      20.359   2.107  52.765  1.00  0.00     0.227 C 
HETATM    4  N2  UNL     1      20.071   3.293  52.289  1.00  0.00    -0.264 NA
BRANCH   4   5
HETATM    5  C7  UNL     1      20.255   3.514  50.884  1.00  0.00     0.269 C 
BRANCH   5   6
HETATM    6  N3  UNL     1      21.519   4.090  50.537  1.00  0.00    -0.389 N 
HETATM    7  C8  UNL     1      22.342   3.327  49.701  1.00  0.00     0.146 C 
HETATM    8  C9  UNL     1      23.125   4.119  48.695  1.00  0.00    -0.006 C 
HETATM    9  C10 UNL     1      23.816   5.247  48.936  1.00  0.00     0.016 C 
HETATM   10  C11 UNL     1      23.930   5.911  50.238  1.00  0.00     0.008 C 
HETATM   11 BR1  UNL     1      25.303   7.242  50.413  1.00  0.00    -0.051 Br
HETATM   12  C12 UNL     1      23.185   5.703  51.338  1.00  0.00     0.011 C 
HETATM   13  C13 UNL     1      22.069   4.804  51.618  1.00  0.00     0.147 C 
ENDBRANCH   5   6
ENDBRANCH   4   5
ENDBRANCH   2   3
BRANCH   1  14
HETATM   14  C4  UNL     1      23.127   0.850  53.046  1.00  0.00     0.117 A 
HETATM   15  S1  UNL     1      23.620  -0.546  54.094  1.00  0.00    -0.124 SA
HETATM   16  C3  UNL     1      25.344  -0.824  53.717  1.00  0.00     0.085 A 
HETATM   17  C2  UNL     1      26.156  -0.212  52.885  1.00  0.00     0.107 A 
HETATM   18  C15 UNL     1      25.560   0.885  52.135  1.00  0.00     0.099 A 
HETATM   19  C14 UNL     1      24.300   1.263  52.259  1.00  0.00     0.033 A 
BRANCH  17  20
HETATM   20  O1  UNL     1      27.493  -0.529  52.681  1.00  0.00    -0.353 OA
HETATM   21  C1  UNL     1      28.521  -0.204  53.566  1.00  0.00     0.210 C 
ENDBRANCH  17  20
BRANCH  18  22
HETATM   22  O2  UNL     1      26.374   1.573  51.236  1.00  0.00    -0.353 OA
HETATM   23  C16 UNL     1      26.115   2.846  50.723  1.00  0.00     0.210 C 
ENDBRANCH  18  22
ENDBRANCH   1  14
TORSDOF 6
ENDMDL
MODEL 9
REMARK VINA RESULT:      -6.1      2.893      4.121
REMARK  6 active torsions:
REMARK  status: ('A' for Active; 'I' for Inactive)
REMARK    1  A    between atoms: O1_2  and  C2_3 
REMARK    2  A    between atoms: C4_6  and  C5_7 
REMARK    3  A    between atoms: N1_8  and  C6_9 
REMARK    4  A    between atoms: N2_10  and  C7_11 
REMARK    5  A    between atoms: C7_11  and  N3_12 
REMARK    6  A    between atoms: C15_21  and  O2_22 
ROOT
HETATM    1  C5  UNL     1      26.477   2.605  50.995  1.00  0.00     0.110 C 
HETATM    2  N1  UNL     1      26.473   3.491  50.061  1.00  0.00    -0.257 NA
ENDROOT
BRANCH   2   3
HETATM    3  C6  UNL     1      25.600   4.613  50.015  1.00  0.00     0.227 C 
HETATM    4  N2  UNL     1      24.448   4.658  49.393  1.00  0.00    -0.264 NA
BRANCH   4   5
HETATM    5  C7  UNL     1      24.016   3.482  48.695  1.00  0.00     0.269 C 
BRANCH   5   6
HETATM    6  N3  UNL     1      22.710   3.023  49.062  1.00  0.00    -0.389 N 
HETATM    7  C8  UNL     1      22.168   1.999  48.277  1.00  0.00     0.146 C 
HETATM    8  C9  UNL     1      21.363   0.985  49.036  1.00  0.00    -0.006 C 
HETATM    9  C10 UNL     1      20.430   1.248  49.968  1.00  0.00     0.016 C 
HETATM   10  C11 UNL     1      20.027   2.586  50.413  1.00  0.00     0.008 C 
HETATM   11 BR1  UNL     1      18.398   2.708  51.421  1.00  0.00    -0.051 Br
HETATM   12  C12 UNL     1      20.664   3.751  50.203  1.00  0.00     0.011 C 
HETATM   13  C13 UNL     1      21.901   4.087  49.502  1.00  0.00     0.147 C 
ENDBRANCH   5   6
ENDBRANCH   4   5
ENDBRANCH   2   3
BRANCH   1  14
HETATM   14  C4  UNL     1      25.640   2.492  52.211  1.00  0.00     0.117 A 
HETATM   15  S1  UNL     1      24.217   1.399  51.946  1.00  0.00    -0.124 SA
HETATM   16  C3  UNL     1      24.396   0.101  53.160  1.00  0.00     0.085 A 
HETATM   17  C2  UNL     1      25.314  -0.105  54.076  1.00  0.00     0.107 A 
HETATM   18  C15 UNL     1      26.375   0.892  54.122  1.00  0.00     0.099 A 
HETATM   19  C14 UNL     1      26.438   1.937  53.316  1.00  0.00     0.033 A 
BRANCH  17  20
HETATM   20  O1  UNL     1      25.340  -1.168  54.970  1.00  0.00    -0.353 OA
HETATM   21  C1  UNL     1      24.345  -1.424  55.914  1.00  0.00     0.210 C 
ENDBRANCH  17  20
BRANCH  18  22
HETATM   22  O2  UNL     1      27.379   0.727  55.075  1.00  0.00    -0.353 OA
HETATM   23  C16 UNL     1      28.670   0.260  54.816  1.00  0.00     0.210 C 
ENDBRANCH  18  22
ENDBRANCH   1  14
TORSDOF 6
ENDMDL
