MODEL 1
REMARK VINA RESULT:      -7.2      0.000      0.000
REMARK  3 active torsions:
REMARK  status: ('A' for Active; 'I' for Inactive)
REMARK    1  A    between atoms: C4_4  and  C5_5 
REMARK    2  A    between atoms: N1_9  and  C9_10 
REMARK    3  A    between atoms: C9_10  and  C10_11 
ROOT
HETATM    1  C5  UNL     1      24.871  -0.053  53.562  1.00  0.00     0.042 C 
HETATM    2  C6  UNL     1      24.300   0.968  52.956  1.00  0.00    -0.017 C 
HETATM    3  C7  UNL     1      25.203   2.061  52.516  1.00  0.00     0.072 C 
HETATM    4  C8  UNL     1      24.426   3.240  51.968  1.00  0.00     0.277 C 
HETATM    5  N1  UNL     1      23.717   2.956  50.766  1.00  0.00     0.090 N 
HETATM    6  C12 UNL     1      22.340   3.330  50.737  1.00  0.00     0.292 C 
HETATM    7  C13 UNL     1      21.551   2.946  51.957  1.00  0.00     0.151 C 
HETATM    8  N2  UNL     1      21.788   1.567  52.310  1.00  0.00    -0.379 N 
HETATM    9  C14 UNL     1      22.855   0.803  52.841  1.00  0.00     0.103 C 
HETATM   10  S1  UNL     1      22.352  -0.620  53.488  1.00  0.00    -0.060 SA
HETATM   11  H20 UNL     1      20.936   0.988  52.118  1.00  0.00     0.160 HD
ENDROOT
BRANCH   1  12
HETATM   12  C4  UNL     1      26.290  -0.211  53.837  1.00  0.00     0.060 A 
HETATM   13  C3  UNL     1      26.994  -1.161  53.245  1.00  0.00     0.060 A 
HETATM   14  C2  UNL     1      28.411  -1.393  53.457  1.00  0.00     0.025 A 
HETATM   15  C1  UNL     1      29.036  -2.372  52.830  1.00  0.00     0.043 C 
HETATM   16  N4  UNL     1      29.128  -0.559  54.356  1.00  0.00    -0.351 N 
HETATM   17  C15 UNL     1      28.314   0.441  54.956  1.00  0.00     0.208 A 
HETATM   18  H22 UNL     1      30.127  -0.659  54.558  1.00  0.00     0.166 HD
HETATM   19  N3  UNL     1      27.058   0.590  54.722  1.00  0.00    -0.244 NA
ENDBRANCH   1  12
BRANCH   5  20
HETATM   20  C9  UNL     1      24.374   3.381  49.572  1.00  0.00     0.272 C 
BRANCH  20  21
HETATM   21  C10 UNL     1      25.410   4.452  49.754  1.00  0.00     0.026 C 
HETATM   22  C11 UNL     1      26.792   3.977  49.332  1.00  0.00     0.007 C 
ENDBRANCH  20  21
ENDBRANCH   5  20
TORSDOF 3
ENDMDL
MODEL 2
REMARK VINA RESULT:      -7.0      1.684      2.197
REMARK  3 active torsions:
REMARK  status: ('A' for Active; 'I' for Inactive)
REMARK    1  A    between atoms: C4_4  and  C5_5 
REMARK    2  A    between atoms: N1_9  and  C9_10 
REMARK    3  A    between atoms: C9_10  and  C10_11 
ROOT
HETATM    1  C5  UNL     1      24.103  -0.455  53.824  1.00  0.00     0.042 C 
HETATM    2  C6  UNL     1      23.381   0.433  53.171  1.00  0.00    -0.017 C 
HETATM    3  C7  UNL     1      24.100   1.254  52.165  1.00  0.00     0.072 C 
HETATM    4  C8  UNL     1      23.210   2.334  51.587  1.00  0.00     0.277 C 
HETATM    5  N1  UNL     1      22.120   1.834  50.819  1.00  0.00     0.090 N 
HETATM    6  C12 UNL     1      20.829   2.353  51.137  1.00  0.00     0.292 C 
HETATM    7  C13 UNL     1      20.505   2.400  52.603  1.00  0.00     0.151 C 
HETATM    8  N2  UNL     1      20.817   1.144  53.240  1.00  0.00    -0.379 N 
HETATM    9  C14 UNL     1      21.983   0.421  53.588  1.00  0.00     0.103 C 
HETATM   10  S1  UNL     1      21.703  -0.711  54.745  1.00  0.00    -0.060 SA
HETATM   11  H20 UNL     1      19.938   0.643  53.512  1.00  0.00     0.160 HD
ENDROOT
BRANCH   1  12
HETATM   12  C4  UNL     1      25.525  -0.708  53.653  1.00  0.00     0.060 A 
HETATM   13  C3  UNL     1      26.423  -0.011  54.328  1.00  0.00     0.060 A 
HETATM   14  C2  UNL     1      27.860  -0.192  54.222  1.00  0.00     0.025 A 
HETATM   15  C1  UNL     1      28.688   0.554  54.929  1.00  0.00     0.043 C 
HETATM   16  N4  UNL     1      28.375  -1.180  53.342  1.00  0.00    -0.351 N 
HETATM   17  C15 UNL     1      27.357  -1.892  52.648  1.00  0.00     0.208 A 
HETATM   18  H22 UNL     1      29.373  -1.368  53.212  1.00  0.00     0.166 HD
HETATM   19  N3  UNL     1      26.097  -1.678  52.790  1.00  0.00    -0.244 NA
ENDBRANCH   1  12
BRANCH   5  20
HETATM   20  C9  UNL     1      22.330   1.849  49.407  1.00  0.00     0.272 C 
BRANCH  20  21
HETATM   21  C10 UNL     1      23.300   2.881  48.912  1.00  0.00     0.026 C 
HETATM   22  C11 UNL     1      22.590   4.046  48.238  1.00  0.00     0.007 C 
ENDBRANCH  20  21
ENDBRANCH   5  20
TORSDOF 3
ENDMDL
MODEL 3
REMARK VINA RESULT:      -6.8      2.445      4.375
REMARK  3 active torsions:
REMARK  status: ('A' for Active; 'I' for Inactive)
REMARK    1  A    between atoms: C4_4  and  C5_5 
REMARK    2  A    between atoms: N1_9  and  C9_10 
REMARK    3  A    between atoms: C9_10  and  C10_11 
ROOT
HETATM    1  C5  UNL     1      24.574   2.060  52.995  1.00  0.00     0.042 C 
HETATM    2  C6  UNL     1      23.350   1.780  52.593  1.00  0.00    -0.017 C 
HETATM    3  C7  UNL     1      22.982   0.343  52.557  1.00  0.00     0.072 C 
HETATM    4  C8  UNL     1      21.613   0.133  51.944  1.00  0.00     0.277 C 
HETATM    5  N1  UNL     1      20.546   0.680  52.711  1.00  0.00     0.090 N 
HETATM    6  C12 UNL     1      19.619   1.507  52.009  1.00  0.00     0.292 C 
HETATM    7  C13 UNL     1      20.240   2.532  51.103  1.00  0.00     0.151 C 
HETATM    8  N2  UNL     1      21.288   3.254  51.783  1.00  0.00    -0.379 N 
HETATM    9  C14 UNL     1      22.592   2.980  52.258  1.00  0.00     0.103 C 
HETATM   10  S1  UNL     1      23.477   4.344  52.494  1.00  0.00    -0.060 SA
HETATM   11  H20 UNL     1      20.991   4.242  51.968  1.00  0.00     0.160 HD
ENDROOT
BRANCH   1  12
HETATM   12  C4  UNL     1      25.588   1.101  53.405  1.00  0.00     0.060 A 
HETATM   13  C3  UNL     1      25.801  -0.001  52.707  1.00  0.00     0.060 A 
HETATM   14  C2  UNL     1      26.790  -1.011  53.039  1.00  0.00     0.025 A 
HETATM   15  C1  UNL     1      26.931  -2.088  52.291  1.00  0.00     0.043 C 
HETATM   16  N4  UNL     1      27.606  -0.838  54.188  1.00  0.00    -0.351 N 
HETATM   17  C15 UNL     1      27.326   0.367  54.892  1.00  0.00     0.208 A 
HETATM   18  H22 UNL     1      28.324  -1.503  54.488  1.00  0.00     0.166 HD
HETATM   19  N3  UNL     1      26.431   1.221  54.540  1.00  0.00    -0.244 NA
ENDBRANCH   1  12
BRANCH   5  20
HETATM   20  C9  UNL     1      19.853  -0.264  53.528  1.00  0.00     0.272 C 
BRANCH  20  21
HETATM   21  C10 UNL     1      18.576  -0.800  52.948  1.00  0.00     0.026 C 
HETATM   22  C11 UNL     1      18.143  -2.088  53.632  1.00  0.00     0.007 C 
ENDBRANCH  20  21
ENDBRANCH   5  20
TORSDOF 3
ENDMDL
MODEL 4
REMARK VINA RESULT:      -6.8      2.330      3.830
REMARK  3 active torsions:
REMARK  status: ('A' for Active; 'I' for Inactive)
REMARK    1  A    between atoms: C4_4  and  C5_5 
REMARK    2  A    between atoms: N1_9  and  C9_10 
REMARK    3  A    between atoms: C9_10  and  C10_11 
ROOT
HETATM    1  C5  UNL     1      26.253   2.256  51.237  1.00  0.00     0.042 C 
HETATM    2  C6  UNL     1      25.071   2.656  50.812  1.00  0.00    -0.017 C 
HETATM    3  C7  UNL     1      23.892   2.018  51.449  1.00  0.00     0.072 C 
HETATM    4  C8  UNL     1      22.600   2.445  50.784  1.00  0.00     0.277 C 
HETATM    5  N1  UNL     1      22.296   3.826  50.945  1.00  0.00     0.090 N 
HETATM    6  C12 UNL     1      21.963   4.546  49.759  1.00  0.00     0.292 C 
HETATM    7  C13 UNL     1      22.879   4.307  48.592  1.00  0.00     0.151 C 
HETATM    8  N2  UNL     1      24.261   4.418  48.989  1.00  0.00    -0.379 N 
HETATM    9  C14 UNL     1      25.175   3.676  49.774  1.00  0.00     0.103 C 
HETATM   10  S1  UNL     1      26.740   4.046  49.440  1.00  0.00    -0.060 SA
HETATM   11  H20 UNL     1      24.690   5.284  48.583  1.00  0.00     0.160 HD
ENDROOT
BRANCH   1  12
HETATM   12  C4  UNL     1      26.509   1.257  52.263  1.00  0.00     0.060 A 
HETATM   13  C3  UNL     1      26.700  -0.011  51.941  1.00  0.00     0.060 A 
HETATM   14  C2  UNL     1      26.962  -1.074  52.895  1.00  0.00     0.025 A 
HETATM   15  C1  UNL     1      27.133  -2.318  52.488  1.00  0.00     0.043 C 
HETATM   16  N4  UNL     1      27.026  -0.769  54.280  1.00  0.00    -0.351 N 
HETATM   17  C15 UNL     1      26.813   0.610  54.556  1.00  0.00     0.208 A 
HETATM   18  H22 UNL     1      27.206  -1.462  55.012  1.00  0.00     0.166 HD
HETATM   19  N3  UNL     1      26.585   1.503  53.658  1.00  0.00    -0.244 NA
ENDBRANCH   1  12
BRANCH   5  20
HETATM   20  C9  UNL     1      21.358   4.114  51.982  1.00  0.00     0.272 C 
BRANCH  20  21
HETATM   21  C10 UNL     1      20.408   3.000  52.316  1.00  0.00     0.026 C 
HETATM   22  C11 UNL     1      19.043   3.212  51.678  1.00  0.00     0.007 C 
ENDBRANCH  20  21
ENDBRANCH   5  20
TORSDOF 3
ENDMDL
MODEL 5
REMARK VINA RESULT:      -6.5      2.528      6.143
REMARK  3 active torsions:
REMARK  status: ('A' for Active; 'I' for Inactive)
REMARK    1  A    between atoms: C4_4  and  C5_5 
REMARK    2  A    between atoms: N1_9  and  C9_10 
REMARK    3  A    between atoms: C9_10  and  C10_11 
ROOT
HETATM    1  C5  UNL     1      23.968   0.985  52.702  1.00  0.00     0.042 C 
HETATM    2  C6  UNL     1      25.198   1.142  53.146  1.00  0.00    -0.017 C 
HETATM    3  C7  UNL     1      25.551   0.403  54.384  1.00  0.00     0.072 C 
HETATM    4  C8  UNL     1      26.933   0.774  54.880  1.00  0.00     0.277 C 
HETATM    5  N1  UNL     1      27.986   0.380  54.005  1.00  0.00     0.090 N 
HETATM    6  C12 UNL     1      28.941   1.386  53.669  1.00  0.00     0.292 C 
HETATM    7  C13 UNL     1      28.357   2.714  53.280  1.00  0.00     0.151 C 
HETATM    8  N2  UNL     1      27.299   2.549  52.313  1.00  0.00    -0.379 N 
HETATM    9  C14 UNL     1      25.979   2.038  52.300  1.00  0.00     0.103 C 
HETATM   10  S1  UNL     1      25.104   2.584  51.022  1.00  0.00    -0.060 SA
HETATM   11  H20 UNL     1      27.602   2.904  51.375  1.00  0.00     0.160 HD
ENDROOT
BRANCH   1  12
HETATM   12  C4  UNL     1      22.932   0.159  53.303  1.00  0.00     0.060 A 
HETATM   13  C3  UNL     1      21.674   0.259  52.909  1.00  0.00     0.060 A 
HETATM   14  C2  UNL     1      20.575  -0.522  53.450  1.00  0.00     0.025 A 
HETATM   15  C1  UNL     1      19.344  -0.353  53.005  1.00  0.00     0.043 C 
HETATM   16  N4  UNL     1      20.831  -1.471  54.475  1.00  0.00    -0.351 N 
HETATM   17  C15 UNL     1      22.203  -1.527  54.850  1.00  0.00     0.208 A 
HETATM   18  H22 UNL     1      20.112  -2.058  54.906  1.00  0.00     0.166 HD
HETATM   19  N3  UNL     1      23.128  -0.803  54.327  1.00  0.00    -0.244 NA
ENDBRANCH   1  12
BRANCH   5  20
HETATM   20  C9  UNL     1      28.646  -0.831  54.373  1.00  0.00     0.272 C 
BRANCH  20  21
HETATM   21  C10 UNL     1      29.317  -1.564  53.249  1.00  0.00     0.026 C 
HETATM   22  C11 UNL     1      28.656  -2.908  52.978  1.00  0.00     0.007 C 
ENDBRANCH  20  21
ENDBRANCH   5  20
TORSDOF 3
ENDMDL
MODEL 6
REMARK VINA RESULT:      -6.5      1.782      2.447
REMARK  3 active torsions:
REMARK  status: ('A' for Active; 'I' for Inactive)
REMARK    1  A    between atoms: C4_4  and  C5_5 
REMARK    2  A    between atoms: N1_9  and  C9_10 
REMARK    3  A    between atoms: C9_10  and  C10_11 
ROOT
HETATM    1  C5  UNL     1      23.136   0.831  52.081  1.00  0.00     0.042 C 
HETATM    2  C6  UNL     1      22.995   2.110  51.795  1.00  0.00    -0.017 C 
HETATM    3  C7  UNL     1      23.973   3.036  52.418  1.00  0.00     0.072 C 
HETATM    4  C8  UNL     1      23.627   4.484  52.139  1.00  0.00     0.277 C 
HETATM    5  N1  UNL     1      23.727   4.847  50.766  1.00  0.00     0.090 N 
HETATM    6  C12 UNL     1      22.603   5.524  50.205  1.00  0.00     0.292 C 
HETATM    7  C13 UNL     1      21.267   4.916  50.527  1.00  0.00     0.151 C 
HETATM    8  N2  UNL     1      21.282   3.491  50.298  1.00  0.00    -0.379 N 
HETATM    9  C14 UNL     1      21.871   2.352  50.897  1.00  0.00     0.103 C 
HETATM   10  S1  UNL     1      21.110   0.957  50.484  1.00  0.00    -0.060 SA
HETATM   11  H20 UNL     1      20.696   3.249  49.463  1.00  0.00     0.160 HD
ENDROOT
BRANCH   1  12
HETATM   12  C4  UNL     1      24.152   0.246  52.941  1.00  0.00     0.060 A 
HETATM   13  C3  UNL     1      25.427   0.265  52.593  1.00  0.00     0.060 A 
HETATM   14  C2  UNL     1      26.509  -0.292  53.385  1.00  0.00     0.025 A 
HETATM   15  C1  UNL     1      27.756  -0.237  52.958  1.00  0.00     0.043 C 
HETATM   16  N4  UNL     1      26.216  -0.909  54.630  1.00  0.00    -0.351 N 
HETATM   17  C15 UNL     1      24.828  -0.895  54.944  1.00  0.00     0.208 A 
HETATM   18  H22 UNL     1      26.921  -1.324  55.245  1.00  0.00     0.166 HD
HETATM   19  N3  UNL     1      23.920  -0.381  54.192  1.00  0.00    -0.244 NA
ENDBRANCH   1  12
BRANCH   5  20
HETATM   20  C9  UNL     1      24.938   5.515  50.412  1.00  0.00     0.272 C 
BRANCH  20  21
HETATM   21  C10 UNL     1      25.698   4.906  49.270  1.00  0.00     0.026 C 
HETATM   22  C11 UNL     1      26.400   3.620  49.681  1.00  0.00     0.007 C 
ENDBRANCH  20  21
ENDBRANCH   5  20
TORSDOF 3
ENDMDL
MODEL 7
REMARK VINA RESULT:      -6.2      3.238      5.115
REMARK  3 active torsions:
REMARK  status: ('A' for Active; 'I' for Inactive)
REMARK    1  A    between atoms: C4_4  and  C5_5 
REMARK    2  A    between atoms: N1_9  and  C9_10 
REMARK    3  A    between atoms: C9_10  and  C10_11 
ROOT
HETATM    1  C5  UNL     1      24.186   1.545  52.668  1.00  0.00     0.042 C 
HETATM    2  C6  UNL     1      24.517   2.294  51.636  1.00  0.00    -0.017 C 
HETATM    3  C7  UNL     1      23.420   2.649  50.701  1.00  0.00     0.072 C 
HETATM    4  C8  UNL     1      23.940   3.382  49.482  1.00  0.00     0.277 C 
HETATM    5  N1  UNL     1      24.492   4.662  49.771  1.00  0.00     0.090 N 
HETATM    6  C12 UNL     1      25.786   4.932  49.233  1.00  0.00     0.292 C 
HETATM    7  C13 UNL     1      26.794   3.833  49.419  1.00  0.00     0.151 C 
HETATM    8  N2  UNL     1      26.800   3.365  50.784  1.00  0.00    -0.379 N 
HETATM    9  C14 UNL     1      25.937   2.628  51.630  1.00  0.00     0.103 C 
HETATM   10  S1  UNL     1      26.718   1.986  52.924  1.00  0.00    -0.060 SA
HETATM   11  H20 UNL     1      27.683   3.657  51.267  1.00  0.00     0.160 HD
ENDROOT
BRANCH   1  12
HETATM   12  C4  UNL     1      22.858   1.039  52.978  1.00  0.00     0.060 A 
HETATM   13  C3  UNL     1      22.697  -0.165  53.500  1.00  0.00     0.060 A 
HETATM   14  C2  UNL     1      21.413  -0.752  53.842  1.00  0.00     0.025 A 
HETATM   15  C1  UNL     1      21.342  -1.966  54.353  1.00  0.00     0.043 C 
HETATM   16  N4  UNL     1      20.224  -0.010  53.614  1.00  0.00    -0.351 N 
HETATM   17  C15 UNL     1      20.469   1.274  53.052  1.00  0.00     0.208 A 
HETATM   18  H22 UNL     1      19.284  -0.354  53.828  1.00  0.00     0.166 HD
HETATM   19  N3  UNL     1      21.638   1.733  52.773  1.00  0.00    -0.244 NA
ENDBRANCH   1  12
BRANCH   5  20
HETATM   20  C9  UNL     1      23.612   5.760  49.526  1.00  0.00     0.272 C 
BRANCH  20  21
HETATM   21  C10 UNL     1      23.139   6.490  50.748  1.00  0.00     0.026 C 
HETATM   22  C11 UNL     1      21.699   6.139  51.092  1.00  0.00     0.007 C 
ENDBRANCH  20  21
ENDBRANCH   5  20
TORSDOF 3
ENDMDL
MODEL 8
REMARK VINA RESULT:      -6.1      3.217      6.689
REMARK  3 active torsions:
REMARK  status: ('A' for Active; 'I' for Inactive)
REMARK    1  A    between atoms: C4_4  and  C5_5 
REMARK    2  A    between atoms: N1_9  and  C9_10 
REMARK    3  A    between atoms: C9_10  and  C10_11 
ROOT
HETATM    1  C5  UNL     1      23.917   2.052  51.950  1.00  0.00     0.042 C 
HETATM    2  C6  UNL     1      23.050   1.350  52.650  1.00  0.00    -0.017 C 
HETATM    3  C7  UNL     1      21.664   1.878  52.702  1.00  0.00     0.072 C 
HETATM    4  C8  UNL     1      20.796   1.075  53.649  1.00  0.00     0.277 C 
HETATM    5  N1  UNL     1      20.572  -0.267  53.229  1.00  0.00     0.090 N 
HETATM    6  C12 UNL     1      20.813  -1.284  54.201  1.00  0.00     0.292 C 
HETATM    7  C13 UNL     1      22.101  -1.143  54.963  1.00  0.00     0.151 C 
HETATM    8  N2  UNL     1      23.205  -0.898  54.068  1.00  0.00    -0.379 N 
HETATM    9  C14 UNL     1      23.654   0.162  53.244  1.00  0.00     0.103 C 
HETATM   10  S1  UNL     1      25.245   0.030  52.856  1.00  0.00    -0.060 SA
HETATM   11  H20 UNL     1      23.835  -1.734  54.025  1.00  0.00     0.160 HD
ENDROOT
BRANCH   1  12
HETATM   12  C4  UNL     1      23.647   3.285  51.228  1.00  0.00     0.060 A 
HETATM   13  C3  UNL     1      23.296   3.261  49.953  1.00  0.00     0.060 A 
HETATM   14  C2  UNL     1      23.007   4.438  49.154  1.00  0.00     0.025 A 
HETATM   15  C1  UNL     1      22.670   4.324  47.883  1.00  0.00     0.043 C 
HETATM   16  N4  UNL     1      23.097   5.725  49.748  1.00  0.00    -0.351 N 
HETATM   17  C15 UNL     1      23.478   5.679  51.118  1.00  0.00     0.208 A 
HETATM   18  H22 UNL     1      22.909   6.600  49.252  1.00  0.00     0.166 HD
HETATM   19  N3  UNL     1      23.720   4.595  51.767  1.00  0.00    -0.244 NA
ENDBRANCH   1  12
BRANCH   5  20
HETATM   20  C9  UNL     1      19.321  -0.487  52.578  1.00  0.00     0.272 C 
BRANCH  20  21
HETATM   21  C10 UNL     1      18.369  -1.393  53.303  1.00  0.00     0.026 C 
HETATM   22  C11 UNL     1      16.955  -1.283  52.752  1.00  0.00     0.007 C 
ENDBRANCH  20  21
ENDBRANCH   5  20
TORSDOF 3
ENDMDL
MODEL 9
REMARK VINA RESULT:      -6.0      2.658      5.505
REMARK  3 active torsions:
REMARK  status: ('A' for Active; 'I' for Inactive)
REMARK    1  A    between atoms: C4_4  and  C5_5 
REMARK    2  A    between atoms: N1_9  and  C9_10 
REMARK    3  A    between atoms: C9_10  and  C10_11 
ROOT
HETATM    1  C5  UNL     1      25.872   2.315  51.293  1.00  0.00     0.042 C 
HETATM    2  C6  UNL     1      24.816   1.734  51.826  1.00  0.00    -0.017 C 
HETATM    3  C7  UNL     1      23.517   2.427  51.638  1.00  0.00     0.072 C 
HETATM    4  C8  UNL     1      22.406   1.750  52.413  1.00  0.00     0.277 C 
HETATM    5  N1  UNL     1      22.096   0.439  51.951  1.00  0.00     0.090 N 
HETATM    6  C12 UNL     1      22.039  -0.585  52.943  1.00  0.00     0.292 C 
HETATM    7  C13 UNL     1      23.180  -0.591  53.920  1.00  0.00     0.151 C 
HETATM    8  N2  UNL     1      24.446  -0.494  53.234  1.00  0.00    -0.379 N 
HETATM    9  C14 UNL     1      25.158   0.491  52.509  1.00  0.00     0.103 C 
HETATM   10  S1  UNL     1      26.763   0.161  52.405  1.00  0.00    -0.060 SA
HETATM   11  H20 UNL     1      24.966  -1.402  53.297  1.00  0.00     0.160 HD
ENDROOT
BRANCH   1  12
HETATM   12  C4  UNL     1      25.885   3.562  50.543  1.00  0.00     0.060 A 
HETATM   13  C3  UNL     1      26.910   3.876  49.770  1.00  0.00     0.060 A 
HETATM   14  C2  UNL     1      27.010   5.095  48.986  1.00  0.00     0.025 A 
HETATM   15  C1  UNL     1      28.075   5.334  48.245  1.00  0.00     0.043 C 
HETATM   16  N4  UNL     1      25.950   6.039  49.026  1.00  0.00    -0.351 N 
HETATM   17  C15 UNL     1      24.881   5.639  49.874  1.00  0.00     0.208 A 
HETATM   18  H22 UNL     1      25.946   6.919  48.503  1.00  0.00     0.166 HD
HETATM   19  N3  UNL     1      24.858   4.540  50.543  1.00  0.00    -0.244 NA
ENDBRANCH   1  12
BRANCH   5  20
HETATM   20  C9  UNL     1      20.961   0.363  51.089  1.00  0.00     0.272 C 
BRANCH  20  21
HETATM   21  C10 UNL     1      21.233   0.645  49.641  1.00  0.00     0.026 C 
HETATM   22  C11 UNL     1      20.388   1.799  49.122  1.00  0.00     0.007 C 
ENDBRANCH  20  21
ENDBRANCH   5  20
TORSDOF 3
ENDMDL
