MODEL 1
REMARK VINA RESULT:      -7.5      0.000      0.000
REMARK  8 active torsions:
REMARK  status: ('A' for Active; 'I' for Inactive)
REMARK    1  A    between atoms: C2_2  and  C3_3 
REMARK    2  A    between atoms: C5_5  and  C6_6 
REMARK    3  A    between atoms: C6_6  and  C7_7 
REMARK    4  A    between atoms: C7_7  and  C8_8 
REMARK    5  A    between atoms: C10_11  and  N1_12 
REMARK    6  A    between atoms: N1_12  and  C11_13 
REMARK    7  A    between atoms: C17_19  and  N2_20 
REMARK    8  A    between atoms: N2_20  and  N3_21 
ROOT
HETATM    1  C3  UNL     1      26.720   0.349  54.001  1.00  0.00    -0.054 A 
HETATM    2  C4  UNL     1      25.632  -0.353  54.269  1.00  0.00     0.012 A 
HETATM    3  C5  UNL     1      24.463  -0.095  53.443  1.00  0.00    -0.059 A 
HETATM    4  C9  UNL     1      24.632   0.815  52.517  1.00  0.00     0.007 A 
HETATM    5  C10 UNL     1      25.795   1.682  52.095  1.00  0.00     0.133 A 
HETATM    6  C17 UNL     1      26.970   1.407  52.966  1.00  0.00     0.149 A 
ENDROOT
BRANCH   5   7
HETATM    7  N1  UNL     1      25.436   3.054  51.938  1.00  0.00    -0.380 N 
HETATM    8  H15 UNL     1      24.890   3.553  52.693  1.00  0.00     0.160 HD
BRANCH   7   9
HETATM    9  C11 UNL     1      25.738   3.881  50.833  1.00  0.00     0.028 A 
HETATM   10  C12 UNL     1      26.807   3.693  49.985  1.00  0.00     0.029 A 
HETATM   11  C13 UNL     1      27.135   4.477  48.901  1.00  0.00     0.002 A 
HETATM   12  C14 UNL     1      26.331   5.562  48.618  1.00  0.00     0.000 A 
HETATM   13  C15 UNL     1      25.241   5.819  49.422  1.00  0.00     0.002 A 
HETATM   14  C16 UNL     1      24.986   4.983  50.485  1.00  0.00     0.029 A 
ENDBRANCH   7   9
ENDBRANCH   5   7
BRANCH   6  15
HETATM   15  N2  UNL     1      27.570   2.546  53.559  1.00  0.00    -0.348 N 
HETATM   16  H22 UNL     1      26.996   3.214  54.056  1.00  0.00     0.174 HD
BRANCH  15  17
HETATM   17  N3  UNL     1      28.751   2.963  53.004  1.00  0.00    -0.254 NA
HETATM   18  H23 UNL     1      28.506   3.800  52.395  1.00  0.00     0.142 HD
HETATM   19  H24 UNL     1      29.430   3.356  53.690  1.00  0.00     0.142 HD
ENDBRANCH  15  17
ENDBRANCH   6  15
BRANCH   3  20
HETATM   20  C6  UNL     1      23.188  -0.782  53.611  1.00  0.00     0.040 C 
BRANCH  20  21
HETATM   21  C7  UNL     1      22.019  -0.060  52.955  1.00  0.00     0.036 C 
BRANCH  21  22
HETATM   22  C8  UNL     1      20.869  -0.122  53.964  1.00  0.00     0.222 C 
HETATM   23  F1  UNL     1      21.430   0.014  55.215  1.00  0.00    -0.255 F 
ENDBRANCH  21  22
ENDBRANCH  20  21
ENDBRANCH   3  20
BRANCH   1  24
HETATM   24  C2  UNL     1      27.900   0.079  54.843  1.00  0.00     0.032 C 
HETATM   25  C1  UNL     1      29.026  -0.562  54.059  1.00  0.00     0.010 C 
ENDBRANCH   1  24
TORSDOF 8
ENDMDL
MODEL 2
REMARK VINA RESULT:      -7.5      1.562      2.146
REMARK  8 active torsions:
REMARK  status: ('A' for Active; 'I' for Inactive)
REMARK    1  A    between atoms: C2_2  and  C3_3 
REMARK    2  A    between atoms: C5_5  and  C6_6 
REMARK    3  A    between atoms: C6_6  and  C7_7 
REMARK    4  A    between atoms: C7_7  and  C8_8 
REMARK    5  A    between atoms: C10_11  and  N1_12 
REMARK    6  A    between atoms: N1_12  and  C11_13 
REMARK    7  A    between atoms: C17_19  and  N2_20 
REMARK    8  A    between atoms: N2_20  and  N3_21 
ROOT
HETATM    1  C3  UNL     1      26.973   0.314  53.980  1.00  0.00    -0.054 A 
HETATM    2  C4  UNL     1      25.883  -0.390  54.238  1.00  0.00     0.012 A 
HETATM    3  C5  UNL     1      24.702  -0.087  53.446  1.00  0.00    -0.059 A 
HETATM    4  C9  UNL     1      24.863   0.860  52.556  1.00  0.00     0.007 A 
HETATM    5  C10 UNL     1      26.026   1.734  52.150  1.00  0.00     0.133 A 
HETATM    6  C17 UNL     1      27.214   1.412  52.987  1.00  0.00     0.149 A 
ENDROOT
BRANCH   5   7
HETATM    7  N1  UNL     1      25.678   3.115  52.058  1.00  0.00    -0.380 N 
HETATM    8  H15 UNL     1      26.399   3.862  52.258  1.00  0.00     0.160 HD
BRANCH   7   9
HETATM    9  C11 UNL     1      24.413   3.642  51.713  1.00  0.00     0.028 A 
HETATM   10  C12 UNL     1      23.559   4.266  52.595  1.00  0.00     0.029 A 
HETATM   11  C13 UNL     1      22.320   4.789  52.298  1.00  0.00     0.002 A 
HETATM   12  C14 UNL     1      21.869   4.691  50.998  1.00  0.00     0.000 A 
HETATM   13  C15 UNL     1      22.666   4.079  50.055  1.00  0.00     0.002 A 
HETATM   14  C16 UNL     1      23.892   3.584  50.438  1.00  0.00     0.029 A 
ENDBRANCH   7   9
ENDBRANCH   5   7
BRANCH   6  15
HETATM   15  N2  UNL     1      27.835   2.520  53.617  1.00  0.00    -0.348 N 
HETATM   16  H22 UNL     1      27.290   3.128  54.214  1.00  0.00     0.174 HD
BRANCH  15  17
HETATM   17  N3  UNL     1      28.951   3.017  52.998  1.00  0.00    -0.254 NA
HETATM   18  H23 UNL     1      29.638   2.207  52.943  1.00  0.00     0.142 HD
HETATM   19  H24 UNL     1      28.806   3.275  51.998  1.00  0.00     0.142 HD
ENDBRANCH  15  17
ENDBRANCH   6  15
BRANCH   3  20
HETATM   20  C6  UNL     1      23.424  -0.770  53.607  1.00  0.00     0.040 C 
BRANCH  20  21
HETATM   21  C7  UNL     1      22.225   0.089  53.227  1.00  0.00     0.036 C 
BRANCH  21  22
HETATM   22  C8  UNL     1      21.271   0.028  54.421  1.00  0.00     0.222 C 
HETATM   23  F1  UNL     1      21.904  -0.706  55.400  1.00  0.00    -0.255 F 
ENDBRANCH  21  22
ENDBRANCH  20  21
ENDBRANCH   3  20
BRANCH   1  24
HETATM   24  C2  UNL     1      28.164  -0.003  54.790  1.00  0.00     0.032 C 
HETATM   25  C1  UNL     1      29.224  -0.726  53.985  1.00  0.00     0.010 C 
ENDBRANCH   1  24
TORSDOF 8
ENDMDL
MODEL 3
REMARK VINA RESULT:      -7.4      2.821      6.012
REMARK  8 active torsions:
REMARK  status: ('A' for Active; 'I' for Inactive)
REMARK    1  A    between atoms: C2_2  and  C3_3 
REMARK    2  A    between atoms: C5_5  and  C6_6 
REMARK    3  A    between atoms: C6_6  and  C7_7 
REMARK    4  A    between atoms: C7_7  and  C8_8 
REMARK    5  A    between atoms: C10_11  and  N1_12 
REMARK    6  A    between atoms: N1_12  and  C11_13 
REMARK    7  A    between atoms: C17_19  and  N2_20 
REMARK    8  A    between atoms: N2_20  and  N3_21 
ROOT
HETATM    1  C3  UNL     1      27.208   0.861  53.710  1.00  0.00    -0.054 A 
HETATM    2  C4  UNL     1      27.494   1.503  52.589  1.00  0.00     0.012 A 
HETATM    3  C5  UNL     1      26.385   1.784  51.692  1.00  0.00    -0.059 A 
HETATM    4  C9  UNL     1      25.217   1.363  52.110  1.00  0.00     0.007 A 
HETATM    5  C10 UNL     1      24.743   0.634  53.344  1.00  0.00     0.133 A 
HETATM    6  C17 UNL     1      25.900   0.347  54.235  1.00  0.00     0.149 A 
ENDROOT
BRANCH   5   7
HETATM    7  N1  UNL     1      23.892  -0.471  53.044  1.00  0.00    -0.380 N 
HETATM    8  H15 UNL     1      24.300  -1.379  52.691  1.00  0.00     0.160 HD
BRANCH   7   9
HETATM    9  C11 UNL     1      22.484  -0.506  53.167  1.00  0.00     0.028 A 
HETATM   10  C12 UNL     1      21.617   0.292  52.454  1.00  0.00     0.029 A 
HETATM   11  C13 UNL     1      20.243   0.289  52.548  1.00  0.00     0.002 A 
HETATM   12  C14 UNL     1      19.655  -0.588  53.434  1.00  0.00     0.000 A 
HETATM   13  C15 UNL     1      20.456  -1.421  54.187  1.00  0.00     0.002 A 
HETATM   14  C16 UNL     1      21.821  -1.353  54.029  1.00  0.00     0.029 A 
ENDBRANCH   7   9
ENDBRANCH   5   7
BRANCH   6  15
HETATM   15  N2  UNL     1      26.031  -1.002  54.650  1.00  0.00    -0.348 N 
HETATM   16  H22 UNL     1      26.402  -1.691  54.009  1.00  0.00     0.174 HD
BRANCH  15  17
HETATM   17  N3  UNL     1      25.189  -1.408  55.652  1.00  0.00    -0.254 NA
HETATM   18  H23 UNL     1      24.216  -1.092  55.361  1.00  0.00     0.142 HD
HETATM   19  H24 UNL     1      25.090  -2.443  55.734  1.00  0.00     0.142 HD
ENDBRANCH  15  17
ENDBRANCH   6  15
BRANCH   3  20
HETATM   20  C6  UNL     1      26.532   2.480  50.419  1.00  0.00     0.040 C 
BRANCH  20  21
HETATM   21  C7  UNL     1      25.644   3.711  50.294  1.00  0.00     0.036 C 
BRANCH  21  22
HETATM   22  C8  UNL     1      26.357   4.644  49.313  1.00  0.00     0.222 C 
HETATM   23  F1  UNL     1      27.387   3.920  48.753  1.00  0.00    -0.255 F 
ENDBRANCH  21  22
ENDBRANCH  20  21
ENDBRANCH   3  20
BRANCH   1  24
HETATM   24  C2  UNL     1      28.340   0.581  54.613  1.00  0.00     0.032 C 
HETATM   25  C1  UNL     1      29.494  -0.085  53.891  1.00  0.00     0.010 C 
ENDBRANCH   1  24
TORSDOF 8
ENDMDL
MODEL 4
REMARK VINA RESULT:      -7.4      2.055      4.971
REMARK  8 active torsions:
REMARK  status: ('A' for Active; 'I' for Inactive)
REMARK    1  A    between atoms: C2_2  and  C3_3 
REMARK    2  A    between atoms: C5_5  and  C6_6 
REMARK    3  A    between atoms: C6_6  and  C7_7 
REMARK    4  A    between atoms: C7_7  and  C8_8 
REMARK    5  A    between atoms: C10_11  and  N1_12 
REMARK    6  A    between atoms: N1_12  and  C11_13 
REMARK    7  A    between atoms: C17_19  and  N2_20 
REMARK    8  A    between atoms: N2_20  and  N3_21 
ROOT
HETATM    1  C3  UNL     1      23.071   2.489  50.145  1.00  0.00    -0.054 A 
HETATM    2  C4  UNL     1      22.357   1.459  50.567  1.00  0.00     0.012 A 
HETATM    3  C5  UNL     1      22.528   1.065  51.956  1.00  0.00    -0.059 A 
HETATM    4  C9  UNL     1      23.382   1.791  52.634  1.00  0.00     0.007 A 
HETATM    5  C10 UNL     1      24.252   2.978  52.296  1.00  0.00     0.133 A 
HETATM    6  C17 UNL     1      24.067   3.349  50.867  1.00  0.00     0.149 A 
ENDROOT
BRANCH   5   7
HETATM    7  N1  UNL     1      25.600   2.821  52.735  1.00  0.00    -0.380 N 
HETATM    8  H15 UNL     1      26.204   3.669  52.921  1.00  0.00     0.160 HD
BRANCH   7   9
HETATM    9  C11 UNL     1      26.273   1.600  52.967  1.00  0.00     0.028 A 
HETATM   10  C12 UNL     1      26.935   1.282  54.132  1.00  0.00     0.029 A 
HETATM   11  C13 UNL     1      27.603   0.106  54.394  1.00  0.00     0.002 A 
HETATM   12  C14 UNL     1      27.627  -0.860  53.410  1.00  0.00     0.000 A 
HETATM   13  C15 UNL     1      26.988  -0.616  52.213  1.00  0.00     0.002 A 
HETATM   14  C16 UNL     1      26.342   0.586  52.035  1.00  0.00     0.029 A 
ENDBRANCH   7   9
ENDBRANCH   5   7
BRANCH   6  15
HETATM   15  N2  UNL     1      25.258   3.469  50.108  1.00  0.00    -0.348 N 
HETATM   16  H22 UNL     1      25.701   2.639  49.737  1.00  0.00     0.174 HD
BRANCH  15  17
HETATM   17  N3  UNL     1      26.019   4.580  50.354  1.00  0.00    -0.254 NA
HETATM   18  H23 UNL     1      26.319   4.508  51.372  1.00  0.00     0.142 HD
HETATM   19  H24 UNL     1      26.926   4.600  49.839  1.00  0.00     0.142 HD
ENDBRANCH  15  17
ENDBRANCH   6  15
BRANCH   3  20
HETATM   20  C6  UNL     1      21.819  -0.049  52.573  1.00  0.00     0.040 C 
BRANCH  20  21
HETATM   21  C7  UNL     1      22.681  -0.865  53.526  1.00  0.00     0.036 C 
BRANCH  21  22
HETATM   22  C8  UNL     1      21.901  -0.935  54.841  1.00  0.00     0.222 C 
HETATM   23  F1  UNL     1      21.192   0.241  54.946  1.00  0.00    -0.255 F 
ENDBRANCH  21  22
ENDBRANCH  20  21
ENDBRANCH   3  20
BRANCH   1  24
HETATM   24  C2  UNL     1      22.888   2.880  48.735  1.00  0.00     0.032 C 
HETATM   25  C1  UNL     1      22.195   1.802  47.929  1.00  0.00     0.010 C 
ENDBRANCH   1  24
TORSDOF 8
ENDMDL
MODEL 5
REMARK VINA RESULT:      -7.2      2.650      4.410
REMARK  8 active torsions:
REMARK  status: ('A' for Active; 'I' for Inactive)
REMARK    1  A    between atoms: C2_2  and  C3_3 
REMARK    2  A    between atoms: C5_5  and  C6_6 
REMARK    3  A    between atoms: C6_6  and  C7_7 
REMARK    4  A    between atoms: C7_7  and  C8_8 
REMARK    5  A    between atoms: C10_11  and  N1_12 
REMARK    6  A    between atoms: N1_12  and  C11_13 
REMARK    7  A    between atoms: C17_19  and  N2_20 
REMARK    8  A    between atoms: N2_20  and  N3_21 
ROOT
HETATM    1  C3  UNL     1      23.434   0.376  53.239  1.00  0.00    -0.054 A 
HETATM    2  C4  UNL     1      24.415  -0.497  53.398  1.00  0.00     0.012 A 
HETATM    3  C5  UNL     1      25.689  -0.174  52.777  1.00  0.00    -0.059 A 
HETATM    4  C9  UNL     1      25.713   0.962  52.126  1.00  0.00     0.007 A 
HETATM    5  C10 UNL     1      24.694   2.046  51.865  1.00  0.00     0.133 A 
HETATM    6  C17 UNL     1      23.398   1.682  52.500  1.00  0.00     0.149 A 
ENDROOT
BRANCH   5   7
HETATM    7  N1  UNL     1      24.635   2.435  50.494  1.00  0.00    -0.380 N 
HETATM    8  H15 UNL     1      24.041   1.891  49.810  1.00  0.00     0.160 HD
BRANCH   7   9
HETATM    9  C11 UNL     1      25.311   3.523  49.899  1.00  0.00     0.028 A 
HETATM   10  C12 UNL     1      26.629   3.498  49.496  1.00  0.00     0.029 A 
HETATM   11  C13 UNL     1      27.323   4.537  48.915  1.00  0.00     0.002 A 
HETATM   12  C14 UNL     1      26.657   5.727  48.708  1.00  0.00     0.000 A 
HETATM   13  C15 UNL     1      25.336   5.832  49.086  1.00  0.00     0.002 A 
HETATM   14  C16 UNL     1      24.718   4.744  49.659  1.00  0.00     0.029 A 
ENDBRANCH   7   9
ENDBRANCH   5   7
BRANCH   6  15
HETATM   15  N2  UNL     1      22.265   1.736  51.649  1.00  0.00    -0.348 N 
HETATM   16  H22 UNL     1      22.125   1.015  50.954  1.00  0.00     0.174 HD
BRANCH  15  17
HETATM   17  N3  UNL     1      21.728   2.979  51.441  1.00  0.00    -0.254 NA
HETATM   18  H23 UNL     1      22.089   3.296  50.492  1.00  0.00     0.142 HD
HETATM   19  H24 UNL     1      20.693   2.981  51.316  1.00  0.00     0.142 HD
ENDBRANCH  15  17
ENDBRANCH   6  15
BRANCH   3  20
HETATM   20  C6  UNL     1      26.867  -1.030  52.856  1.00  0.00     0.040 C 
BRANCH  20  21
HETATM   21  C7  UNL     1      28.055  -0.366  53.538  1.00  0.00     0.036 C 
BRANCH  21  22
HETATM   22  C8  UNL     1      29.230  -1.331  53.366  1.00  0.00     0.222 C 
HETATM   23  F1  UNL     1      30.374  -0.563  53.339  1.00  0.00    -0.255 F 
ENDBRANCH  21  22
ENDBRANCH  20  21
ENDBRANCH   3  20
BRANCH   1  24
HETATM   24  C2  UNL     1      22.146   0.039  53.874  1.00  0.00     0.032 C 
HETATM   25  C1  UNL     1      22.272  -1.127  54.834  1.00  0.00     0.010 C 
ENDBRANCH   1  24
TORSDOF 8
ENDMDL
MODEL 6
REMARK VINA RESULT:      -7.0      2.608      6.317
REMARK  8 active torsions:
REMARK  status: ('A' for Active; 'I' for Inactive)
REMARK    1  A    between atoms: C2_2  and  C3_3 
REMARK    2  A    between atoms: C5_5  and  C6_6 
REMARK    3  A    between atoms: C6_6  and  C7_7 
REMARK    4  A    between atoms: C7_7  and  C8_8 
REMARK    5  A    between atoms: C10_11  and  N1_12 
REMARK    6  A    between atoms: N1_12  and  C11_13 
REMARK    7  A    between atoms: C17_19  and  N2_20 
REMARK    8  A    between atoms: N2_20  and  N3_21 
ROOT
HETATM    1  C3  UNL     1      25.635   3.067  50.809  1.00  0.00    -0.054 A 
HETATM    2  C4  UNL     1      26.679   2.378  51.239  1.00  0.00     0.012 A 
HETATM    3  C5  UNL     1      26.401   1.148  51.964  1.00  0.00    -0.059 A 
HETATM    4  C9  UNL     1      25.130   0.866  52.104  1.00  0.00     0.007 A 
HETATM    5  C10 UNL     1      23.849   1.541  51.673  1.00  0.00     0.133 A 
HETATM    6  C17 UNL     1      24.165   2.802  50.948  1.00  0.00     0.149 A 
ENDROOT
BRANCH   5   7
HETATM    7  N1  UNL     1      22.893   1.644  52.726  1.00  0.00    -0.380 N 
HETATM    8  H15 UNL     1      22.748   2.564  53.227  1.00  0.00     0.160 HD
BRANCH   7   9
HETATM    9  C11 UNL     1      22.066   0.609  53.216  1.00  0.00     0.028 A 
HETATM   10  C12 UNL     1      20.720   0.491  52.945  1.00  0.00     0.029 A 
HETATM   11  C13 UNL     1      19.881  -0.500  53.405  1.00  0.00     0.002 A 
HETATM   12  C14 UNL     1      20.415  -1.479  54.215  1.00  0.00     0.000 A 
HETATM   13  C15 UNL     1      21.756  -1.430  54.533  1.00  0.00     0.002 A 
HETATM   14  C16 UNL     1      22.523  -0.405  54.030  1.00  0.00     0.029 A 
ENDBRANCH   7   9
ENDBRANCH   5   7
BRANCH   6  15
HETATM   15  N2  UNL     1      23.496   3.960  51.418  1.00  0.00    -0.348 N 
HETATM   16  H22 UNL     1      23.111   4.621  50.757  1.00  0.00     0.174 HD
BRANCH  15  17
HETATM   17  N3  UNL     1      23.855   4.396  52.666  1.00  0.00    -0.254 NA
HETATM   18  H23 UNL     1      24.306   3.562  53.148  1.00  0.00     0.142 HD
HETATM   19  H24 UNL     1      24.615   5.111  52.667  1.00  0.00     0.142 HD
ENDBRANCH  15  17
ENDBRANCH   6  15
BRANCH   3  20
HETATM   20  C6  UNL     1      27.437   0.276  52.504  1.00  0.00     0.040 C 
BRANCH  20  21
HETATM   21  C7  UNL     1      27.378   0.129  54.018  1.00  0.00     0.036 C 
BRANCH  21  22
HETATM   22  C8  UNL     1      28.823   0.246  54.508  1.00  0.00     0.222 C 
HETATM   23  F1  UNL     1      29.618   0.322  53.385  1.00  0.00    -0.255 F 
ENDBRANCH  21  22
ENDBRANCH  20  21
ENDBRANCH   3  20
BRANCH   1  24
HETATM   24  C2  UNL     1      25.929   4.312  50.075  1.00  0.00     0.032 C 
HETATM   25  C1  UNL     1      27.080   4.144  49.105  1.00  0.00     0.010 C 
ENDBRANCH   1  24
TORSDOF 8
ENDMDL
MODEL 7
REMARK VINA RESULT:      -6.9      3.223      6.956
REMARK  8 active torsions:
REMARK  status: ('A' for Active; 'I' for Inactive)
REMARK    1  A    between atoms: C2_2  and  C3_3 
REMARK    2  A    between atoms: C5_5  and  C6_6 
REMARK    3  A    between atoms: C6_6  and  C7_7 
REMARK    4  A    between atoms: C7_7  and  C8_8 
REMARK    5  A    between atoms: C10_11  and  N1_12 
REMARK    6  A    between atoms: N1_12  and  C11_13 
REMARK    7  A    between atoms: C17_19  and  N2_20 
REMARK    8  A    between atoms: N2_20  and  N3_21 
ROOT
HETATM    1  C3  UNL     1      24.157   3.858  49.989  1.00  0.00    -0.054 A 
HETATM    2  C4  UNL     1      24.852   4.718  49.263  1.00  0.00     0.012 A 
HETATM    3  C5  UNL     1      26.300   4.586  49.293  1.00  0.00    -0.059 A 
HETATM    4  C9  UNL     1      26.749   3.613  50.046  1.00  0.00     0.007 A 
HETATM    5  C10 UNL     1      26.091   2.566  50.914  1.00  0.00     0.133 A 
HETATM    6  C17 UNL     1      24.613   2.736  50.875  1.00  0.00     0.149 A 
ENDROOT
BRANCH   5   7
HETATM    7  N1  UNL     1      26.678   2.470  52.210  1.00  0.00    -0.380 N 
HETATM    8  H15 UNL     1      26.558   3.252  52.911  1.00  0.00     0.160 HD
BRANCH   7   9
HETATM    9  C11 UNL     1      27.448   1.394  52.707  1.00  0.00     0.028 A 
HETATM   10  C12 UNL     1      28.640   1.534  53.385  1.00  0.00     0.029 A 
HETATM   11  C13 UNL     1      29.419   0.512  53.881  1.00  0.00     0.002 A 
HETATM   12  C14 UNL     1      28.986  -0.784  53.694  1.00  0.00     0.000 A 
HETATM   13  C15 UNL     1      27.803  -1.007  53.023  1.00  0.00     0.002 A 
HETATM   14  C16 UNL     1      27.085   0.072  52.561  1.00  0.00     0.029 A 
ENDBRANCH   7   9
ENDBRANCH   5   7
BRANCH   6  15
HETATM   15  N2  UNL     1      23.974   2.814  52.138  1.00  0.00    -0.348 N 
HETATM   16  H22 UNL     1      23.097   2.333  52.287  1.00  0.00     0.174 HD
BRANCH  15  17
HETATM   17  N3  UNL     1      24.266   3.918  52.893  1.00  0.00    -0.254 NA
HETATM   18  H23 UNL     1      25.308   3.861  53.102  1.00  0.00     0.142 HD
HETATM   19  H24 UNL     1      24.175   4.823  52.381  1.00  0.00     0.142 HD
ENDBRANCH  15  17
ENDBRANCH   6  15
BRANCH   3  20
HETATM   20  C6  UNL     1      27.207   5.454  48.552  1.00  0.00     0.040 C 
BRANCH  20  21
HETATM   21  C7  UNL     1      26.603   6.808  48.205  1.00  0.00     0.036 C 
BRANCH  21  22
HETATM   22  C8  UNL     1      27.158   7.792  49.238  1.00  0.00     0.222 C 
HETATM   23  F1  UNL     1      26.348   7.701  50.349  1.00  0.00    -0.255 F 
ENDBRANCH  21  22
ENDBRANCH  20  21
ENDBRANCH   3  20
BRANCH   1  24
HETATM   24  C2  UNL     1      22.690   4.002  49.950  1.00  0.00     0.032 C 
HETATM   25  C1  UNL     1      22.254   5.445  50.096  1.00  0.00     0.010 C 
ENDBRANCH   1  24
TORSDOF 8
ENDMDL
MODEL 8
REMARK VINA RESULT:      -6.8      2.047      2.685
REMARK  8 active torsions:
REMARK  status: ('A' for Active; 'I' for Inactive)
REMARK    1  A    between atoms: C2_2  and  C3_3 
REMARK    2  A    between atoms: C5_5  and  C6_6 
REMARK    3  A    between atoms: C6_6  and  C7_7 
REMARK    4  A    between atoms: C7_7  and  C8_8 
REMARK    5  A    between atoms: C10_11  and  N1_12 
REMARK    6  A    between atoms: N1_12  and  C11_13 
REMARK    7  A    between atoms: C17_19  and  N2_20 
REMARK    8  A    between atoms: N2_20  and  N3_21 
ROOT
HETATM    1  C3  UNL     1      25.639   0.556  52.335  1.00  0.00    -0.054 A 
HETATM    2  C4  UNL     1      24.565  -0.138  52.673  1.00  0.00     0.012 A 
HETATM    3  C5  UNL     1      23.282   0.532  52.542  1.00  0.00    -0.059 A 
HETATM    4  C9  UNL     1      23.345   1.762  52.095  1.00  0.00     0.007 A 
HETATM    5  C10 UNL     1      24.475   2.669  51.672  1.00  0.00     0.133 A 
HETATM    6  C17 UNL     1      25.775   1.962  51.831  1.00  0.00     0.149 A 
ENDROOT
BRANCH   5   7
HETATM    7  N1  UNL     1      24.392   3.969  52.253  1.00  0.00    -0.380 N 
HETATM    8  H15 UNL     1      24.881   4.178  53.166  1.00  0.00     0.160 HD
BRANCH   7   9
HETATM    9  C11 UNL     1      23.694   5.081  51.730  1.00  0.00     0.028 A 
HETATM   10  C12 UNL     1      24.294   6.229  51.258  1.00  0.00     0.029 A 
HETATM   11  C13 UNL     1      23.649   7.332  50.745  1.00  0.00     0.002 A 
HETATM   12  C14 UNL     1      22.271   7.311  50.688  1.00  0.00     0.000 A 
HETATM   13  C15 UNL     1      21.597   6.198  51.143  1.00  0.00     0.002 A 
HETATM   14  C16 UNL     1      22.320   5.138  51.639  1.00  0.00     0.029 A 
ENDBRANCH   7   9
ENDBRANCH   5   7
BRANCH   6  15
HETATM   15  N2  UNL     1      26.762   2.659  52.572  1.00  0.00    -0.348 N 
HETATM   16  H22 UNL     1      27.703   2.733  52.209  1.00  0.00     0.174 HD
BRANCH  15  17
HETATM   17  N3  UNL     1      26.560   2.730  53.925  1.00  0.00    -0.254 NA
HETATM   18  H23 UNL     1      26.410   1.728  54.249  1.00  0.00     0.142 HD
HETATM   19  H24 UNL     1      27.399   3.033  54.467  1.00  0.00     0.142 HD
ENDBRANCH  15  17
ENDBRANCH   6  15
BRANCH   3  20
HETATM   20  C6  UNL     1      22.006  -0.092  52.874  1.00  0.00     0.040 C 
BRANCH  20  21
HETATM   21  C7  UNL     1      21.630   0.040  54.343  1.00  0.00     0.036 C 
BRANCH  21  22
HETATM   22  C8  UNL     1      22.094  -1.256  55.012  1.00  0.00     0.222 C 
HETATM   23  F1  UNL     1      21.730  -2.288  54.175  1.00  0.00    -0.255 F 
ENDBRANCH  21  22
ENDBRANCH  20  21
ENDBRANCH   3  20
BRANCH   1  24
HETATM   24  C2  UNL     1      26.935  -0.135  52.472  1.00  0.00     0.032 C 
HETATM   25  C1  UNL     1      26.774  -1.637  52.570  1.00  0.00     0.010 C 
ENDBRANCH   1  24
TORSDOF 8
ENDMDL
MODEL 9
REMARK VINA RESULT:      -6.7      2.360      4.447
REMARK  8 active torsions:
REMARK  status: ('A' for Active; 'I' for Inactive)
REMARK    1  A    between atoms: C2_2  and  C3_3 
REMARK    2  A    between atoms: C5_5  and  C6_6 
REMARK    3  A    between atoms: C6_6  and  C7_7 
REMARK    4  A    between atoms: C7_7  and  C8_8 
REMARK    5  A    between atoms: C10_11  and  N1_12 
REMARK    6  A    between atoms: N1_12  and  C11_13 
REMARK    7  A    between atoms: C17_19  and  N2_20 
REMARK    8  A    between atoms: N2_20  and  N3_21 
ROOT
HETATM    1  C3  UNL     1      23.118   0.274  53.079  1.00  0.00    -0.054 A 
HETATM    2  C4  UNL     1      24.275   0.093  53.695  1.00  0.00     0.012 A 
HETATM    3  C5  UNL     1      25.330   1.049  53.405  1.00  0.00    -0.059 A 
HETATM    4  C9  UNL     1      25.003   1.992  52.557  1.00  0.00     0.007 A 
HETATM    5  C10 UNL     1      23.746   2.325  51.790  1.00  0.00     0.133 A 
HETATM    6  C17 UNL     1      22.689   1.323  52.094  1.00  0.00     0.149 A 
ENDROOT
BRANCH   5   7
HETATM    7  N1  UNL     1      23.989   2.581  50.407  1.00  0.00    -0.380 N 
HETATM    8  H15 UNL     1      23.490   2.019  49.664  1.00  0.00     0.160 HD
BRANCH   7   9
HETATM    9  C11 UNL     1      24.868   3.550  49.873  1.00  0.00     0.028 A 
HETATM   10  C12 UNL     1      24.502   4.834  49.534  1.00  0.00     0.029 A 
HETATM   11  C13 UNL     1      25.327   5.804  49.009  1.00  0.00     0.002 A 
HETATM   12  C14 UNL     1      26.651   5.484  48.793  1.00  0.00     0.000 A 
HETATM   13  C15 UNL     1      27.095   4.217  49.107  1.00  0.00     0.002 A 
HETATM   14  C16 UNL     1      26.203   3.308  49.629  1.00  0.00     0.029 A 
ENDBRANCH   7   9
ENDBRANCH   5   7
BRANCH   6  15
HETATM   15  N2  UNL     1      22.076   0.720  50.967  1.00  0.00    -0.348 N 
HETATM   16  H22 UNL     1      22.590   0.043  50.419  1.00  0.00     0.174 HD
BRANCH  15  17
HETATM   17  N3  UNL     1      21.072   1.437  50.373  1.00  0.00    -0.254 NA
HETATM   18  H23 UNL     1      21.440   2.430  50.279  1.00  0.00     0.142 HD
HETATM   19  H24 UNL     1      20.875   1.161  49.387  1.00  0.00     0.142 HD
ENDBRANCH  15  17
ENDBRANCH   6  15
BRANCH   3  20
HETATM   20  C6  UNL     1      26.661   0.988  53.998  1.00  0.00     0.040 C 
BRANCH  20  21
HETATM   21  C7  UNL     1      27.748   0.584  53.012  1.00  0.00     0.036 C 
BRANCH  21  22
HETATM   22  C8  UNL     1      27.779  -0.946  53.028  1.00  0.00     0.222 C 
HETATM   23  F1  UNL     1      26.834  -1.373  52.121  1.00  0.00    -0.255 F 
ENDBRANCH  21  22
ENDBRANCH  20  21
ENDBRANCH   3  20
BRANCH   1  24
HETATM   24  C2  UNL     1      22.054  -0.702  53.381  1.00  0.00     0.032 C 
HETATM   25  C1  UNL     1      21.433  -0.465  54.742  1.00  0.00     0.010 C 
ENDBRANCH   1  24
TORSDOF 8
ENDMDL
