MODEL 1
REMARK VINA RESULT:     -10.2      0.000      0.000
REMARK  5 active torsions:
REMARK  status: ('A' for Active; 'I' for Inactive)
REMARK    1  A    between atoms: O1_1  and  C1_2 
REMARK    2  A    between atoms: C1_2  and  C2_3 
REMARK    3  A    between atoms: C2_3  and  N1_4 
REMARK    4  A    between atoms: C2_3  and  C20_24 
REMARK    5  A    between atoms: N1_4  and  C3_5 
ROOT
HETATM    1  C3  UNL     1      25.910   2.620  51.595  1.00  0.00     0.107 C 
HETATM    2  N2  UNL     1      26.215   2.855  50.329  1.00  0.00    -0.229 NA
HETATM    3  C4  UNL     1      25.412   3.498  49.286  1.00  0.00     0.229 C 
HETATM    4  N3  UNL     1      24.256   3.443  48.743  1.00  0.00    -0.278 NA
HETATM    5  C5  UNL     1      22.978   2.984  48.532  1.00  0.00     0.189 C 
HETATM    6  C6  UNL     1      22.231   2.009  49.413  1.00  0.00    -0.024 C 
HETATM    7  C7  UNL     1      21.561   0.926  49.684  1.00  0.00    -0.017 C 
HETATM    8  C8  UNL     1      21.154   1.012  50.952  1.00  0.00     0.012 C 
HETATM    9  C9  UNL     1      22.025   0.638  51.988  1.00  0.00    -0.002 C 
HETATM   10  C10 UNL     1      23.131   0.581  52.805  1.00  0.00    -0.015 C 
HETATM   11  C11 UNL     1      24.425   1.354  52.745  1.00  0.00     0.007 A 
HETATM   12  C12 UNL     1      24.112   2.617  53.163  1.00  0.00     0.032 A 
HETATM   13  C13 UNL     1      23.284   3.831  52.540  1.00  0.00    -0.003 A 
HETATM   14  C14 UNL     1      22.459   4.022  51.411  1.00  0.00     0.038 A 
HETATM   15  C15 UNL     1      22.490   2.909  50.513  1.00  0.00    -0.059 A 
HETATM   16  C16 UNL     1      23.171   2.981  51.650  1.00  0.00     0.041 A 
HETATM   17  C17 UNL     1      23.729   3.380  52.876  1.00  0.00     0.000 A 
HETATM   18  C18 UNL     1      23.537   4.605  53.626  1.00  0.00    -0.030 A 
HETATM   19  C19 UNL     1      25.138   2.520  52.930  1.00  0.00     0.076 A 
ENDROOT
BRANCH   1  20
HETATM   20  N1  UNL     1      27.181   1.968  51.972  1.00  0.00    -0.367 N 
HETATM   21  H5  UNL     1      28.010   1.860  51.282  1.00  0.00     0.161 HD
BRANCH  20  22
HETATM   22  C2  UNL     1      27.550   1.379  53.258  1.00  0.00     0.139 C 
BRANCH  22  23
HETATM   23  C1  UNL     1      28.736   2.181  53.787  1.00  0.00     0.194 C 
BRANCH  23  24
HETATM   24  O1  UNL     1      29.129   3.156  52.910  1.00  0.00    -0.399 OA
HETATM   25  H1  UNL     1      29.236   2.737  52.011  1.00  0.00     0.209 HD
ENDBRANCH  23  24
ENDBRANCH  22  23
BRANCH  22  26
HETATM   26  C20 UNL     1      27.921  -0.061  53.155  1.00  0.00    -0.034 A 
HETATM   27  C21 UNL     1      27.064  -1.056  52.722  1.00  0.00     0.009 A 
HETATM   28  C22 UNL     1      27.440  -2.389  52.660  1.00  0.00     0.001 A 
HETATM   29  C23 UNL     1      28.742  -2.730  53.056  1.00  0.00     0.000 A 
HETATM   30  C24 UNL     1      29.543  -1.699  53.474  1.00  0.00     0.001 A 
HETATM   31  C25 UNL     1      29.213  -0.361  53.552  1.00  0.00     0.009 A 
ENDBRANCH  22  26
ENDBRANCH  20  22
ENDBRANCH   1  20
TORSDOF 5
ENDMDL
MODEL 2
REMARK VINA RESULT:      -9.4      3.561      5.635
REMARK  5 active torsions:
REMARK  status: ('A' for Active; 'I' for Inactive)
REMARK    1  A    between atoms: O1_1  and  C1_2 
REMARK    2  A    between atoms: C1_2  and  C2_3 
REMARK    3  A    between atoms: C2_3  and  N1_4 
REMARK    4  A    between atoms: C2_3  and  C20_24 
REMARK    5  A    between atoms: N1_4  and  C3_5 
ROOT
HETATM    1  C3  UNL     1      22.356   3.805  51.124  1.00  0.00     0.107 C 
HETATM    2  N2  UNL     1      21.900   4.897  51.715  1.00  0.00    -0.229 NA
HETATM    3  C4  UNL     1      21.772   6.255  51.182  1.00  0.00     0.229 C 
HETATM    4  N3  UNL     1      22.450   7.158  50.583  1.00  0.00    -0.278 NA
HETATM    5  C5  UNL     1      23.551   7.730  49.991  1.00  0.00     0.189 C 
HETATM    6  C6  UNL     1      24.838   7.017  49.642  1.00  0.00    -0.024 C 
HETATM    7  C7  UNL     1      26.124   6.816  49.650  1.00  0.00    -0.017 C 
HETATM    8  C8  UNL     1      26.380   5.817  48.805  1.00  0.00     0.012 C 
HETATM    9  C9  UNL     1      26.250   4.488  49.240  1.00  0.00    -0.002 C 
HETATM   10  C10 UNL     1      25.711   3.332  49.757  1.00  0.00    -0.015 C 
HETATM   11  C11 UNL     1      24.327   3.060  50.293  1.00  0.00     0.007 A 
HETATM   12  C12 UNL     1      23.515   3.013  49.195  1.00  0.00     0.032 A 
HETATM   13  C13 UNL     1      22.969   4.098  48.159  1.00  0.00    -0.003 A 
HETATM   14  C14 UNL     1      23.214   5.463  47.896  1.00  0.00     0.038 A 
HETATM   15  C15 UNL     1      24.035   6.076  48.894  1.00  0.00    -0.059 A 
HETATM   16  C16 UNL     1      23.661   4.803  48.902  1.00  0.00     0.041 A 
HETATM   17  C17 UNL     1      23.100   3.550  48.603  1.00  0.00     0.000 A 
HETATM   18  C18 UNL     1      22.271   3.151  47.483  1.00  0.00    -0.030 A 
HETATM   19  C19 UNL     1      22.981   2.841  50.089  1.00  0.00     0.076 A 
ENDROOT
BRANCH   1  20
HETATM   20  N1  UNL     1      22.172   2.887  52.267  1.00  0.00    -0.367 N 
HETATM   21  H5  UNL     1      22.494   3.132  53.273  1.00  0.00     0.161 HD
BRANCH  20  22
HETATM   22  C2  UNL     1      21.563   1.558  52.271  1.00  0.00     0.139 C 
BRANCH  22  23
HETATM   23  C1  UNL     1      20.103   1.743  52.678  1.00  0.00     0.194 C 
BRANCH  23  24
HETATM   24  O1  UNL     1      19.721   3.057  52.635  1.00  0.00    -0.399 OA
HETATM   25  H1  UNL     1      19.115   3.226  53.408  1.00  0.00     0.209 HD
ENDBRANCH  23  24
ENDBRANCH  22  23
BRANCH  22  26
HETATM   26  C20 UNL     1      22.231   0.613  53.210  1.00  0.00    -0.034 A 
HETATM   27  C21 UNL     1      23.582   0.316  53.185  1.00  0.00     0.009 A 
HETATM   28  C22 UNL     1      24.163  -0.586  54.062  1.00  0.00     0.001 A 
HETATM   29  C23 UNL     1      23.340  -1.216  55.007  1.00  0.00     0.000 A 
HETATM   30  C24 UNL     1      22.012  -0.880  54.982  1.00  0.00     0.001 A 
HETATM   31  C25 UNL     1      21.390   0.010  54.130  1.00  0.00     0.009 A 
ENDBRANCH  22  26
ENDBRANCH  20  22
ENDBRANCH   1  20
TORSDOF 5
ENDMDL
MODEL 3
REMARK VINA RESULT:      -9.4      2.462      4.400
REMARK  5 active torsions:
REMARK  status: ('A' for Active; 'I' for Inactive)
REMARK    1  A    between atoms: O1_1  and  C1_2 
REMARK    2  A    between atoms: C1_2  and  C2_3 
REMARK    3  A    between atoms: C2_3  and  N1_4 
REMARK    4  A    between atoms: C2_3  and  C20_24 
REMARK    5  A    between atoms: N1_4  and  C3_5 
ROOT
HETATM    1  C3  UNL     1      24.349   3.140  51.846  1.00  0.00     0.107 C 
HETATM    2  N2  UNL     1      23.871   4.000  52.732  1.00  0.00    -0.229 NA
HETATM    3  C4  UNL     1      23.168   5.265  52.509  1.00  0.00     0.229 C 
HETATM    4  N3  UNL     1      23.275   6.364  51.865  1.00  0.00    -0.278 NA
HETATM    5  C5  UNL     1      23.848   7.286  51.022  1.00  0.00     0.189 C 
HETATM    6  C6  UNL     1      25.042   7.044  50.127  1.00  0.00    -0.024 C 
HETATM    7  C7  UNL     1      26.229   7.269  49.644  1.00  0.00    -0.017 C 
HETATM    8  C8  UNL     1      26.407   6.444  48.611  1.00  0.00     0.012 C 
HETATM    9  C9  UNL     1      26.837   5.127  48.839  1.00  0.00    -0.002 C 
HETATM   10  C10 UNL     1      26.892   3.837  49.317  1.00  0.00    -0.015 C 
HETATM   11  C11 UNL     1      25.964   3.109  50.258  1.00  0.00     0.007 A 
HETATM   12  C12 UNL     1      24.838   2.851  49.529  1.00  0.00     0.032 A 
HETATM   13  C13 UNL     1      23.650   3.745  48.948  1.00  0.00    -0.003 A 
HETATM   14  C14 UNL     1      23.377   5.126  48.842  1.00  0.00     0.038 A 
HETATM   15  C15 UNL     1      24.312   5.927  49.569  1.00  0.00    -0.059 A 
HETATM   16  C16 UNL     1      24.347   4.602  49.501  1.00  0.00     0.041 A 
HETATM   17  C17 UNL     1      24.091   3.249  49.220  1.00  0.00     0.000 A 
HETATM   18  C18 UNL     1      23.042   2.653  48.418  1.00  0.00    -0.030 A 
HETATM   19  C19 UNL     1      24.766   2.476  50.514  1.00  0.00     0.076 A 
ENDROOT
BRANCH   1  20
HETATM   20  N1  UNL     1      24.891   2.163  52.812  1.00  0.00    -0.367 N 
HETATM   21  H5  UNL     1      25.069   2.407  53.854  1.00  0.00     0.161 HD
BRANCH  20  22
HETATM   22  C2  UNL     1      25.271   0.771  52.576  1.00  0.00     0.139 C 
BRANCH  22  23
HETATM   23  C1  UNL     1      24.355  -0.089  53.443  1.00  0.00     0.194 C 
BRANCH  23  24
HETATM   24  O1  UNL     1      23.041   0.035  53.081  1.00  0.00    -0.399 OA
HETATM   25  H1  UNL     1      23.009   0.387  52.150  1.00  0.00     0.209 HD
ENDBRANCH  23  24
ENDBRANCH  22  23
BRANCH  22  26
HETATM   26  C20 UNL     1      26.695   0.490  52.914  1.00  0.00    -0.034 A 
HETATM   27  C21 UNL     1      27.255  -0.774  52.931  1.00  0.00     0.009 A 
HETATM   28  C22 UNL     1      28.580  -0.997  53.271  1.00  0.00     0.001 A 
HETATM   29  C23 UNL     1      29.374   0.108  53.610  1.00  0.00     0.000 A 
HETATM   30  C24 UNL     1      28.761   1.334  53.573  1.00  0.00     0.001 A 
HETATM   31  C25 UNL     1      27.449   1.604  53.241  1.00  0.00     0.009 A 
ENDBRANCH  22  26
ENDBRANCH  20  22
ENDBRANCH   1  20
TORSDOF 5
ENDMDL
MODEL 4
REMARK VINA RESULT:      -9.4      2.549      3.794
REMARK  5 active torsions:
REMARK  status: ('A' for Active; 'I' for Inactive)
REMARK    1  A    between atoms: O1_1  and  C1_2 
REMARK    2  A    between atoms: C1_2  and  C2_3 
REMARK    3  A    between atoms: C2_3  and  N1_4 
REMARK    4  A    between atoms: C2_3  and  C20_24 
REMARK    5  A    between atoms: N1_4  and  C3_5 
ROOT
HETATM    1  C3  UNL     1      23.275   1.161  52.189  1.00  0.00     0.107 C 
HETATM    2  N2  UNL     1      22.254   0.518  51.644  1.00  0.00    -0.229 NA
HETATM    3  C4  UNL     1      21.657   0.683  50.317  1.00  0.00     0.229 C 
HETATM    4  N3  UNL     1      21.188   1.584  49.540  1.00  0.00    -0.278 NA
HETATM    5  C5  UNL     1      20.828   2.849  49.143  1.00  0.00     0.189 C 
HETATM    6  C6  UNL     1      21.176   4.134  49.859  1.00  0.00    -0.024 C 
HETATM    7  C7  UNL     1      20.934   5.272  50.443  1.00  0.00    -0.017 C 
HETATM    8  C8  UNL     1      22.107   5.854  50.695  1.00  0.00     0.012 C 
HETATM    9  C9  UNL     1      22.822   5.504  51.852  1.00  0.00    -0.002 C 
HETATM   10  C10 UNL     1      23.483   4.756  52.801  1.00  0.00    -0.015 C 
HETATM   11  C11 UNL     1      23.749   3.272  52.857  1.00  0.00     0.007 A 
HETATM   12  C12 UNL     1      24.717   3.042  51.920  1.00  0.00     0.032 A 
HETATM   13  C13 UNL     1      24.757   3.053  50.325  1.00  0.00    -0.003 A 
HETATM   14  C14 UNL     1      23.874   3.429  49.290  1.00  0.00     0.038 A 
HETATM   15  C15 UNL     1      22.561   3.729  49.771  1.00  0.00    -0.059 A 
HETATM   16  C16 UNL     1      23.578   3.355  50.537  1.00  0.00     0.041 A 
HETATM   17  C17 UNL     1      24.830   2.954  51.032  1.00  0.00     0.000 A 
HETATM   18  C18 UNL     1      26.070   2.708  50.322  1.00  0.00    -0.030 A 
HETATM   19  C19 UNL     1      24.433   2.157  52.422  1.00  0.00     0.076 A 
ENDROOT
BRANCH   1  20
HETATM   20  N1  UNL     1      23.264   0.455  53.487  1.00  0.00    -0.367 N 
HETATM   21  H5  UNL     1      22.680   0.797  54.334  1.00  0.00     0.161 HD
BRANCH  20  22
HETATM   22  C2  UNL     1      23.988  -0.758  53.864  1.00  0.00     0.139 C 
BRANCH  22  23
HETATM   23  C1  UNL     1      23.513  -1.139  55.263  1.00  0.00     0.194 C 
BRANCH  23  24
HETATM   24  O1  UNL     1      22.205  -1.542  55.269  1.00  0.00    -0.399 OA
HETATM   25  H1  UNL     1      21.631  -0.727  55.288  1.00  0.00     0.209 HD
ENDBRANCH  23  24
ENDBRANCH  22  23
BRANCH  22  26
HETATM   26  C20 UNL     1      25.467  -0.577  53.865  1.00  0.00    -0.034 A 
HETATM   27  C21 UNL     1      26.171   0.072  54.864  1.00  0.00     0.009 A 
HETATM   28  C22 UNL     1      27.546   0.238  54.819  1.00  0.00     0.001 A 
HETATM   29  C23 UNL     1      28.241  -0.274  53.713  1.00  0.00     0.000 A 
HETATM   30  C24 UNL     1      27.488  -0.906  52.758  1.00  0.00     0.001 A 
HETATM   31  C25 UNL     1      26.121  -1.096  52.760  1.00  0.00     0.009 A 
ENDBRANCH  22  26
ENDBRANCH  20  22
ENDBRANCH   1  20
TORSDOF 5
ENDMDL
MODEL 5
REMARK VINA RESULT:      -9.2      1.760      2.979
REMARK  5 active torsions:
REMARK  status: ('A' for Active; 'I' for Inactive)
REMARK    1  A    between atoms: O1_1  and  C1_2 
REMARK    2  A    between atoms: C1_2  and  C2_3 
REMARK    3  A    between atoms: C2_3  and  N1_4 
REMARK    4  A    between atoms: C2_3  and  C20_24 
REMARK    5  A    between atoms: N1_4  and  C3_5 
ROOT
HETATM    1  C3  UNL     1      23.841   1.706  52.827  1.00  0.00     0.107 C 
HETATM    2  N2  UNL     1      24.378   2.903  53.010  1.00  0.00    -0.229 NA
HETATM    3  C4  UNL     1      23.717   4.200  53.169  1.00  0.00     0.229 C 
HETATM    4  N3  UNL     1      22.842   4.947  52.612  1.00  0.00    -0.278 NA
HETATM    5  C5  UNL     1      21.906   5.318  51.677  1.00  0.00     0.189 C 
HETATM    6  C6  UNL     1      21.329   4.427  50.601  1.00  0.00    -0.024 C 
HETATM    7  C7  UNL     1      21.022   4.080  49.385  1.00  0.00    -0.017 C 
HETATM    8  C8  UNL     1      20.284   2.971  49.456  1.00  0.00     0.012 C 
HETATM    9  C9  UNL     1      20.916   1.722  49.569  1.00  0.00    -0.002 C 
HETATM   10  C10 UNL     1      21.711   0.700  50.036  1.00  0.00    -0.015 C 
HETATM   11  C11 UNL     1      22.627   0.651  51.234  1.00  0.00     0.007 A 
HETATM   12  C12 UNL     1      21.801   0.580  52.320  1.00  0.00     0.032 A 
HETATM   13  C13 UNL     1      20.809   1.601  53.042  1.00  0.00    -0.003 A 
HETATM   14  C14 UNL     1      20.306   2.892  52.768  1.00  0.00     0.038 A 
HETATM   15  C15 UNL     1      20.957   3.510  51.655  1.00  0.00    -0.059 A 
HETATM   16  C16 UNL     1      21.238   2.297  52.115  1.00  0.00     0.041 A 
HETATM   17  C17 UNL     1      21.273   1.093  52.838  1.00  0.00     0.000 A 
HETATM   18  C18 UNL     1      20.479   0.674  53.976  1.00  0.00    -0.030 A 
HETATM   19  C19 UNL     1      22.820   0.570  52.597  1.00  0.00     0.076 A 
ENDROOT
BRANCH   1  20
HETATM   20  N1  UNL     1      25.107   0.946  52.761  1.00  0.00    -0.367 N 
HETATM   21  H5  UNL     1      25.141  -0.137  52.798  1.00  0.00     0.161 HD
BRANCH  20  22
HETATM   22  C2  UNL     1      26.469   1.463  52.642  1.00  0.00     0.139 C 
BRANCH  22  23
HETATM   23  C1  UNL     1      26.631   1.953  51.206  1.00  0.00     0.194 C 
BRANCH  23  24
HETATM   24  O1  UNL     1      27.026   3.262  51.151  1.00  0.00    -0.399 OA
HETATM   25  H1  UNL     1      27.211   3.568  52.082  1.00  0.00     0.209 HD
ENDBRANCH  23  24
ENDBRANCH  22  23
BRANCH  22  26
HETATM   26  C20 UNL     1      27.510   0.441  52.947  1.00  0.00    -0.034 A 
HETATM   27  C21 UNL     1      28.775   0.736  53.420  1.00  0.00     0.009 A 
HETATM   28  C22 UNL     1      29.723  -0.243  53.672  1.00  0.00     0.001 A 
HETATM   29  C23 UNL     1      29.376  -1.581  53.433  1.00  0.00     0.000 A 
HETATM   30  C24 UNL     1      28.108  -1.808  52.965  1.00  0.00     0.001 A 
HETATM   31  C25 UNL     1      27.132  -0.868  52.701  1.00  0.00     0.009 A 
ENDBRANCH  22  26
ENDBRANCH  20  22
ENDBRANCH   1  20
TORSDOF 5
ENDMDL
MODEL 6
REMARK VINA RESULT:      -9.0      4.154      7.489
REMARK  5 active torsions:
REMARK  status: ('A' for Active; 'I' for Inactive)
REMARK    1  A    between atoms: O1_1  and  C1_2 
REMARK    2  A    between atoms: C1_2  and  C2_3 
REMARK    3  A    between atoms: C2_3  and  N1_4 
REMARK    4  A    between atoms: C2_3  and  C20_24 
REMARK    5  A    between atoms: N1_4  and  C3_5 
ROOT
HETATM    1  C3  UNL     1      19.789   1.937  51.587  1.00  0.00     0.107 C 
HETATM    2  N2  UNL     1      19.570   3.189  51.958  1.00  0.00    -0.229 NA
HETATM    3  C4  UNL     1      20.371   4.386  51.697  1.00  0.00     0.229 C 
HETATM    4  N3  UNL     1      21.568   4.825  51.795  1.00  0.00    -0.278 NA
HETATM    5  C5  UNL     1      22.908   4.788  52.096  1.00  0.00     0.189 C 
HETATM    6  C6  UNL     1      23.694   3.556  52.481  1.00  0.00    -0.024 C 
HETATM    7  C7  UNL     1      24.473   2.830  53.230  1.00  0.00    -0.017 C 
HETATM    8  C8  UNL     1      24.751   1.712  52.558  1.00  0.00     0.012 C 
HETATM    9  C9  UNL     1      23.849   0.637  52.591  1.00  0.00    -0.002 C 
HETATM   10  C10 UNL     1      22.691  -0.098  52.470  1.00  0.00    -0.015 C 
HETATM   11  C11 UNL     1      21.318   0.320  52.005  1.00  0.00     0.007 A 
HETATM   12  C12 UNL     1      21.426   0.476  50.652  1.00  0.00     0.032 A 
HETATM   13  C13 UNL     1      22.142   1.539  49.700  1.00  0.00    -0.003 A 
HETATM   14  C14 UNL     1      23.031   2.621  49.876  1.00  0.00     0.038 A 
HETATM   15  C15 UNL     1      23.225   2.954  51.253  1.00  0.00    -0.059 A 
HETATM   16  C16 UNL     1      22.442   1.975  50.817  1.00  0.00     0.041 A 
HETATM   17  C17 UNL     1      21.731   1.053  50.031  1.00  0.00     0.000 A 
HETATM   18  C18 UNL     1      21.695   0.897  48.591  1.00  0.00    -0.030 A 
HETATM   19  C19 UNL     1      20.447   0.670  50.995  1.00  0.00     0.076 A 
ENDROOT
BRANCH   1  20
HETATM   20  N1  UNL     1      18.585   1.348  52.209  1.00  0.00    -0.367 N 
HETATM   21  H5  UNL     1      18.404   1.378  53.277  1.00  0.00     0.161 HD
BRANCH  20  22
HETATM   22  C2  UNL     1      17.476   0.654  51.555  1.00  0.00     0.139 C 
BRANCH  22  23
HETATM   23  C1  UNL     1      16.247   1.544  51.711  1.00  0.00     0.194 C 
BRANCH  23  24
HETATM   24  O1  UNL     1      16.539   2.866  51.506  1.00  0.00    -0.399 OA
HETATM   25  H1  UNL     1      15.681   3.373  51.497  1.00  0.00     0.209 HD
ENDBRANCH  23  24
ENDBRANCH  22  23
BRANCH  22  26
HETATM   26  C20 UNL     1      17.203  -0.689  52.139  1.00  0.00    -0.034 A 
HETATM   27  C21 UNL     1      16.082  -1.448  51.855  1.00  0.00     0.009 A 
HETATM   28  C22 UNL     1      15.854  -2.686  52.436  1.00  0.00     0.001 A 
HETATM   29  C23 UNL     1      16.802  -3.178  53.346  1.00  0.00     0.000 A 
HETATM   30  C24 UNL     1      17.891  -2.379  53.584  1.00  0.00     0.001 A 
HETATM   31  C25 UNL     1      18.161  -1.144  53.031  1.00  0.00     0.009 A 
ENDBRANCH  22  26
ENDBRANCH  20  22
ENDBRANCH   1  20
TORSDOF 5
ENDMDL
MODEL 7
REMARK VINA RESULT:      -8.6      3.139      7.183
REMARK  5 active torsions:
REMARK  status: ('A' for Active; 'I' for Inactive)
REMARK    1  A    between atoms: O1_1  and  C1_2 
REMARK    2  A    between atoms: C1_2  and  C2_3 
REMARK    3  A    between atoms: C2_3  and  N1_4 
REMARK    4  A    between atoms: C2_3  and  C20_24 
REMARK    5  A    between atoms: N1_4  and  C3_5 
ROOT
HETATM    1  C3  UNL     1      22.128   2.143  50.516  1.00  0.00     0.107 C 
HETATM    2  N2  UNL     1      21.727   0.961  50.956  1.00  0.00    -0.229 NA
HETATM    3  C4  UNL     1      22.064   0.275  52.206  1.00  0.00     0.229 C 
HETATM    4  N3  UNL     1      23.072  -0.077  52.909  1.00  0.00    -0.278 NA
HETATM    5  C5  UNL     1      24.400  -0.209  53.240  1.00  0.00     0.189 C 
HETATM    6  C6  UNL     1      25.557   0.469  52.542  1.00  0.00    -0.024 C 
HETATM    7  C7  UNL     1      26.695   0.528  51.914  1.00  0.00    -0.017 C 
HETATM    8  C8  UNL     1      27.017   1.816  51.783  1.00  0.00     0.012 C 
HETATM    9  C9  UNL     1      26.482   2.560  50.719  1.00  0.00    -0.002 C 
HETATM   10  C10 UNL     1      25.578   3.148  49.863  1.00  0.00    -0.015 C 
HETATM   11  C11 UNL     1      24.070   3.108  49.865  1.00  0.00     0.007 A 
HETATM   12  C12 UNL     1      23.687   3.905  50.907  1.00  0.00     0.032 A 
HETATM   13  C13 UNL     1      23.755   3.780  52.497  1.00  0.00    -0.003 A 
HETATM   14  C14 UNL     1      24.344   2.889  53.420  1.00  0.00     0.038 A 
HETATM   15  C15 UNL     1      24.884   1.724  52.791  1.00  0.00    -0.059 A 
HETATM   16  C16 UNL     1      24.280   2.716  52.149  1.00  0.00     0.041 A 
HETATM   17  C17 UNL     1      23.614   3.904  51.804  1.00  0.00     0.000 A 
HETATM   18  C18 UNL     1      23.152   4.986  52.651  1.00  0.00    -0.030 A 
HETATM   19  C19 UNL     1      22.858   3.499  50.393  1.00  0.00     0.076 A 
ENDROOT
BRANCH   1  20
HETATM   20  N1  UNL     1      21.386   2.123  49.238  1.00  0.00    -0.367 N 
HETATM   21  H5  UNL     1      21.523   1.346  48.493  1.00  0.00     0.161 HD
BRANCH  20  22
HETATM   22  C2  UNL     1      20.390   3.077  48.755  1.00  0.00     0.139 C 
BRANCH  22  23
HETATM   23  C1  UNL     1      19.020   2.459  49.022  1.00  0.00     0.194 C 
BRANCH  23  24
HETATM   24  O1  UNL     1      19.107   1.125  49.317  1.00  0.00    -0.399 OA
HETATM   25  H1  UNL     1      20.011   0.807  49.041  1.00  0.00     0.209 HD
ENDBRANCH  23  24
ENDBRANCH  22  23
BRANCH  22  26
HETATM   26  C20 UNL     1      20.530   3.382  47.303  1.00  0.00    -0.034 A 
HETATM   27  C21 UNL     1      19.466   3.539  46.434  1.00  0.00     0.009 A 
HETATM   28  C22 UNL     1      19.638   3.801  45.084  1.00  0.00     0.001 A 
HETATM   29  C23 UNL     1      20.947   3.909  44.590  1.00  0.00     0.000 A 
HETATM   30  C24 UNL     1      21.958   3.745  45.501  1.00  0.00     0.001 A 
HETATM   31  C25 UNL     1      21.835   3.484  46.851  1.00  0.00     0.009 A 
ENDBRANCH  22  26
ENDBRANCH  20  22
ENDBRANCH   1  20
TORSDOF 5
ENDMDL
MODEL 8
REMARK VINA RESULT:      -8.5      6.757      9.851
REMARK  5 active torsions:
REMARK  status: ('A' for Active; 'I' for Inactive)
REMARK    1  A    between atoms: O1_1  and  C1_2 
REMARK    2  A    between atoms: C1_2  and  C2_3 
REMARK    3  A    between atoms: C2_3  and  N1_4 
REMARK    4  A    between atoms: C2_3  and  C20_24 
REMARK    5  A    between atoms: N1_4  and  C3_5 
ROOT
HETATM    1  C3  UNL     1      29.449   6.801  47.709  1.00  0.00     0.107 C 
HETATM    2  N2  UNL     1      28.923   7.616  46.809  1.00  0.00    -0.229 NA
HETATM    3  C4  UNL     1      29.448   8.014  45.501  1.00  0.00     0.229 C 
HETATM    4  N3  UNL     1      30.502   8.483  44.951  1.00  0.00    -0.278 NA
HETATM    5  C5  UNL     1      31.790   8.959  44.885  1.00  0.00     0.189 C 
HETATM    6  C6  UNL     1      32.805   8.921  46.004  1.00  0.00    -0.024 C 
HETATM    7  C7  UNL     1      33.671   9.418  46.840  1.00  0.00    -0.017 C 
HETATM    8  C8  UNL     1      34.246   8.397  47.478  1.00  0.00     0.012 C 
HETATM    9  C9  UNL     1      33.612   7.830  48.595  1.00  0.00    -0.002 C 
HETATM   10  C10 UNL     1      32.664   7.224  49.390  1.00  0.00    -0.015 C 
HETATM   11  C11 UNL     1      31.270   6.754  49.053  1.00  0.00     0.007 A 
HETATM   12  C12 UNL     1      31.440   5.627  48.299  1.00  0.00     0.032 A 
HETATM   13  C13 UNL     1      31.963   5.338  46.819  1.00  0.00    -0.003 A 
HETATM   14  C14 UNL     1      32.567   6.093  45.791  1.00  0.00     0.038 A 
HETATM   15  C15 UNL     1      32.577   7.495  46.072  1.00  0.00    -0.059 A 
HETATM   16  C16 UNL     1      32.073   6.568  46.877  1.00  0.00     0.041 A 
HETATM   17  C17 UNL     1      31.650   5.363  47.464  1.00  0.00     0.000 A 
HETATM   18  C18 UNL     1      31.758   4.005  46.971  1.00  0.00    -0.030 A 
HETATM   19  C19 UNL     1      30.419   5.853  48.450  1.00  0.00     0.076 A 
ENDROOT
BRANCH   1  20
HETATM   20  N1  UNL     1      28.367   6.911  48.710  1.00  0.00    -0.367 N 
HETATM   21  H5  UNL     1      28.562   7.031  49.770  1.00  0.00     0.161 HD
BRANCH  20  22
HETATM   22  C2  UNL     1      26.923   6.882  48.490  1.00  0.00     0.139 C 
BRANCH  22  23
HETATM   23  C1  UNL     1      26.328   8.020  49.314  1.00  0.00     0.194 C 
BRANCH  23  24
HETATM   24  O1  UNL     1      26.765   7.997  50.611  1.00  0.00    -0.399 OA
HETATM   25  H1  UNL     1      26.425   7.163  51.037  1.00  0.00     0.209 HD
ENDBRANCH  23  24
ENDBRANCH  22  23
BRANCH  22  26
HETATM   26  C20 UNL     1      26.298   5.590  48.888  1.00  0.00    -0.034 A 
HETATM   27  C21 UNL     1      27.008   4.446  49.204  1.00  0.00     0.009 A 
HETATM   28  C22 UNL     1      26.389   3.256  49.550  1.00  0.00     0.001 A 
HETATM   29  C23 UNL     1      24.987   3.220  49.578  1.00  0.00     0.000 A 
HETATM   30  C24 UNL     1      24.340   4.386  49.257  1.00  0.00     0.001 A 
HETATM   31  C25 UNL     1      24.913   5.592  48.907  1.00  0.00     0.009 A 
ENDBRANCH  22  26
ENDBRANCH  20  22
ENDBRANCH   1  20
TORSDOF 5
ENDMDL
MODEL 9
REMARK VINA RESULT:      -8.3      5.889      9.087
REMARK  5 active torsions:
REMARK  status: ('A' for Active; 'I' for Inactive)
REMARK    1  A    between atoms: O1_1  and  C1_2 
REMARK    2  A    between atoms: C1_2  and  C2_3 
REMARK    3  A    between atoms: C2_3  and  N1_4 
REMARK    4  A    between atoms: C2_3  and  C20_24 
REMARK    5  A    between atoms: N1_4  and  C3_5 
ROOT
HETATM    1  C3  UNL     1      27.463   8.130  49.056  1.00  0.00     0.107 C 
HETATM    2  N2  UNL     1      27.698   9.158  49.856  1.00  0.00    -0.229 NA
HETATM    3  C4  UNL     1      28.599  10.296  49.661  1.00  0.00     0.229 C 
HETATM    4  N3  UNL     1      29.811  10.567  49.361  1.00  0.00    -0.278 NA
HETATM    5  C5  UNL     1      31.118  10.311  49.021  1.00  0.00     0.189 C 
HETATM    6  C6  UNL     1      31.680   8.966  48.619  1.00  0.00    -0.024 C 
HETATM    7  C7  UNL     1      32.489   7.949  48.686  1.00  0.00    -0.017 C 
HETATM    8  C8  UNL     1      32.225   7.155  47.647  1.00  0.00     0.012 C 
HETATM    9  C9  UNL     1      31.177   6.225  47.731  1.00  0.00    -0.002 C 
HETATM   10  C10 UNL     1      29.922   5.687  47.903  1.00  0.00    -0.015 C 
HETATM   11  C11 UNL     1      28.613   6.359  48.238  1.00  0.00     0.007 A 
HETATM   12  C12 UNL     1      28.239   7.011  47.097  1.00  0.00     0.032 A 
HETATM   13  C13 UNL     1      28.772   8.297  46.315  1.00  0.00    -0.003 A 
HETATM   14  C14 UNL     1      29.889   9.154  46.415  1.00  0.00     0.038 A 
HETATM   15  C15 UNL     1      30.657   8.919  47.598  1.00  0.00    -0.059 A 
HETATM   16  C16 UNL     1      29.562   8.248  47.264  1.00  0.00     0.041 A 
HETATM   17  C17 UNL     1      28.414   7.756  46.621  1.00  0.00     0.000 A 
HETATM   18  C18 UNL     1      27.805   8.166  45.371  1.00  0.00    -0.030 A 
HETATM   19  C19 UNL     1      27.534   7.137  47.874  1.00  0.00     0.076 A 
ENDROOT
BRANCH   1  20
HETATM   20  N1  UNL     1      26.478   7.446  49.920  1.00  0.00    -0.367 N 
HETATM   21  H5  UNL     1      26.733   7.052  50.898  1.00  0.00     0.161 HD
BRANCH  20  22
HETATM   22  C2  UNL     1      25.066   7.183  49.650  1.00  0.00     0.139 C 
BRANCH  22  23
HETATM   23  C1  UNL     1      24.276   7.779  50.811  1.00  0.00     0.194 C 
BRANCH  23  24
HETATM   24  O1  UNL     1      24.545   7.146  51.995  1.00  0.00    -0.399 OA
HETATM   25  H1  UNL     1      24.887   7.827  52.638  1.00  0.00     0.209 HD
ENDBRANCH  23  24
ENDBRANCH  22  23
BRANCH  22  26
HETATM   26  C20 UNL     1      24.758   5.730  49.525  1.00  0.00    -0.034 A 
HETATM   27  C21 UNL     1      25.649   4.716  49.825  1.00  0.00     0.009 A 
HETATM   28  C22 UNL     1      25.331   3.376  49.675  1.00  0.00     0.001 A 
HETATM   29  C23 UNL     1      24.054   3.046  49.199  1.00  0.00     0.000 A 
HETATM   30  C24 UNL     1      23.217   4.094  48.919  1.00  0.00     0.001 A 
HETATM   31  C25 UNL     1      23.488   5.441  49.053  1.00  0.00     0.009 A 
ENDBRANCH  22  26
ENDBRANCH  20  22
ENDBRANCH   1  20
TORSDOF 5
ENDMDL
