MODEL 1
REMARK VINA RESULT:      -6.7      0.000      0.000
REMARK  11 active torsions:
REMARK  status: ('A' for Active; 'I' for Inactive)
REMARK    1  A    between atoms: C2_2  and  O1_3 
REMARK    2  A    between atoms: O1_3  and  C3_4 
REMARK    3  A    between atoms: C3_4  and  C4_5 
REMARK    4  A    between atoms: C4_5  and  N1_6 
REMARK    5  A    between atoms: N1_6  and  C5_7 
REMARK    6  A    between atoms: C5_7  and  C6_8 
REMARK    7  A    between atoms: C6_8  and  C7_9 
REMARK    8  A    between atoms: C7_9  and  O2_10 
REMARK    9  A    between atoms: O2_10  and  C8_11 
REMARK   10  A    between atoms: N4_20  and  C15_21 
REMARK   11  A    between atoms: C22_28  and  O3_29 
ROOT
HETATM    1  C8  UNL     1      25.358   2.652  51.917  1.00  0.00     0.100 C 
HETATM    2  C9  UNL     1      24.041   2.608  52.024  1.00  0.00     0.044 C 
HETATM    3  C10 UNL     1      23.500   1.647  52.963  1.00  0.00     0.168 C 
HETATM    4  C11 UNL     1      24.530   0.714  53.428  1.00  0.00     0.064 C 
HETATM    5  N2  UNL     1      24.198  -0.480  53.864  1.00  0.00    -0.260 NA
HETATM    6  C12 UNL     1      22.846  -0.922  53.874  1.00  0.00     0.158 C 
HETATM    7  C13 UNL     1      21.847  -0.180  53.426  1.00  0.00     0.135 C 
HETATM    8  C14 UNL     1      20.460  -0.488  53.390  1.00  0.00     0.119 C 
HETATM    9  N3  UNL     1      19.354  -0.753  53.369  1.00  0.00    -0.190 NA
HETATM   10  N4  UNL     1      22.258   1.035  52.761  1.00  0.00    -0.323 N 
HETATM   11  C21 UNL     1      25.979   0.838  53.355  1.00  0.00     0.069 C 
HETATM   12  C22 UNL     1      26.398   1.836  52.550  1.00  0.00     0.103 C 
ENDROOT
BRANCH  10  13
HETATM   13  C15 UNL     1      21.451   1.728  51.837  1.00  0.00     0.036 A 
HETATM   14  C16 UNL     1      20.689   2.838  52.221  1.00  0.00     0.029 A 
HETATM   15  C17 UNL     1      19.918   3.473  51.263  1.00  0.00     0.002 A 
HETATM   16  C18 UNL     1      19.854   3.070  49.932  1.00  0.00     0.000 A 
HETATM   17  C19 UNL     1      20.623   1.960  49.571  1.00  0.00     0.002 A 
HETATM   18  C20 UNL     1      21.393   1.324  50.522  1.00  0.00     0.029 A 
ENDBRANCH  10  13
BRANCH   1  19
HETATM   19  O2  UNL     1      25.868   3.615  51.022  1.00  0.00    -0.348 OA
BRANCH  19  20
HETATM   20  C7  UNL     1      25.963   3.431  49.642  1.00  0.00     0.177 C 
BRANCH  20  21
HETATM   21  C6  UNL     1      27.040   4.322  49.036  1.00  0.00     0.056 C 
BRANCH  21  22
HETATM   22  C5  UNL     1      26.500   5.739  48.838  1.00  0.00     0.272 C 
BRANCH  22  23
HETATM   23  N1  UNL     1      26.306   6.332  50.118  1.00  0.00     0.085 N 
HETATM   24  H10 UNL     1      25.863   5.728  50.818  1.00  0.00     0.315 HD
BRANCH  23  25
HETATM   25  C4  UNL     1      25.562   7.592  50.093  1.00  0.00     0.295 C 
BRANCH  25  26
HETATM   26  C3  UNL     1      24.274   7.533  50.828  1.00  0.00     0.197 C 
BRANCH  26  27
HETATM   27  O1  UNL     1      23.856   6.320  51.208  1.00  0.00    -0.390 OA
BRANCH  27  28
HETATM   28  C2  UNL     1      22.803   5.661  50.741  1.00  0.00     0.163 C 
HETATM   29  C1  UNL     1      22.761   5.317  49.273  1.00  0.00     0.033 C 
ENDBRANCH  27  28
ENDBRANCH  26  27
ENDBRANCH  25  26
ENDBRANCH  23  25
ENDBRANCH  22  23
ENDBRANCH  21  22
ENDBRANCH  20  21
ENDBRANCH  19  20
ENDBRANCH   1  19
BRANCH  12  30
HETATM   30  O3  UNL     1      27.747   2.078  52.333  1.00  0.00    -0.353 OA
HETATM   31  C23 UNL     1      28.558   2.352  53.461  1.00  0.00     0.210 C 
ENDBRANCH  12  30
TORSDOF 11
ENDMDL
MODEL 2
REMARK VINA RESULT:      -6.6      2.914      4.981
REMARK  11 active torsions:
REMARK  status: ('A' for Active; 'I' for Inactive)
REMARK    1  A    between atoms: C2_2  and  O1_3 
REMARK    2  A    between atoms: O1_3  and  C3_4 
REMARK    3  A    between atoms: C3_4  and  C4_5 
REMARK    4  A    between atoms: C4_5  and  N1_6 
REMARK    5  A    between atoms: N1_6  and  C5_7 
REMARK    6  A    between atoms: C5_7  and  C6_8 
REMARK    7  A    between atoms: C6_8  and  C7_9 
REMARK    8  A    between atoms: C7_9  and  O2_10 
REMARK    9  A    between atoms: O2_10  and  C8_11 
REMARK   10  A    between atoms: N4_20  and  C15_21 
REMARK   11  A    between atoms: C22_28  and  O3_29 
ROOT
HETATM    1  C8  UNL     1      23.923   0.117  53.654  1.00  0.00     0.100 C 
HETATM    2  C9  UNL     1      23.084   0.812  52.906  1.00  0.00     0.044 C 
HETATM    3  C10 UNL     1      21.672   0.614  53.163  1.00  0.00     0.168 C 
HETATM    4  C11 UNL     1      21.444  -0.535  54.043  1.00  0.00     0.064 C 
HETATM    5  N2  UNL     1      20.299  -1.179  54.013  1.00  0.00    -0.260 NA
HETATM    6  C12 UNL     1      19.259  -0.811  53.116  1.00  0.00     0.158 C 
HETATM    7  C13 UNL     1      19.381   0.176  52.244  1.00  0.00     0.135 C 
HETATM    8  C14 UNL     1      18.426   0.656  51.307  1.00  0.00     0.119 C 
HETATM    9  N3  UNL     1      17.648   1.026  50.564  1.00  0.00    -0.190 NA
HETATM   10  N4  UNL     1      20.714   0.726  52.150  1.00  0.00    -0.323 N 
HETATM   11  C21 UNL     1      22.387  -1.228  54.910  1.00  0.00     0.069 C 
HETATM   12  C22 UNL     1      23.675  -0.895  54.685  1.00  0.00     0.103 C 
ENDROOT
BRANCH  10  13
HETATM   13  C15 UNL     1      21.187   1.432  51.025  1.00  0.00     0.036 A 
HETATM   14  C16 UNL     1      21.498   0.776  49.829  1.00  0.00     0.029 A 
HETATM   15  C17 UNL     1      21.958   1.531  48.762  1.00  0.00     0.002 A 
HETATM   16  C18 UNL     1      22.132   2.911  48.812  1.00  0.00     0.000 A 
HETATM   17  C19 UNL     1      21.814   3.544  50.017  1.00  0.00     0.002 A 
HETATM   18  C20 UNL     1      21.356   2.797  51.081  1.00  0.00     0.029 A 
ENDBRANCH  10  13
BRANCH   1  19
HETATM   19  O2  UNL     1      25.293   0.346  53.412  1.00  0.00    -0.348 OA
BRANCH  19  20
HETATM   20  C7  UNL     1      25.951  -0.002  52.231  1.00  0.00     0.177 C 
BRANCH  20  21
HETATM   21  C6  UNL     1      26.797   1.152  51.707  1.00  0.00     0.056 C 
BRANCH  21  22
HETATM   22  C5  UNL     1      26.437   2.444  52.441  1.00  0.00     0.272 C 
BRANCH  22  23
HETATM   23  N1  UNL     1      27.157   2.481  53.670  1.00  0.00     0.085 N 
HETATM   24  H10 UNL     1      26.986   3.308  54.252  1.00  0.00     0.315 HD
BRANCH  23  25
HETATM   25  C4  UNL     1      28.606   2.338  53.526  1.00  0.00     0.295 C 
BRANCH  25  26
HETATM   26  C3  UNL     1      29.227   1.514  54.593  1.00  0.00     0.197 C 
BRANCH  26  27
HETATM   27  O1  UNL     1      29.112   0.187  54.468  1.00  0.00    -0.390 OA
BRANCH  27  28
HETATM   28  C2  UNL     1      29.749  -0.586  53.597  1.00  0.00     0.163 C 
HETATM   29  C1  UNL     1      29.095  -1.875  53.166  1.00  0.00     0.033 C 
ENDBRANCH  27  28
ENDBRANCH  26  27
ENDBRANCH  25  26
ENDBRANCH  23  25
ENDBRANCH  22  23
ENDBRANCH  21  22
ENDBRANCH  20  21
ENDBRANCH  19  20
ENDBRANCH   1  19
BRANCH  12  30
HETATM   30  O3  UNL     1      24.712  -1.483  55.394  1.00  0.00    -0.353 OA
HETATM   31  C23 UNL     1      25.049  -0.927  56.653  1.00  0.00     0.210 C 
ENDBRANCH  12  30
TORSDOF 11
ENDMDL
MODEL 3
REMARK VINA RESULT:      -6.6      2.588      5.528
REMARK  11 active torsions:
REMARK  status: ('A' for Active; 'I' for Inactive)
REMARK    1  A    between atoms: C2_2  and  O1_3 
REMARK    2  A    between atoms: O1_3  and  C3_4 
REMARK    3  A    between atoms: C3_4  and  C4_5 
REMARK    4  A    between atoms: C4_5  and  N1_6 
REMARK    5  A    between atoms: N1_6  and  C5_7 
REMARK    6  A    between atoms: C5_7  and  C6_8 
REMARK    7  A    between atoms: C6_8  and  C7_9 
REMARK    8  A    between atoms: C7_9  and  O2_10 
REMARK    9  A    between atoms: O2_10  and  C8_11 
REMARK   10  A    between atoms: N4_20  and  C15_21 
REMARK   11  A    between atoms: C22_28  and  O3_29 
ROOT
HETATM    1  C8  UNL     1      20.818   0.030  52.516  1.00  0.00     0.100 C 
HETATM    2  C9  UNL     1      22.123   0.193  52.381  1.00  0.00     0.044 C 
HETATM    3  C10 UNL     1      22.968  -0.602  53.249  1.00  0.00     0.168 C 
HETATM    4  C11 UNL     1      22.188  -1.250  54.307  1.00  0.00     0.064 C 
HETATM    5  N2  UNL     1      22.759  -1.589  55.441  1.00  0.00    -0.260 NA
HETATM    6  C12 UNL     1      24.131  -1.318  55.697  1.00  0.00     0.158 C 
HETATM    7  C13 UNL     1      24.910  -0.691  54.832  1.00  0.00     0.135 C 
HETATM    8  C14 UNL     1      26.290  -0.370  54.950  1.00  0.00     0.119 C 
HETATM    9  N3  UNL     1      27.394  -0.122  55.063  1.00  0.00    -0.190 NA
HETATM   10  N4  UNL     1      24.213  -0.143  53.691  1.00  0.00    -0.323 N 
HETATM   11  C21 UNL     1      20.751  -1.472  54.382  1.00  0.00     0.069 C 
HETATM   12  C22 UNL     1      20.048  -0.786  53.458  1.00  0.00     0.103 C 
ENDROOT
BRANCH  10  13
HETATM   13  C15 UNL     1      24.717   0.913  52.904  1.00  0.00     0.036 A 
HETATM   14  C16 UNL     1      24.239   2.221  53.044  1.00  0.00     0.029 A 
HETATM   15  C17 UNL     1      24.778   3.211  52.239  1.00  0.00     0.002 A 
HETATM   16  C18 UNL     1      25.772   2.980  51.293  1.00  0.00     0.000 A 
HETATM   17  C19 UNL     1      26.234   1.666  51.171  1.00  0.00     0.002 A 
HETATM   18  C20 UNL     1      25.701   0.677  51.970  1.00  0.00     0.029 A 
ENDBRANCH  10  13
BRANCH   1  19
HETATM   19  O2  UNL     1      20.013   0.787  51.640  1.00  0.00    -0.348 OA
BRANCH  19  20
HETATM   20  C7  UNL     1      20.457   1.322  50.430  1.00  0.00     0.177 C 
BRANCH  20  21
HETATM   21  C6  UNL     1      19.629   2.534  50.022  1.00  0.00     0.056 C 
BRANCH  21  22
HETATM   22  C5  UNL     1      19.690   3.604  51.113  1.00  0.00     0.272 C 
BRANCH  22  23
HETATM   23  N1  UNL     1      21.003   3.613  51.665  1.00  0.00     0.085 N 
HETATM   24  H10 UNL     1      21.090   3.190  52.595  1.00  0.00     0.315 HD
BRANCH  23  25
HETATM   25  C4  UNL     1      21.624   4.937  51.725  1.00  0.00     0.295 C 
BRANCH  25  26
HETATM   26  C3  UNL     1      21.867   5.538  50.390  1.00  0.00     0.197 C 
BRANCH  26  27
HETATM   27  O1  UNL     1      22.941   5.099  49.722  1.00  0.00    -0.390 OA
BRANCH  27  28
HETATM   28  C2  UNL     1      22.943   4.378  48.609  1.00  0.00     0.163 C 
HETATM   29  C1  UNL     1      23.196   2.894  48.711  1.00  0.00     0.033 C 
ENDBRANCH  27  28
ENDBRANCH  26  27
ENDBRANCH  25  26
ENDBRANCH  23  25
ENDBRANCH  22  23
ENDBRANCH  21  22
ENDBRANCH  20  21
ENDBRANCH  19  20
ENDBRANCH   1  19
BRANCH  12  30
HETATM   30  O3  UNL     1      18.663  -0.850  53.403  1.00  0.00    -0.353 OA
HETATM   31  C23 UNL     1      18.054  -2.119  53.560  1.00  0.00     0.210 C 
ENDBRANCH  12  30
TORSDOF 11
ENDMDL
MODEL 4
REMARK VINA RESULT:      -6.5      1.321      1.889
REMARK  11 active torsions:
REMARK  status: ('A' for Active; 'I' for Inactive)
REMARK    1  A    between atoms: C2_2  and  O1_3 
REMARK    2  A    between atoms: O1_3  and  C3_4 
REMARK    3  A    between atoms: C3_4  and  C4_5 
REMARK    4  A    between atoms: C4_5  and  N1_6 
REMARK    5  A    between atoms: N1_6  and  C5_7 
REMARK    6  A    between atoms: C5_7  and  C6_8 
REMARK    7  A    between atoms: C6_8  and  C7_9 
REMARK    8  A    between atoms: C7_9  and  O2_10 
REMARK    9  A    between atoms: O2_10  and  C8_11 
REMARK   10  A    between atoms: N4_20  and  C15_21 
REMARK   11  A    between atoms: C22_28  and  O3_29 
ROOT
HETATM    1  C8  UNL     1      25.339   0.863  52.344  1.00  0.00     0.100 C 
HETATM    2  C9  UNL     1      24.090   1.222  52.101  1.00  0.00     0.044 C 
HETATM    3  C10 UNL     1      23.082   0.709  53.006  1.00  0.00     0.168 C 
HETATM    4  C11 UNL     1      23.626  -0.338  53.876  1.00  0.00     0.064 C 
HETATM    5  N2  UNL     1      22.835  -1.248  54.396  1.00  0.00    -0.260 NA
HETATM    6  C12 UNL     1      21.440  -1.273  54.118  1.00  0.00     0.158 C 
HETATM    7  C13 UNL     1      20.857  -0.408  53.305  1.00  0.00     0.135 C 
HETATM    8  C14 UNL     1      19.485  -0.309  52.951  1.00  0.00     0.119 C 
HETATM    9  N3  UNL     1      18.381  -0.246  52.679  1.00  0.00    -0.190 NA
HETATM   10  N4  UNL     1      21.775   0.444  52.583  1.00  0.00    -0.323 N 
HETATM   11  C21 UNL     1      25.017  -0.653  54.173  1.00  0.00     0.069 C 
HETATM   12  C22 UNL     1      25.897  -0.038  53.356  1.00  0.00     0.103 C 
ENDROOT
BRANCH  10  13
HETATM   13  C15 UNL     1      21.448   1.095  51.377  1.00  0.00     0.036 A 
HETATM   14  C16 UNL     1      21.526   0.435  50.146  1.00  0.00     0.029 A 
HETATM   15  C17 UNL     1      21.191   1.135  48.999  1.00  0.00     0.002 A 
HETATM   16  C18 UNL     1      20.778   2.465  48.999  1.00  0.00     0.000 A 
HETATM   17  C19 UNL     1      20.707   3.103  50.240  1.00  0.00     0.002 A 
HETATM   18  C20 UNL     1      21.041   2.411  51.385  1.00  0.00     0.029 A 
ENDBRANCH  10  13
BRANCH   1  19
HETATM   19  O2  UNL     1      26.310   1.398  51.473  1.00  0.00    -0.348 OA
BRANCH  19  20
HETATM   20  C7  UNL     1      26.420   2.753  51.157  1.00  0.00     0.177 C 
BRANCH  20  21
HETATM   21  C6  UNL     1      26.291   2.985  49.656  1.00  0.00     0.056 C 
BRANCH  21  22
HETATM   22  C5  UNL     1      26.978   4.295  49.266  1.00  0.00     0.272 C 
BRANCH  22  23
HETATM   23  N1  UNL     1      26.278   5.373  49.880  1.00  0.00     0.085 N 
HETATM   24  H10 UNL     1      25.749   5.127  50.723  1.00  0.00     0.315 HD
BRANCH  23  25
HETATM   25  C4  UNL     1      25.370   6.090  48.985  1.00  0.00     0.295 C 
BRANCH  25  26
HETATM   26  C3  UNL     1      23.967   6.124  49.469  1.00  0.00     0.197 C 
BRANCH  26  27
HETATM   27  O1  UNL     1      23.646   5.255  50.436  1.00  0.00    -0.390 OA
BRANCH  27  28
HETATM   28  C2  UNL     1      23.088   5.540  51.605  1.00  0.00     0.163 C 
HETATM   29  C1  UNL     1      23.540   4.776  52.825  1.00  0.00     0.033 C 
ENDBRANCH  27  28
ENDBRANCH  26  27
ENDBRANCH  25  26
ENDBRANCH  23  25
ENDBRANCH  22  23
ENDBRANCH  21  22
ENDBRANCH  20  21
ENDBRANCH  19  20
ENDBRANCH   1  19
BRANCH  12  30
HETATM   30  O3  UNL     1      27.264  -0.248  53.470  1.00  0.00    -0.353 OA
HETATM   31  C23 UNL     1      27.905   0.206  54.649  1.00  0.00     0.210 C 
ENDBRANCH  12  30
TORSDOF 11
ENDMDL
MODEL 5
REMARK VINA RESULT:      -6.5      2.295      3.555
REMARK  11 active torsions:
REMARK  status: ('A' for Active; 'I' for Inactive)
REMARK    1  A    between atoms: C2_2  and  O1_3 
REMARK    2  A    between atoms: O1_3  and  C3_4 
REMARK    3  A    between atoms: C3_4  and  C4_5 
REMARK    4  A    between atoms: C4_5  and  N1_6 
REMARK    5  A    between atoms: N1_6  and  C5_7 
REMARK    6  A    between atoms: C5_7  and  C6_8 
REMARK    7  A    between atoms: C6_8  and  C7_9 
REMARK    8  A    between atoms: C7_9  and  O2_10 
REMARK    9  A    between atoms: O2_10  and  C8_11 
REMARK   10  A    between atoms: N4_20  and  C15_21 
REMARK   11  A    between atoms: C22_28  and  O3_29 
ROOT
HETATM    1  C8  UNL     1      26.041   2.572  51.552  1.00  0.00     0.100 C 
HETATM    2  C9  UNL     1      24.736   2.668  51.365  1.00  0.00     0.044 C 
HETATM    3  C10 UNL     1      23.894   1.925  52.280  1.00  0.00     0.168 C 
HETATM    4  C11 UNL     1      24.679   0.987  53.088  1.00  0.00     0.064 C 
HETATM    5  N2  UNL     1      24.116  -0.085  53.596  1.00  0.00    -0.260 NA
HETATM    6  C12 UNL     1      22.747  -0.392  53.361  1.00  0.00     0.158 C 
HETATM    7  C13 UNL     1      21.965   0.358  52.604  1.00  0.00     0.135 C 
HETATM    8  C14 UNL     1      20.588   0.179  52.299  1.00  0.00     0.119 C 
HETATM    9  N3  UNL     1      19.486   0.019  52.067  1.00  0.00    -0.190 NA
HETATM   10  N4  UNL     1      22.655   1.407  51.889  1.00  0.00    -0.323 N 
HETATM   11  C21 UNL     1      26.115   0.961  53.326  1.00  0.00     0.069 C 
HETATM   12  C22 UNL     1      26.815   1.774  52.507  1.00  0.00     0.103 C 
ENDROOT
BRANCH  10  13
HETATM   13  C15 UNL     1      22.151   2.016  50.722  1.00  0.00     0.036 A 
HETATM   14  C16 UNL     1      21.635   3.317  50.742  1.00  0.00     0.029 A 
HETATM   15  C17 UNL     1      21.156   3.855  49.559  1.00  0.00     0.002 A 
HETATM   16  C18 UNL     1      21.158   3.174  48.345  1.00  0.00     0.000 A 
HETATM   17  C19 UNL     1      21.678   1.877  48.350  1.00  0.00     0.002 A 
HETATM   18  C20 UNL     1      22.156   1.336  49.525  1.00  0.00     0.029 A 
ENDBRANCH  10  13
BRANCH   1  19
HETATM   19  O2  UNL     1      26.843   3.327  50.672  1.00  0.00    -0.348 OA
BRANCH  19  20
HETATM   20  C7  UNL     1      26.444   3.732  49.398  1.00  0.00     0.177 C 
BRANCH  20  21
HETATM   21  C6  UNL     1      26.162   5.229  49.355  1.00  0.00     0.056 C 
BRANCH  21  22
HETATM   22  C5  UNL     1      27.208   5.936  48.491  1.00  0.00     0.272 C 
BRANCH  22  23
HETATM   23  N1  UNL     1      28.499   5.479  48.881  1.00  0.00     0.085 N 
HETATM   24  H10 UNL     1      28.745   5.646  49.862  1.00  0.00     0.315 HD
BRANCH  23  25
HETATM   25  C4  UNL     1      29.595   5.997  48.061  1.00  0.00     0.295 C 
BRANCH  25  26
HETATM   26  C3  UNL     1      30.914   5.952  48.740  1.00  0.00     0.197 C 
BRANCH  26  27
HETATM   27  O1  UNL     1      31.582   4.794  48.675  1.00  0.00    -0.390 OA
BRANCH  27  28
HETATM   28  C2  UNL     1      32.410   4.408  47.713  1.00  0.00     0.163 C 
HETATM   29  C1  UNL     1      31.954   3.333  46.757  1.00  0.00     0.033 C 
ENDBRANCH  27  28
ENDBRANCH  26  27
ENDBRANCH  25  26
ENDBRANCH  23  25
ENDBRANCH  22  23
ENDBRANCH  21  22
ENDBRANCH  20  21
ENDBRANCH  19  20
ENDBRANCH   1  19
BRANCH  12  30
HETATM   30  O3  UNL     1      28.199   1.851  52.568  1.00  0.00    -0.353 OA
HETATM   31  C23 UNL     1      28.779   2.373  53.750  1.00  0.00     0.210 C 
ENDBRANCH  12  30
TORSDOF 11
ENDMDL
MODEL 6
REMARK VINA RESULT:      -6.5      2.636      5.887
REMARK  11 active torsions:
REMARK  status: ('A' for Active; 'I' for Inactive)
REMARK    1  A    between atoms: C2_2  and  O1_3 
REMARK    2  A    between atoms: O1_3  and  C3_4 
REMARK    3  A    between atoms: C3_4  and  C4_5 
REMARK    4  A    between atoms: C4_5  and  N1_6 
REMARK    5  A    between atoms: N1_6  and  C5_7 
REMARK    6  A    between atoms: C5_7  and  C6_8 
REMARK    7  A    between atoms: C6_8  and  C7_9 
REMARK    8  A    between atoms: C7_9  and  O2_10 
REMARK    9  A    between atoms: O2_10  and  C8_11 
REMARK   10  A    between atoms: N4_20  and  C15_21 
REMARK   11  A    between atoms: C22_28  and  O3_29 
ROOT
HETATM    1  C8  UNL     1      23.086   0.646  52.742  1.00  0.00     0.100 C 
HETATM    2  C9  UNL     1      23.223   1.886  52.303  1.00  0.00     0.044 C 
HETATM    3  C10 UNL     1      22.033   2.713  52.316  1.00  0.00     0.168 C 
HETATM    4  C11 UNL     1      20.831   1.916  52.576  1.00  0.00     0.064 C 
HETATM    5  N2  UNL     1      19.655   2.332  52.161  1.00  0.00    -0.260 NA
HETATM    6  C12 UNL     1      19.507   3.540  51.426  1.00  0.00     0.158 C 
HETATM    7  C13 UNL     1      20.533   4.305  51.092  1.00  0.00     0.135 C 
HETATM    8  C14 UNL     1      20.528   5.535  50.379  1.00  0.00     0.119 C 
HETATM    9  N3  UNL     1      20.504   6.518  49.807  1.00  0.00    -0.190 NA
HETATM   10  N4  UNL     1      21.826   3.724  51.372  1.00  0.00    -0.323 N 
HETATM   11  C21 UNL     1      20.722   0.575  53.132  1.00  0.00     0.069 C 
HETATM   12  C22 UNL     1      21.898  -0.083  53.195  1.00  0.00     0.103 C 
ENDROOT
BRANCH  10  13
HETATM   13  C15 UNL     1      23.013   4.116  50.721  1.00  0.00     0.036 A 
HETATM   14  C16 UNL     1      23.786   5.184  51.192  1.00  0.00     0.029 A 
HETATM   15  C17 UNL     1      24.941   5.516  50.505  1.00  0.00     0.002 A 
HETATM   16  C18 UNL     1      25.382   4.847  49.366  1.00  0.00     0.000 A 
HETATM   17  C19 UNL     1      24.594   3.784  48.915  1.00  0.00     0.002 A 
HETATM   18  C20 UNL     1      23.443   3.449  49.596  1.00  0.00     0.029 A 
ENDBRANCH  10  13
BRANCH   1  19
HETATM   19  O2  UNL     1      24.260  -0.133  52.752  1.00  0.00    -0.348 OA
BRANCH  19  20
HETATM   20  C7  UNL     1      25.508   0.333  53.169  1.00  0.00     0.177 C 
BRANCH  20  21
HETATM   21  C6  UNL     1      26.438   0.562  51.983  1.00  0.00     0.056 C 
BRANCH  21  22
HETATM   22  C5  UNL     1      26.905   2.018  51.955  1.00  0.00     0.272 C 
BRANCH  22  23
HETATM   23  N1  UNL     1      27.299   2.393  53.272  1.00  0.00     0.085 N 
HETATM   24  H10 UNL     1      26.894   3.270  53.616  1.00  0.00     0.315 HD
BRANCH  23  25
HETATM   25  C4  UNL     1      28.746   2.470  53.470  1.00  0.00     0.295 C 
BRANCH  25  26
HETATM   26  C3  UNL     1      29.242   1.585  54.554  1.00  0.00     0.197 C 
BRANCH  26  27
HETATM   27  O1  UNL     1      28.997   0.276  54.417  1.00  0.00    -0.390 OA
BRANCH  27  28
HETATM   28  C2  UNL     1      29.774  -0.618  53.819  1.00  0.00     0.163 C 
HETATM   29  C1  UNL     1      29.127  -1.823  53.182  1.00  0.00     0.033 C 
ENDBRANCH  27  28
ENDBRANCH  26  27
ENDBRANCH  25  26
ENDBRANCH  23  25
ENDBRANCH  22  23
ENDBRANCH  21  22
ENDBRANCH  20  21
ENDBRANCH  19  20
ENDBRANCH   1  19
BRANCH  12  30
HETATM   30  O3  UNL     1      21.978  -1.386  53.665  1.00  0.00    -0.353 OA
HETATM   31  C23 UNL     1      22.124  -1.576  55.061  1.00  0.00     0.210 C 
ENDBRANCH  12  30
TORSDOF 11
ENDMDL
MODEL 7
REMARK VINA RESULT:      -6.5      2.141      4.838
REMARK  11 active torsions:
REMARK  status: ('A' for Active; 'I' for Inactive)
REMARK    1  A    between atoms: C2_2  and  O1_3 
REMARK    2  A    between atoms: O1_3  and  C3_4 
REMARK    3  A    between atoms: C3_4  and  C4_5 
REMARK    4  A    between atoms: C4_5  and  N1_6 
REMARK    5  A    between atoms: N1_6  and  C5_7 
REMARK    6  A    between atoms: C5_7  and  C6_8 
REMARK    7  A    between atoms: C6_8  and  C7_9 
REMARK    8  A    between atoms: C7_9  and  O2_10 
REMARK    9  A    between atoms: O2_10  and  C8_11 
REMARK   10  A    between atoms: N4_20  and  C15_21 
REMARK   11  A    between atoms: C22_28  and  O3_29 
ROOT
HETATM    1  C8  UNL     1      24.312   3.269  50.834  1.00  0.00     0.100 C 
HETATM    2  C9  UNL     1      24.601   2.126  51.431  1.00  0.00     0.044 C 
HETATM    3  C10 UNL     1      23.479   1.339  51.902  1.00  0.00     0.168 C 
HETATM    4  C11 UNL     1      22.230   2.106  51.853  1.00  0.00     0.064 C 
HETATM    5  N2  UNL     1      21.231   1.800  52.649  1.00  0.00    -0.260 NA
HETATM    6  C12 UNL     1      21.329   0.747  53.599  1.00  0.00     0.158 C 
HETATM    7  C13 UNL     1      22.427   0.029  53.763  1.00  0.00     0.135 C 
HETATM    8  C14 UNL     1      22.657  -1.052  54.656  1.00  0.00     0.119 C 
HETATM    9  N3  UNL     1      22.821  -1.916  55.378  1.00  0.00    -0.190 NA
HETATM   10  N4  UNL     1      23.573   0.519  53.031  1.00  0.00    -0.323 N 
HETATM   11  C21 UNL     1      21.932   3.328  51.119  1.00  0.00     0.069 C 
HETATM   12  C22 UNL     1      23.025   3.934  50.611  1.00  0.00     0.103 C 
ENDROOT
BRANCH  10  13
HETATM   13  C15 UNL     1      24.906   0.221  53.380  1.00  0.00     0.036 A 
HETATM   14  C16 UNL     1      25.588   0.958  54.355  1.00  0.00     0.029 A 
HETATM   15  C17 UNL     1      26.896   0.612  54.649  1.00  0.00     0.002 A 
HETATM   16  C18 UNL     1      27.576  -0.432  54.029  1.00  0.00     0.000 A 
HETATM   17  C19 UNL     1      26.875  -1.154  53.060  1.00  0.00     0.002 A 
HETATM   18  C20 UNL     1      25.572  -0.814  52.763  1.00  0.00     0.029 A 
ENDBRANCH  10  13
BRANCH   1  19
HETATM   19  O2  UNL     1      25.414   4.005  50.354  1.00  0.00    -0.348 OA
BRANCH  19  20
HETATM   20  C7  UNL     1      26.482   3.449  49.649  1.00  0.00     0.177 C 
BRANCH  20  21
HETATM   21  C6  UNL     1      27.246   4.512  48.868  1.00  0.00     0.056 C 
BRANCH  21  22
HETATM   22  C5  UNL     1      26.362   5.742  48.654  1.00  0.00     0.272 C 
BRANCH  22  23
HETATM   23  N1  UNL     1      26.674   6.704  49.658  1.00  0.00     0.085 N 
HETATM   24  H10 UNL     1      26.044   6.710  50.467  1.00  0.00     0.315 HD
BRANCH  23  25
HETATM   25  C4  UNL     1      26.772   8.079  49.167  1.00  0.00     0.295 C 
BRANCH  25  26
HETATM   26  C3  UNL     1      27.228   9.043  50.199  1.00  0.00     0.197 C 
BRANCH  26  27
HETATM   27  O1  UNL     1      28.412   9.630  49.989  1.00  0.00    -0.390 OA
BRANCH  27  28
HETATM   28  C2  UNL     1      29.419   9.150  49.271  1.00  0.00     0.163 C 
HETATM   29  C1  UNL     1      30.736   9.885  49.295  1.00  0.00     0.033 C 
ENDBRANCH  27  28
ENDBRANCH  26  27
ENDBRANCH  25  26
ENDBRANCH  23  25
ENDBRANCH  22  23
ENDBRANCH  21  22
ENDBRANCH  20  21
ENDBRANCH  19  20
ENDBRANCH   1  19
BRANCH  12  30
HETATM   30  O3  UNL     1      22.934   5.129  49.912  1.00  0.00    -0.353 OA
HETATM   31  C23 UNL     1      22.314   5.103  48.638  1.00  0.00     0.210 C 
ENDBRANCH  12  30
TORSDOF 11
ENDMDL
MODEL 8
REMARK VINA RESULT:      -6.4      1.505      2.395
REMARK  11 active torsions:
REMARK  status: ('A' for Active; 'I' for Inactive)
REMARK    1  A    between atoms: C2_2  and  O1_3 
REMARK    2  A    between atoms: O1_3  and  C3_4 
REMARK    3  A    between atoms: C3_4  and  C4_5 
REMARK    4  A    between atoms: C4_5  and  N1_6 
REMARK    5  A    between atoms: N1_6  and  C5_7 
REMARK    6  A    between atoms: C5_7  and  C6_8 
REMARK    7  A    between atoms: C6_8  and  C7_9 
REMARK    8  A    between atoms: C7_9  and  O2_10 
REMARK    9  A    between atoms: O2_10  and  C8_11 
REMARK   10  A    between atoms: N4_20  and  C15_21 
REMARK   11  A    between atoms: C22_28  and  O3_29 
ROOT
HETATM    1  C8  UNL     1      26.209   2.299  51.851  1.00  0.00     0.100 C 
HETATM    2  C9  UNL     1      24.893   2.412  51.813  1.00  0.00     0.044 C 
HETATM    3  C10 UNL     1      24.149   1.638  52.786  1.00  0.00     0.168 C 
HETATM    4  C11 UNL     1      25.007   0.663  53.464  1.00  0.00     0.064 C 
HETATM    5  N2  UNL     1      24.491  -0.426  53.989  1.00  0.00    -0.260 NA
HETATM    6  C12 UNL     1      23.102  -0.714  53.895  1.00  0.00     0.158 C 
HETATM    7  C13 UNL     1      22.249   0.072  53.259  1.00  0.00     0.135 C 
HETATM    8  C14 UNL     1      20.846  -0.085  53.102  1.00  0.00     0.119 C 
HETATM    9  N3  UNL     1      19.723  -0.229  52.986  1.00  0.00    -0.190 NA
HETATM   10  N4  UNL     1      22.868   1.144  52.514  1.00  0.00    -0.323 N 
HETATM   11  C21 UNL     1      26.461   0.617  53.541  1.00  0.00     0.069 C 
HETATM   12  C22 UNL     1      27.075   1.458  52.683  1.00  0.00     0.103 C 
ENDROOT
BRANCH  10  13
HETATM   13  C15 UNL     1      22.246   1.803  51.435  1.00  0.00     0.036 A 
HETATM   14  C16 UNL     1      22.204   1.234  50.157  1.00  0.00     0.029 A 
HETATM   15  C17 UNL     1      21.577   1.936  49.142  1.00  0.00     0.002 A 
HETATM   16  C18 UNL     1      20.981   3.182  49.318  1.00  0.00     0.000 A 
HETATM   17  C19 UNL     1      21.035   3.730  50.603  1.00  0.00     0.002 A 
HETATM   18  C20 UNL     1      21.659   3.035  51.617  1.00  0.00     0.029 A 
ENDBRANCH  10  13
BRANCH   1  19
HETATM   19  O2  UNL     1      26.918   3.083  50.918  1.00  0.00    -0.348 OA
BRANCH  19  20
HETATM   20  C7  UNL     1      26.507   3.300  49.602  1.00  0.00     0.177 C 
BRANCH  20  21
HETATM   21  C6  UNL     1      27.325   4.404  48.941  1.00  0.00     0.056 C 
BRANCH  21  22
HETATM   22  C5  UNL     1      26.517   5.702  48.898  1.00  0.00     0.272 C 
BRANCH  22  23
HETATM   23  N1  UNL     1      26.189   6.075  50.233  1.00  0.00     0.085 N 
HETATM   24  H10 UNL     1      25.664   5.373  50.766  1.00  0.00     0.315 HD
BRANCH  23  25
HETATM   25  C4  UNL     1      25.466   7.342  50.346  1.00  0.00     0.295 C 
BRANCH  25  26
HETATM   26  C3  UNL     1      26.135   8.468  49.647  1.00  0.00     0.197 C 
BRANCH  26  27
HETATM   27  O1  UNL     1      27.246   8.951  50.217  1.00  0.00    -0.390 OA
BRANCH  27  28
HETATM   28  C2  UNL     1      28.359   9.319  49.596  1.00  0.00     0.163 C 
HETATM   29  C1  UNL     1      28.428  10.702  48.998  1.00  0.00     0.033 C 
ENDBRANCH  27  28
ENDBRANCH  26  27
ENDBRANCH  25  26
ENDBRANCH  23  25
ENDBRANCH  22  23
ENDBRANCH  21  22
ENDBRANCH  20  21
ENDBRANCH  19  20
ENDBRANCH   1  19
BRANCH  12  30
HETATM   30  O3  UNL     1      28.458   1.523  52.593  1.00  0.00    -0.353 OA
HETATM   31  C23 UNL     1      29.214   1.003  53.672  1.00  0.00     0.210 C 
ENDBRANCH  12  30
TORSDOF 11
ENDMDL
MODEL 9
REMARK VINA RESULT:      -6.1      4.010      7.323
REMARK  11 active torsions:
REMARK  status: ('A' for Active; 'I' for Inactive)
REMARK    1  A    between atoms: C2_2  and  O1_3 
REMARK    2  A    between atoms: O1_3  and  C3_4 
REMARK    3  A    between atoms: C3_4  and  C4_5 
REMARK    4  A    between atoms: C4_5  and  N1_6 
REMARK    5  A    between atoms: N1_6  and  C5_7 
REMARK    6  A    between atoms: C5_7  and  C6_8 
REMARK    7  A    between atoms: C6_8  and  C7_9 
REMARK    8  A    between atoms: C7_9  and  O2_10 
REMARK    9  A    between atoms: O2_10  and  C8_11 
REMARK   10  A    between atoms: N4_20  and  C15_21 
REMARK   11  A    between atoms: C22_28  and  O3_29 
ROOT
HETATM    1  C8  UNL     1      20.581   0.049  52.499  1.00  0.00     0.100 C 
HETATM    2  C9  UNL     1      21.882   0.233  52.359  1.00  0.00     0.044 C 
HETATM    3  C10 UNL     1      22.744  -0.580  53.193  1.00  0.00     0.168 C 
HETATM    4  C11 UNL     1      21.982  -1.273  54.235  1.00  0.00     0.064 C 
HETATM    5  N2  UNL     1      22.566  -1.643  55.352  1.00  0.00    -0.260 NA
HETATM    6  C12 UNL     1      23.938  -1.363  55.605  1.00  0.00     0.158 C 
HETATM    7  C13 UNL     1      24.701  -0.697  54.756  1.00  0.00     0.135 C 
HETATM    8  C14 UNL     1      26.077  -0.363  54.874  1.00  0.00     0.119 C 
HETATM    9  N3  UNL     1      27.180  -0.105  54.986  1.00  0.00    -0.190 NA
HETATM   10  N4  UNL     1      23.988  -0.120  53.640  1.00  0.00    -0.323 N 
HETATM   11  C21 UNL     1      20.548  -1.516  54.314  1.00  0.00     0.069 C 
HETATM   12  C22 UNL     1      19.829  -0.808  53.420  1.00  0.00     0.103 C 
ENDROOT
BRANCH  10  13
HETATM   13  C15 UNL     1      24.471   0.969  52.886  1.00  0.00     0.036 A 
HETATM   14  C16 UNL     1      25.475   0.803  51.925  1.00  0.00     0.029 A 
HETATM   15  C17 UNL     1      25.904   1.915  51.219  1.00  0.00     0.002 A 
HETATM   16  C18 UNL     1      25.392   3.195  51.411  1.00  0.00     0.000 A 
HETATM   17  C19 UNL     1      24.390   3.336  52.375  1.00  0.00     0.002 A 
HETATM   18  C20 UNL     1      23.959   2.232  53.080  1.00  0.00     0.029 A 
ENDBRANCH  10  13
BRANCH   1  19
HETATM   19  O2  UNL     1      19.759   0.825  51.657  1.00  0.00    -0.348 OA
BRANCH  19  20
HETATM   20  C7  UNL     1      19.639   2.214  51.739  1.00  0.00     0.177 C 
BRANCH  20  21
HETATM   21  C6  UNL     1      18.359   2.700  51.069  1.00  0.00     0.056 C 
BRANCH  21  22
HETATM   22  C5  UNL     1      17.281   1.619  51.149  1.00  0.00     0.272 C 
BRANCH  22  23
HETATM   23  N1  UNL     1      16.073   2.217  51.609  1.00  0.00     0.085 N 
HETATM   24  H10 UNL     1      15.284   2.169  50.956  1.00  0.00     0.315 HD
BRANCH  23  25
HETATM   25  C4  UNL     1      16.212   3.613  52.027  1.00  0.00     0.295 C 
BRANCH  25  26
HETATM   26  C3  UNL     1      15.134   4.066  52.941  1.00  0.00     0.197 C 
BRANCH  26  27
HETATM   27  O1  UNL     1      14.230   3.148  53.303  1.00  0.00    -0.390 OA
BRANCH  27  28
HETATM   28  C2  UNL     1      12.910   3.278  53.270  1.00  0.00     0.163 C 
HETATM   29  C1  UNL     1      12.276   4.405  54.047  1.00  0.00     0.033 C 
ENDBRANCH  27  28
ENDBRANCH  26  27
ENDBRANCH  25  26
ENDBRANCH  23  25
ENDBRANCH  22  23
ENDBRANCH  21  22
ENDBRANCH  20  21
ENDBRANCH  19  20
ENDBRANCH   1  19
BRANCH  12  30
HETATM   30  O3  UNL     1      18.444  -0.888  53.374  1.00  0.00    -0.353 OA
HETATM   31  C23 UNL     1      17.851  -2.165  53.524  1.00  0.00     0.210 C 
ENDBRANCH  12  30
TORSDOF 11
ENDMDL
