MODEL 1
REMARK VINA RESULT:      -7.3      0.000      0.000
REMARK  3 active torsions:
REMARK  status: ('A' for Active; 'I' for Inactive)
REMARK    1  A    between atoms: C2_3  and  C3_4 
REMARK    2  A    between atoms: C3_4  and  N1_5 
REMARK    3  A    between atoms: N1_5  and  C4_6 
ROOT
HETATM    1  C4  UNL     1      23.998   4.863  50.883  1.00  0.00     0.308 C 
HETATM    2  C5  UNL     1      24.298   3.970  49.670  1.00  0.00     0.242 C 
HETATM    3  O1  UNL     1      24.910   2.801  50.184  1.00  0.00    -0.382 OA
HETATM    4  C6  UNL     1      26.128   3.146  50.772  1.00  0.00     0.197 C 
HETATM    5  C7  UNL     1      26.718   1.985  51.418  1.00  0.00     0.031 C 
HETATM    6  C8  UNL     1      26.304   0.968  52.166  1.00  0.00     0.068 A 
HETATM    7  N2  UNL     1      27.378   0.218  52.451  1.00  0.00    -0.242 NA
HETATM    8  C9  UNL     1      27.460  -0.873  53.173  1.00  0.00     0.233 A 
HETATM    9  N3  UNL     1      26.344  -1.328  53.713  1.00  0.00    -0.253 NA
HETATM   10  C10 UNL     1      25.208  -0.620  53.468  1.00  0.00     0.131 A 
HETATM   11  C11 UNL     1      25.123   0.556  52.690  1.00  0.00     0.008 A 
HETATM   12  C12 UNL     1      23.855   0.934  52.648  1.00  0.00     0.014 C 
HETATM   13  C13 UNL     1      22.755   1.754  52.249  1.00  0.00     0.197 C 
HETATM   14  O2  UNL     1      22.992   2.867  51.517  1.00  0.00    -0.375 OA
HETATM   15  C14 UNL     1      23.670   3.921  52.041  1.00  0.00     0.214 C 
HETATM   16  C15 UNL     1      22.677   5.068  52.287  1.00  0.00     0.208 C 
HETATM   17  O3  UNL     1      22.664   5.273  50.918  1.00  0.00    -0.346 OA
ENDROOT
BRANCH   1  18
HETATM   18  N1  UNL     1      24.855   5.945  51.126  1.00  0.00     0.127 N 
HETATM   19  H5  UNL     1      24.600   6.639  51.819  1.00  0.00     0.320 HD
BRANCH  18  20
HETATM   20  C3  UNL     1      25.248   6.585  49.896  1.00  0.00     0.301 C 
BRANCH  20  21
HETATM   21  C2  UNL     1      25.910   7.915  50.170  1.00  0.00     0.009 C 
HETATM   22  C1  UNL     1      27.021   8.332  49.572  1.00  0.00     0.048 C 
HETATM   23  I1  UNL     1      27.852   7.004  48.166  1.00  0.00    -0.057 I 
ENDBRANCH  20  21
ENDBRANCH  18  20
ENDBRANCH   1  18
TORSDOF 3
ENDMDL
MODEL 2
REMARK VINA RESULT:      -7.1      2.964      4.480
REMARK  3 active torsions:
REMARK  status: ('A' for Active; 'I' for Inactive)
REMARK    1  A    between atoms: C2_3  and  C3_4 
REMARK    2  A    between atoms: C3_4  and  N1_5 
REMARK    3  A    between atoms: N1_5  and  C4_6 
ROOT
HETATM    1  C4  UNL     1      25.439   2.327  51.771  1.00  0.00     0.308 C 
HETATM    2  C5  UNL     1      24.719   3.191  52.817  1.00  0.00     0.242 C 
HETATM    3  O1  UNL     1      23.542   2.487  53.167  1.00  0.00    -0.382 OA
HETATM    4  C6  UNL     1      22.715   2.396  52.047  1.00  0.00     0.197 C 
HETATM    5  C7  UNL     1      21.558   1.569  52.345  1.00  0.00     0.031 C 
HETATM    6  C8  UNL     1      21.307   0.436  52.992  1.00  0.00     0.068 A 
HETATM    7  N2  UNL     1      19.990   0.204  52.897  1.00  0.00    -0.242 NA
HETATM    8  C9  UNL     1      19.290  -0.801  53.364  1.00  0.00     0.233 A 
HETATM    9  N3  UNL     1      19.941  -1.737  54.029  1.00  0.00    -0.253 NA
HETATM   10  C10 UNL     1      21.284  -1.572  54.169  1.00  0.00     0.131 A 
HETATM   11  C11 UNL     1      22.037  -0.489  53.665  1.00  0.00     0.008 A 
HETATM   12  C12 UNL     1      23.298  -0.653  54.031  1.00  0.00     0.014 C 
HETATM   13  C13 UNL     1      24.679  -0.301  54.136  1.00  0.00     0.197 C 
HETATM   14  O2  UNL     1      25.129   0.803  53.498  1.00  0.00    -0.375 OA
HETATM   15  C14 UNL     1      25.149   0.872  52.142  1.00  0.00     0.214 C 
HETATM   16  C15 UNL     1      26.609   0.784  51.669  1.00  0.00     0.208 C 
HETATM   17  O3  UNL     1      26.770   2.085  52.113  1.00  0.00    -0.346 OA
ENDROOT
BRANCH   1  18
HETATM   18  N1  UNL     1      25.334   2.705  50.426  1.00  0.00     0.127 N 
HETATM   19  H5  UNL     1      25.704   2.096  49.705  1.00  0.00     0.320 HD
BRANCH  18  20
HETATM   20  C3  UNL     1      25.796   4.056  50.227  1.00  0.00     0.301 C 
BRANCH  20  21
HETATM   21  C2  UNL     1      26.962   4.088  49.267  1.00  0.00     0.009 C 
HETATM   22  C1  UNL     1      27.355   5.173  48.608  1.00  0.00     0.048 C 
HETATM   23  I1  UNL     1      26.236   6.917  48.977  1.00  0.00    -0.057 I 
ENDBRANCH  20  21
ENDBRANCH  18  20
ENDBRANCH   1  18
TORSDOF 3
ENDMDL
MODEL 3
REMARK VINA RESULT:      -7.1      1.936      2.623
REMARK  3 active torsions:
REMARK  status: ('A' for Active; 'I' for Inactive)
REMARK    1  A    between atoms: C2_3  and  C3_4 
REMARK    2  A    between atoms: C3_4  and  N1_5 
REMARK    3  A    between atoms: N1_5  and  C4_6 
ROOT
HETATM    1  C4  UNL     1      23.309   4.149  50.939  1.00  0.00     0.308 C 
HETATM    2  C5  UNL     1      23.549   2.903  50.075  1.00  0.00     0.242 C 
HETATM    3  O1  UNL     1      23.418   1.791  50.942  1.00  0.00    -0.382 OA
HETATM    4  C6  UNL     1      24.427   1.844  51.906  1.00  0.00     0.197 C 
HETATM    5  C7  UNL     1      24.241   0.785  52.884  1.00  0.00     0.031 C 
HETATM    6  C8  UNL     1      23.229   0.231  53.543  1.00  0.00     0.068 A 
HETATM    7  N2  UNL     1      23.740  -0.731  54.324  1.00  0.00    -0.242 NA
HETATM    8  C9  UNL     1      23.127  -1.530  55.163  1.00  0.00     0.233 A 
HETATM    9  N3  UNL     1      21.819  -1.397  55.282  1.00  0.00    -0.253 NA
HETATM   10  C10 UNL     1      21.225  -0.439  54.519  1.00  0.00     0.131 A 
HETATM   11  C11 UNL     1      21.888   0.420  53.616  1.00  0.00     0.008 A 
HETATM   12  C12 UNL     1      20.981   1.186  53.030  1.00  0.00     0.014 C 
HETATM   13  C13 UNL     1      20.512   2.187  52.125  1.00  0.00     0.197 C 
HETATM   14  O2  UNL     1      21.408   2.893  51.398  1.00  0.00    -0.375 OA
HETATM   15  C14 UNL     1      22.278   3.749  51.995  1.00  0.00     0.214 C 
HETATM   16  C15 UNL     1      21.845   5.189  51.674  1.00  0.00     0.208 C 
HETATM   17  O3  UNL     1      22.334   4.988  50.394  1.00  0.00    -0.346 OA
ENDROOT
BRANCH   1  18
HETATM   18  N1  UNL     1      24.427   4.889  51.347  1.00  0.00     0.127 N 
HETATM   19  H5  UNL     1      24.347   5.524  52.133  1.00  0.00     0.320 HD
BRANCH  18  20
HETATM   20  C3  UNL     1      25.048   5.552  50.228  1.00  0.00     0.301 C 
BRANCH  20  21
HETATM   21  C2  UNL     1      25.338   6.998  50.554  1.00  0.00     0.009 C 
HETATM   22  C1  UNL     1      26.236   7.741  49.916  1.00  0.00     0.048 C 
HETATM   23  I1  UNL     1      27.281   6.775  48.366  1.00  0.00    -0.057 I 
ENDBRANCH  20  21
ENDBRANCH  18  20
ENDBRANCH   1  18
TORSDOF 3
ENDMDL
MODEL 4
REMARK VINA RESULT:      -6.8      2.033      2.341
REMARK  3 active torsions:
REMARK  status: ('A' for Active; 'I' for Inactive)
REMARK    1  A    between atoms: C2_3  and  C3_4 
REMARK    2  A    between atoms: C3_4  and  N1_5 
REMARK    3  A    between atoms: N1_5  and  C4_6 
ROOT
HETATM    1  C4  UNL     1      21.882   3.597  51.103  1.00  0.00     0.308 C 
HETATM    2  C5  UNL     1      22.957   3.072  50.140  1.00  0.00     0.242 C 
HETATM    3  O1  UNL     1      23.870   2.336  50.934  1.00  0.00    -0.382 OA
HETATM    4  C6  UNL     1      24.491   3.202  51.836  1.00  0.00     0.197 C 
HETATM    5  C7  UNL     1      25.339   2.451  52.746  1.00  0.00     0.031 C 
HETATM    6  C8  UNL     1      25.276   1.311  53.426  1.00  0.00     0.068 A 
HETATM    7  N2  UNL     1      26.424   1.185  54.105  1.00  0.00    -0.242 NA
HETATM    8  C9  UNL     1      26.804   0.233  54.921  1.00  0.00     0.233 A 
HETATM    9  N3  UNL     1      25.961  -0.762  55.128  1.00  0.00    -0.253 NA
HETATM   10  C10 UNL     1      24.770  -0.707  54.471  1.00  0.00     0.131 A 
HETATM   11  C11 UNL     1      24.363   0.321  53.592  1.00  0.00     0.008 A 
HETATM   12  C12 UNL     1      23.167   0.011  53.118  1.00  0.00     0.014 C 
HETATM   13  C13 UNL     1      21.998   0.192  52.315  1.00  0.00     0.197 C 
HETATM   14  O2  UNL     1      21.867   1.324  51.587  1.00  0.00    -0.375 OA
HETATM   15  C14 UNL     1      21.719   2.533  52.189  1.00  0.00     0.214 C 
HETATM   16  C15 UNL     1      20.267   3.001  51.996  1.00  0.00     0.208 C 
HETATM   17  O3  UNL     1      20.592   3.275  50.678  1.00  0.00    -0.346 OA
ENDROOT
BRANCH   1  18
HETATM   18  N1  UNL     1      21.954   4.941  51.492  1.00  0.00     0.127 N 
HETATM   19  H5  UNL     1      21.207   5.341  52.050  1.00  0.00     0.320 HD
BRANCH  18  20
HETATM   20  C3  UNL     1      22.252   5.794  50.369  1.00  0.00     0.301 C 
BRANCH  20  21
HETATM   21  C2  UNL     1      22.619   7.184  50.833  1.00  0.00     0.009 C 
HETATM   22  C1  UNL     1      23.820   7.731  50.674  1.00  0.00     0.048 C 
HETATM   23  I1  UNL     1      25.248   6.525  49.707  1.00  0.00    -0.057 I 
ENDBRANCH  20  21
ENDBRANCH  18  20
ENDBRANCH   1  18
TORSDOF 3
ENDMDL
MODEL 5
REMARK VINA RESULT:      -6.8      3.302      4.928
REMARK  3 active torsions:
REMARK  status: ('A' for Active; 'I' for Inactive)
REMARK    1  A    between atoms: C2_3  and  C3_4 
REMARK    2  A    between atoms: C3_4  and  N1_5 
REMARK    3  A    between atoms: N1_5  and  C4_6 
ROOT
HETATM    1  C4  UNL     1      23.662   1.763  52.169  1.00  0.00     0.308 C 
HETATM    2  C5  UNL     1      23.440   0.971  53.466  1.00  0.00     0.242 C 
HETATM    3  O1  UNL     1      24.644   0.267  53.708  1.00  0.00    -0.382 OA
HETATM    4  C6  UNL     1      24.850  -0.652  52.676  1.00  0.00     0.197 C 
HETATM    5  C7  UNL     1      26.142  -1.299  52.833  1.00  0.00     0.031 C 
HETATM    6  C8  UNL     1      27.379  -0.945  53.166  1.00  0.00     0.068 A 
HETATM    7  N2  UNL     1      28.137  -2.049  53.120  1.00  0.00    -0.242 NA
HETATM    8  C9  UNL     1      29.420  -2.183  53.353  1.00  0.00     0.233 A 
HETATM    9  N3  UNL     1      30.094  -1.096  53.682  1.00  0.00    -0.253 NA
HETATM   10  C10 UNL     1      29.392   0.067  53.751  1.00  0.00     0.131 A 
HETATM   11  C11 UNL     1      28.009   0.209  53.500  1.00  0.00     0.008 A 
HETATM   12  C12 UNL     1      27.679   1.475  53.703  1.00  0.00     0.014 C 
HETATM   13  C13 UNL     1      26.789   2.590  53.786  1.00  0.00     0.197 C 
HETATM   14  O2  UNL     1      25.492   2.427  53.437  1.00  0.00    -0.375 OA
HETATM   15  C14 UNL     1      25.139   2.159  52.153  1.00  0.00     0.214 C 
HETATM   16  C15 UNL     1      24.478   3.412  51.556  1.00  0.00     0.208 C 
HETATM   17  O3  UNL     1      23.363   3.118  52.322  1.00  0.00    -0.346 OA
ENDROOT
BRANCH   1  18
HETATM   18  N1  UNL     1      23.094   1.261  50.991  1.00  0.00     0.127 N 
HETATM   19  H5  UNL     1      23.212   1.770  50.122  1.00  0.00     0.320 HD
BRANCH  18  20
HETATM   20  C3  UNL     1      21.709   0.916  51.186  1.00  0.00     0.301 C 
BRANCH  20  21
HETATM   21  C2  UNL     1      20.946   0.996  49.884  1.00  0.00     0.009 C 
HETATM   22  C1  UNL     1      20.023   1.914  49.616  1.00  0.00     0.048 C 
HETATM   23  I1  UNL     1      19.655   3.309  51.148  1.00  0.00    -0.057 I 
ENDBRANCH  20  21
ENDBRANCH  18  20
ENDBRANCH   1  18
TORSDOF 3
ENDMDL
MODEL 6
REMARK VINA RESULT:      -6.8      2.891      3.692
REMARK  3 active torsions:
REMARK  status: ('A' for Active; 'I' for Inactive)
REMARK    1  A    between atoms: C2_3  and  C3_4 
REMARK    2  A    between atoms: C3_4  and  N1_5 
REMARK    3  A    between atoms: N1_5  and  C4_6 
ROOT
HETATM    1  C4  UNL     1      22.010   1.655  52.175  1.00  0.00     0.308 C 
HETATM    2  C5  UNL     1      22.914   1.420  50.956  1.00  0.00     0.242 C 
HETATM    3  O1  UNL     1      24.241   1.400  51.449  1.00  0.00    -0.382 OA
HETATM    4  C6  UNL     1      24.551   2.656  51.974  1.00  0.00     0.197 C 
HETATM    5  C7  UNL     1      25.862   2.627  52.599  1.00  0.00     0.031 C 
HETATM    6  C8  UNL     1      26.557   1.802  53.375  1.00  0.00     0.068 A 
HETATM    7  N2  UNL     1      27.743   2.379  53.612  1.00  0.00    -0.242 NA
HETATM    8  C9  UNL     1      28.746   1.946  54.337  1.00  0.00     0.233 A 
HETATM    9  N3  UNL     1      28.602   0.778  54.935  1.00  0.00    -0.253 NA
HETATM   10  C10 UNL     1      27.422   0.127  54.741  1.00  0.00     0.131 A 
HETATM   11  C11 UNL     1      26.344   0.596  53.959  1.00  0.00     0.008 A 
HETATM   12  C12 UNL     1      25.390  -0.322  53.975  1.00  0.00     0.014 C 
HETATM   13  C13 UNL     1      24.128  -0.893  53.624  1.00  0.00     0.197 C 
HETATM   14  O2  UNL     1      23.263  -0.173  52.873  1.00  0.00    -0.375 OA
HETATM   15  C14 UNL     1      22.689   0.959  53.356  1.00  0.00     0.214 C 
HETATM   16  C15 UNL     1      21.205   0.672  53.641  1.00  0.00     0.208 C 
HETATM   17  O3  UNL     1      20.997   0.698  52.273  1.00  0.00    -0.346 OA
ENDROOT
BRANCH   1  18
HETATM   18  N1  UNL     1      21.494   2.943  52.368  1.00  0.00     0.127 N 
HETATM   19  H5  UNL     1      20.701   3.077  52.985  1.00  0.00     0.320 HD
BRANCH  18  20
HETATM   20  C3  UNL     1      21.268   3.607  51.109  1.00  0.00     0.301 C 
BRANCH  20  21
HETATM   21  C2  UNL     1      21.522   5.092  51.232  1.00  0.00     0.009 C 
HETATM   22  C1  UNL     1      22.251   5.797  50.374  1.00  0.00     0.048 C 
HETATM   23  I1  UNL     1      23.071   4.711  48.769  1.00  0.00    -0.057 I 
ENDBRANCH  20  21
ENDBRANCH  18  20
ENDBRANCH   1  18
TORSDOF 3
ENDMDL
MODEL 7
REMARK VINA RESULT:      -6.5      3.791      6.160
REMARK  3 active torsions:
REMARK  status: ('A' for Active; 'I' for Inactive)
REMARK    1  A    between atoms: C2_3  and  C3_4 
REMARK    2  A    between atoms: C3_4  and  N1_5 
REMARK    3  A    between atoms: N1_5  and  C4_6 
ROOT
HETATM    1  C4  UNL     1      22.229   3.554  51.248  1.00  0.00     0.308 C 
HETATM    2  C5  UNL     1      23.350   3.288  52.263  1.00  0.00     0.242 C 
HETATM    3  O1  UNL     1      24.547   3.735  51.653  1.00  0.00    -0.382 OA
HETATM    4  C6  UNL     1      24.801   2.956  50.523  1.00  0.00     0.197 C 
HETATM    5  C7  UNL     1      25.955   3.474  49.807  1.00  0.00     0.031 C 
HETATM    6  C8  UNL     1      26.439   4.662  49.462  1.00  0.00     0.068 A 
HETATM    7  N2  UNL     1      27.577   4.450  48.787  1.00  0.00    -0.242 NA
HETATM    8  C9  UNL     1      28.390   5.320  48.239  1.00  0.00     0.233 A 
HETATM    9  N3  UNL     1      28.073   6.598  48.347  1.00  0.00    -0.253 NA
HETATM   10  C10 UNL     1      26.930   6.894  49.022  1.00  0.00     0.131 A 
HETATM   11  C11 UNL     1      26.056   5.955  49.612  1.00  0.00     0.008 A 
HETATM   12  C12 UNL     1      25.077   6.617  50.210  1.00  0.00     0.014 C 
HETATM   13  C13 UNL     1      23.888   6.757  50.990  1.00  0.00     0.197 C 
HETATM   14  O2  UNL     1      23.229   5.647  51.393  1.00  0.00    -0.375 OA
HETATM   15  C14 UNL     1      22.620   4.827  50.497  1.00  0.00     0.214 C 
HETATM   16  C15 UNL     1      21.099   5.003  50.627  1.00  0.00     0.208 C 
HETATM   17  O3  UNL     1      21.175   4.281  51.806  1.00  0.00    -0.346 OA
ENDROOT
BRANCH   1  18
HETATM   18  N1  UNL     1      21.745   2.466  50.510  1.00  0.00     0.127 N 
HETATM   19  H5  UNL     1      20.830   2.523  50.077  1.00  0.00     0.320 HD
BRANCH  18  20
HETATM   20  C3  UNL     1      21.874   1.236  51.249  1.00  0.00     0.301 C 
BRANCH  20  21
HETATM   21  C2  UNL     1      20.523   0.744  51.713  1.00  0.00     0.009 C 
HETATM   22  C1  UNL     1      20.330   0.014  52.807  1.00  0.00     0.048 C 
HETATM   23  I1  UNL     1      22.062  -0.444  53.911  1.00  0.00    -0.057 I 
ENDBRANCH  20  21
ENDBRANCH  18  20
ENDBRANCH   1  18
TORSDOF 3
ENDMDL
MODEL 8
REMARK VINA RESULT:      -6.5      3.976      5.851
REMARK  3 active torsions:
REMARK  status: ('A' for Active; 'I' for Inactive)
REMARK    1  A    between atoms: C2_3  and  C3_4 
REMARK    2  A    between atoms: C3_4  and  N1_5 
REMARK    3  A    between atoms: N1_5  and  C4_6 
ROOT
HETATM    1  C4  UNL     1      21.609   1.702  50.921  1.00  0.00     0.308 C 
HETATM    2  C5  UNL     1      21.547   2.236  52.360  1.00  0.00     0.242 C 
HETATM    3  O1  UNL     1      22.804   1.943  52.943  1.00  0.00    -0.382 OA
HETATM    4  C6  UNL     1      22.964   0.557  53.007  1.00  0.00     0.197 C 
HETATM    5  C7  UNL     1      24.297   0.230  53.485  1.00  0.00     0.031 C 
HETATM    6  C8  UNL     1      25.538   0.664  53.292  1.00  0.00     0.068 A 
HETATM    7  N2  UNL     1      26.347  -0.086  54.054  1.00  0.00    -0.242 NA
HETATM    8  C9  UNL     1      27.651  -0.036  54.177  1.00  0.00     0.233 A 
HETATM    9  N3  UNL     1      28.293   0.870  53.464  1.00  0.00    -0.253 NA
HETATM   10  C10 UNL     1      27.540   1.672  52.664  1.00  0.00     0.131 A 
HETATM   11  C11 UNL     1      26.135   1.617  52.532  1.00  0.00     0.008 A 
HETATM   12  C12 UNL     1      25.757   2.573  51.699  1.00  0.00     0.014 C 
HETATM   13  C13 UNL     1      24.821   3.363  50.963  1.00  0.00     0.197 C 
HETATM   14  O2  UNL     1      23.508   3.039  51.003  1.00  0.00    -0.375 OA
HETATM   15  C14 UNL     1      23.055   1.880  50.458  1.00  0.00     0.214 C 
HETATM   16  C15 UNL     1      22.278   2.213  49.174  1.00  0.00     0.208 C 
HETATM   17  O3  UNL     1      21.254   2.674  49.984  1.00  0.00    -0.346 OA
ENDROOT
BRANCH   1  18
HETATM   18  N1  UNL     1      20.965   0.489  50.646  1.00  0.00     0.127 N 
HETATM   19  H5  UNL     1      20.804   0.216  49.683  1.00  0.00     0.320 HD
BRANCH  18  20
HETATM   20  C3  UNL     1      19.752   0.357  51.413  1.00  0.00     0.301 C 
BRANCH  20  21
HETATM   21  C2  UNL     1      18.539   0.417  50.515  1.00  0.00     0.009 C 
HETATM   22  C1  UNL     1      17.358  -0.112  50.820  1.00  0.00     0.048 C 
HETATM   23  I1  UNL     1      17.249  -1.077  52.687  1.00  0.00    -0.057 I 
ENDBRANCH  20  21
ENDBRANCH  18  20
ENDBRANCH   1  18
TORSDOF 3
ENDMDL
MODEL 9
REMARK VINA RESULT:      -6.5      3.918      5.784
REMARK  3 active torsions:
REMARK  status: ('A' for Active; 'I' for Inactive)
REMARK    1  A    between atoms: C2_3  and  C3_4 
REMARK    2  A    between atoms: C3_4  and  N1_5 
REMARK    3  A    between atoms: N1_5  and  C4_6 
ROOT
HETATM    1  C4  UNL     1      24.142   3.017  52.147  1.00  0.00     0.308 C 
HETATM    2  C5  UNL     1      24.261   1.784  51.240  1.00  0.00     0.242 C 
HETATM    3  O1  UNL     1      23.040   1.079  51.372  1.00  0.00    -0.382 OA
HETATM    4  C6  UNL     1      22.914   0.630  52.688  1.00  0.00     0.197 C 
HETATM    5  C7  UNL     1      21.612   0.013  52.883  1.00  0.00     0.031 C 
HETATM    6  C8  UNL     1      20.354   0.252  52.528  1.00  0.00     0.068 A 
HETATM    7  N2  UNL     1      19.600  -0.727  53.047  1.00  0.00    -0.242 NA
HETATM    8  C9  UNL     1      18.302  -0.900  52.975  1.00  0.00     0.233 A 
HETATM    9  N3  UNL     1      17.607  -0.001  52.303  1.00  0.00    -0.253 NA
HETATM   10  C10 UNL     1      18.304   1.026  51.745  1.00  0.00     0.131 A 
HETATM   11  C11 UNL     1      19.702   1.210  51.824  1.00  0.00     0.008 A 
HETATM   12  C12 UNL     1      20.018   2.292  51.129  1.00  0.00     0.014 C 
HETATM   13  C13 UNL     1      20.900   3.262  50.563  1.00  0.00     0.197 C 
HETATM   14  O2  UNL     1      22.220   3.205  50.854  1.00  0.00    -0.375 OA
HETATM   15  C14 UNL     1      22.671   3.435  52.114  1.00  0.00     0.214 C 
HETATM   16  C15 UNL     1      23.379   4.800  52.139  1.00  0.00     0.208 C 
HETATM   17  O3  UNL     1      24.430   4.201  51.466  1.00  0.00    -0.346 OA
ENDROOT
BRANCH   1  18
HETATM   18  N1  UNL     1      24.798   2.985  53.384  1.00  0.00     0.127 N 
HETATM   19  H5  UNL     1      24.967   3.851  53.884  1.00  0.00     0.320 HD
BRANCH  18  20
HETATM   20  C3  UNL     1      26.008   2.204  53.312  1.00  0.00     0.301 C 
BRANCH  20  21
HETATM   21  C2  UNL     1      26.202   1.396  54.573  1.00  0.00     0.009 C 
HETATM   22  C1  UNL     1      26.537   0.110  54.592  1.00  0.00     0.048 C 
HETATM   23  I1  UNL     1      26.795  -0.789  52.706  1.00  0.00    -0.057 I 
ENDBRANCH  20  21
ENDBRANCH  18  20
ENDBRANCH   1  18
TORSDOF 3
ENDMDL
