MODEL 1
REMARK VINA RESULT:      -8.4      0.000      0.000
REMARK  4 active torsions:
REMARK  status: ('A' for Active; 'I' for Inactive)
REMARK    1  A    between atoms: O1_1  and  C1_2 
REMARK    2  A    between atoms: C3_5  and  N1_6 
REMARK    3  A    between atoms: C4_7  and  C5_8 
REMARK    4  A    between atoms: C12_15  and  C13_16 
ROOT
HETATM    1  N1  UNL     1      25.186   3.248  50.760  1.00  0.00    -0.342 N 
HETATM    2  C4  UNL     1      23.783   3.429  51.195  1.00  0.00     0.122 C 
HETATM    3  C11 UNL     1      24.242   2.731  52.483  1.00  0.00     0.060 C 
HETATM    4  C12 UNL     1      25.136   2.010  51.460  1.00  0.00     0.122 C 
ENDROOT
BRANCH   1   5
HETATM    5  C3  UNL     1      26.046   4.095  49.968  1.00  0.00     0.172 A 
HETATM    6  S1  UNL     1      25.362   5.748  49.589  1.00  0.00    -0.060 SA
HETATM    7  C2  UNL     1      26.918   6.214  48.618  1.00  0.00     0.111 A 
HETATM    8  C1  UNL     1      27.690   5.009  48.758  1.00  0.00     0.171 A 
HETATM    9  N2  UNL     1      27.103   4.068  49.457  1.00  0.00    -0.200 NA
BRANCH   8  10
HETATM   10  O1  UNL     1      28.970   4.649  48.282  1.00  0.00    -0.344 OA
HETATM   11  H1  UNL     1      29.150   3.679  48.014  1.00  0.00     0.219 HD
ENDBRANCH   8  10
ENDBRANCH   1   5
BRANCH   2  12
HETATM   12  C5  UNL     1      22.847   2.541  50.475  1.00  0.00    -0.035 A 
HETATM   13  C6  UNL     1      22.873   2.661  49.083  1.00  0.00     0.009 A 
HETATM   14  C7  UNL     1      22.060   1.903  48.262  1.00  0.00     0.001 A 
HETATM   15  C8  UNL     1      21.178   0.983  48.792  1.00  0.00     0.000 A 
HETATM   16  C9  UNL     1      21.154   0.868  50.171  1.00  0.00     0.001 A 
HETATM   17  C10 UNL     1      21.962   1.622  50.997  1.00  0.00     0.009 A 
ENDBRANCH   2  12
BRANCH   4  18
HETATM   18  C13 UNL     1      26.354   1.474  52.083  1.00  0.00    -0.035 A 
HETATM   19  C14 UNL     1      26.435   0.074  52.091  1.00  0.00     0.010 A 
HETATM   20  C15 UNL     1      27.486  -0.641  52.614  1.00  0.00     0.019 A 
HETATM   21  C16 UNL     1      28.545   0.042  53.176  1.00  0.00     0.011 A 
HETATM   22 BR1  UNL     1      30.067  -0.814  53.939  1.00  0.00    -0.051 Br
HETATM   23  C17 UNL     1      28.497   1.415  53.184  1.00  0.00     0.019 A 
HETATM   24  C18 UNL     1      27.436   2.107  52.654  1.00  0.00     0.010 A 
ENDBRANCH   4  18
TORSDOF 4
ENDMDL
MODEL 2
REMARK VINA RESULT:      -8.3      4.149      6.897
REMARK  4 active torsions:
REMARK  status: ('A' for Active; 'I' for Inactive)
REMARK    1  A    between atoms: O1_1  and  C1_2 
REMARK    2  A    between atoms: C3_5  and  N1_6 
REMARK    3  A    between atoms: C4_7  and  C5_8 
REMARK    4  A    between atoms: C12_15  and  C13_16 
ROOT
HETATM    1  N1  UNL     1      24.943   0.771  53.097  1.00  0.00    -0.342 N 
HETATM    2  C4  UNL     1      25.945   0.550  54.164  1.00  0.00     0.122 C 
HETATM    3  C11 UNL     1      26.393   1.982  53.844  1.00  0.00     0.060 C 
HETATM    4  C12 UNL     1      25.958   1.523  52.442  1.00  0.00     0.122 C 
ENDROOT
BRANCH   1   5
HETATM    5  C3  UNL     1      23.576   0.322  52.977  1.00  0.00     0.172 A 
HETATM    6  S1  UNL     1      23.015  -0.803  54.305  1.00  0.00    -0.060 SA
HETATM    7  C2  UNL     1      21.297  -0.936  53.522  1.00  0.00     0.111 A 
HETATM    8  C1  UNL     1      21.462  -0.087  52.373  1.00  0.00     0.171 A 
HETATM    9  N2  UNL     1      22.653   0.451  52.263  1.00  0.00    -0.200 NA
BRANCH   8  10
HETATM   10  O1  UNL     1      20.576   0.277  51.336  1.00  0.00    -0.344 OA
HETATM   11  H1  UNL     1      20.288   1.254  51.243  1.00  0.00     0.219 HD
ENDBRANCH   8  10
ENDBRANCH   1   5
BRANCH   2  12
HETATM   12  C5  UNL     1      27.010  -0.390  53.755  1.00  0.00    -0.035 A 
HETATM   13  C6  UNL     1      28.290  -0.066  54.214  1.00  0.00     0.009 A 
HETATM   14  C7  UNL     1      29.396  -0.841  53.921  1.00  0.00     0.001 A 
HETATM   15  C8  UNL     1      29.279  -1.982  53.153  1.00  0.00     0.000 A 
HETATM   16  C9  UNL     1      28.009  -2.299  52.700  1.00  0.00     0.001 A 
HETATM   17  C10 UNL     1      26.901  -1.530  52.988  1.00  0.00     0.009 A 
ENDBRANCH   2  12
BRANCH   4  18
HETATM   18  C13 UNL     1      25.587   2.659  51.587  1.00  0.00    -0.035 A 
HETATM   19  C14 UNL     1      26.476   2.907  50.531  1.00  0.00     0.010 A 
HETATM   20  C15 UNL     1      26.323   3.912  49.606  1.00  0.00     0.019 A 
HETATM   21  C16 UNL     1      25.230   4.747  49.700  1.00  0.00     0.011 A 
HETATM   22 BR1  UNL     1      24.889   6.181  48.492  1.00  0.00    -0.051 Br
HETATM   23  C17 UNL     1      24.339   4.532  50.724  1.00  0.00     0.019 A 
HETATM   24  C18 UNL     1      24.513   3.521  51.636  1.00  0.00     0.010 A 
ENDBRANCH   4  18
TORSDOF 4
ENDMDL
MODEL 3
REMARK VINA RESULT:      -7.6      3.662      5.529
REMARK  4 active torsions:
REMARK  status: ('A' for Active; 'I' for Inactive)
REMARK    1  A    between atoms: O1_1  and  C1_2 
REMARK    2  A    between atoms: C3_5  and  N1_6 
REMARK    3  A    between atoms: C4_7  and  C5_8 
REMARK    4  A    between atoms: C12_15  and  C13_16 
ROOT
HETATM    1  N1  UNL     1      24.801   1.744  52.034  1.00  0.00    -0.342 N 
HETATM    2  C4  UNL     1      23.766   0.763  51.634  1.00  0.00     0.122 C 
HETATM    3  C11 UNL     1      23.387   1.809  50.576  1.00  0.00     0.060 C 
HETATM    4  C12 UNL     1      23.834   2.739  51.717  1.00  0.00     0.122 C 
ENDROOT
BRANCH   1   5
HETATM    5  C3  UNL     1      26.150   1.552  52.511  1.00  0.00     0.172 A 
HETATM    6  S1  UNL     1      26.576  -0.172  52.946  1.00  0.00    -0.060 SA
HETATM    7  C2  UNL     1      28.330   0.342  53.436  1.00  0.00     0.111 A 
HETATM    8  C1  UNL     1      28.276   1.755  53.177  1.00  0.00     0.171 A 
HETATM    9  N2  UNL     1      27.120   2.179  52.723  1.00  0.00    -0.200 NA
BRANCH   8  10
HETATM   10  O1  UNL     1      29.239   2.778  53.319  1.00  0.00    -0.344 OA
HETATM   11  H1  UNL     1      30.232   2.533  53.326  1.00  0.00     0.219 HD
ENDBRANCH   8  10
ENDBRANCH   1   5
BRANCH   2  12
HETATM   12  C5  UNL     1      22.672   0.660  52.621  1.00  0.00    -0.035 A 
HETATM   13  C6  UNL     1      22.918  -0.212  53.686  1.00  0.00     0.009 A 
HETATM   14  C7  UNL     1      21.997  -0.422  54.694  1.00  0.00     0.001 A 
HETATM   15  C8  UNL     1      20.780   0.230  54.691  1.00  0.00     0.000 A 
HETATM   16  C9  UNL     1      20.540   1.092  53.635  1.00  0.00     0.001 A 
HETATM   17  C10 UNL     1      21.454   1.307  52.624  1.00  0.00     0.009 A 
ENDBRANCH   2  12
BRANCH   4  18
HETATM   18  C13 UNL     1      24.272   4.048  51.213  1.00  0.00    -0.035 A 
HETATM   19  C14 UNL     1      23.613   5.143  51.790  1.00  0.00     0.010 A 
HETATM   20  C15 UNL     1      23.867   6.457  51.475  1.00  0.00     0.019 A 
HETATM   21  C16 UNL     1      24.831   6.744  50.530  1.00  0.00     0.011 A 
HETATM   22 BR1  UNL     1      25.288   8.515  49.993  1.00  0.00    -0.051 Br
HETATM   23  C17 UNL     1      25.495   5.693  49.945  1.00  0.00     0.019 A 
HETATM   24  C18 UNL     1      25.224   4.389  50.277  1.00  0.00     0.010 A 
ENDBRANCH   4  18
TORSDOF 4
ENDMDL
MODEL 4
REMARK VINA RESULT:      -7.4      4.447      7.308
REMARK  4 active torsions:
REMARK  status: ('A' for Active; 'I' for Inactive)
REMARK    1  A    between atoms: O1_1  and  C1_2 
REMARK    2  A    between atoms: C3_5  and  N1_6 
REMARK    3  A    between atoms: C4_7  and  C5_8 
REMARK    4  A    between atoms: C12_15  and  C13_16 
ROOT
HETATM    1  N1  UNL     1      23.931   0.802  52.969  1.00  0.00    -0.342 N 
HETATM    2  C4  UNL     1      25.097   1.054  53.846  1.00  0.00     0.122 C 
HETATM    3  C11 UNL     1      25.251   2.345  53.031  1.00  0.00     0.060 C 
HETATM    4  C12 UNL     1      24.705   1.409  51.940  1.00  0.00     0.122 C 
ENDROOT
BRANCH   1   5
HETATM    5  C3  UNL     1      22.655   0.188  53.247  1.00  0.00     0.172 A 
HETATM    6  S1  UNL     1      22.684  -1.097  54.547  1.00  0.00    -0.060 SA
HETATM    7  C2  UNL     1      20.826  -1.394  54.353  1.00  0.00     0.111 A 
HETATM    8  C1  UNL     1      20.512  -0.448  53.317  1.00  0.00     0.171 A 
HETATM    9  N2  UNL     1      21.538   0.248  52.890  1.00  0.00    -0.200 NA
BRANCH   8  10
HETATM   10  O1  UNL     1      19.298  -0.126  52.670  1.00  0.00    -0.344 OA
HETATM   11  H1  UNL     1      18.457  -0.664  52.887  1.00  0.00     0.219 HD
ENDBRANCH   8  10
ENDBRANCH   1   5
BRANCH   2  12
HETATM   12  C5  UNL     1      26.234   0.159  53.550  1.00  0.00    -0.035 A 
HETATM   13  C6  UNL     1      27.478   0.619  53.990  1.00  0.00     0.009 A 
HETATM   14  C7  UNL     1      28.642  -0.099  53.791  1.00  0.00     0.001 A 
HETATM   15  C8  UNL     1      28.622  -1.316  53.142  1.00  0.00     0.000 A 
HETATM   16  C9  UNL     1      27.388  -1.768  52.707  1.00  0.00     0.001 A 
HETATM   17  C10 UNL     1      26.222  -1.057  52.900  1.00  0.00     0.009 A 
ENDBRANCH   2  12
BRANCH   4  18
HETATM   18  C13 UNL     1      24.034   2.155  50.867  1.00  0.00    -0.035 A 
HETATM   19  C14 UNL     1      24.797   3.197  50.319  1.00  0.00     0.010 A 
HETATM   20  C15 UNL     1      24.373   4.020  49.302  1.00  0.00     0.019 A 
HETATM   21  C16 UNL     1      23.116   3.828  48.767  1.00  0.00     0.011 A 
HETATM   22 BR1  UNL     1      22.395   4.890  47.359  1.00  0.00    -0.051 Br
HETATM   23  C17 UNL     1      22.342   2.815  49.282  1.00  0.00     0.019 A 
HETATM   24  C18 UNL     1      22.788   2.006  50.297  1.00  0.00     0.010 A 
ENDBRANCH   4  18
TORSDOF 4
ENDMDL
MODEL 5
REMARK VINA RESULT:      -7.3      3.574      5.352
REMARK  4 active torsions:
REMARK  status: ('A' for Active; 'I' for Inactive)
REMARK    1  A    between atoms: O1_1  and  C1_2 
REMARK    2  A    between atoms: C3_5  and  N1_6 
REMARK    3  A    between atoms: C4_7  and  C5_8 
REMARK    4  A    between atoms: C12_15  and  C13_16 
ROOT
HETATM    1  N1  UNL     1      23.119   3.385  50.362  1.00  0.00    -0.342 N 
HETATM    2  C4  UNL     1      22.727   3.241  51.783  1.00  0.00     0.122 C 
HETATM    3  C11 UNL     1      23.748   4.360  52.031  1.00  0.00     0.060 C 
HETATM    4  C12 UNL     1      24.430   3.638  50.857  1.00  0.00     0.122 C 
ENDROOT
BRANCH   1   5
HETATM    5  C3  UNL     1      22.341   3.277  49.152  1.00  0.00     0.172 A 
HETATM    6  S1  UNL     1      20.586   2.829  49.402  1.00  0.00    -0.060 SA
HETATM    7  C2  UNL     1      20.265   2.878  47.538  1.00  0.00     0.111 A 
HETATM    8  C1  UNL     1      21.571   3.232  47.052  1.00  0.00     0.171 A 
HETATM    9  N2  UNL     1      22.474   3.390  47.991  1.00  0.00    -0.200 NA
BRANCH   8  10
HETATM   10  O1  UNL     1      22.067   3.443  45.747  1.00  0.00    -0.344 OA
HETATM   11  H1  UNL     1      23.076   3.502  45.597  1.00  0.00     0.219 HD
ENDBRANCH   8  10
ENDBRANCH   1   5
BRANCH   2  12
HETATM   12  C5  UNL     1      23.231   1.989  52.385  1.00  0.00    -0.035 A 
HETATM   13  C6  UNL     1      22.338   0.915  52.347  1.00  0.00     0.009 A 
HETATM   14  C7  UNL     1      22.654  -0.326  52.867  1.00  0.00     0.001 A 
HETATM   15  C8  UNL     1      23.882  -0.557  53.453  1.00  0.00     0.000 A 
HETATM   16  C9  UNL     1      24.764   0.510  53.489  1.00  0.00     0.001 A 
HETATM   17  C10 UNL     1      24.455   1.752  52.973  1.00  0.00     0.009 A 
ENDBRANCH   2  12
BRANCH   4  18
HETATM   18  C13 UNL     1      25.330   4.531  50.116  1.00  0.00    -0.035 A 
HETATM   19  C14 UNL     1      26.462   3.902  49.578  1.00  0.00     0.010 A 
HETATM   20  C15 UNL     1      27.432   4.541  48.844  1.00  0.00     0.019 A 
HETATM   21  C16 UNL     1      27.307   5.894  48.605  1.00  0.00     0.011 A 
HETATM   22 BR1  UNL     1      28.572   6.911  47.607  1.00  0.00    -0.051 Br
HETATM   23  C17 UNL     1      26.209   6.542  49.118  1.00  0.00     0.019 A 
HETATM   24  C18 UNL     1      25.253   5.881  49.848  1.00  0.00     0.010 A 
ENDBRANCH   4  18
TORSDOF 4
ENDMDL
MODEL 6
REMARK VINA RESULT:      -7.3      3.143      5.139
REMARK  4 active torsions:
REMARK  status: ('A' for Active; 'I' for Inactive)
REMARK    1  A    between atoms: O1_1  and  C1_2 
REMARK    2  A    between atoms: C3_5  and  N1_6 
REMARK    3  A    between atoms: C4_7  and  C5_8 
REMARK    4  A    between atoms: C12_15  and  C13_16 
ROOT
HETATM    1  N1  UNL     1      25.120   2.852  50.846  1.00  0.00    -0.342 N 
HETATM    2  C4  UNL     1      23.876   2.225  50.345  1.00  0.00     0.122 C 
HETATM    3  C11 UNL     1      24.272   2.849  49.000  1.00  0.00     0.060 C 
HETATM    4  C12 UNL     1      24.817   3.922  49.959  1.00  0.00     0.122 C 
ENDROOT
BRANCH   1   5
HETATM    5  C3  UNL     1      26.081   2.395  51.821  1.00  0.00     0.172 A 
HETATM    6  S1  UNL     1      25.417   1.245  53.078  1.00  0.00    -0.060 SA
HETATM    7  C2  UNL     1      27.112   1.113  53.911  1.00  0.00     0.111 A 
HETATM    8  C1  UNL     1      27.890   1.980  53.070  1.00  0.00     0.171 A 
HETATM    9  N2  UNL     1      27.217   2.528  52.086  1.00  0.00    -0.200 NA
BRANCH   8  10
HETATM   10  O1  UNL     1      29.252   2.355  53.104  1.00  0.00    -0.344 OA
HETATM   11  H1  UNL     1      29.873   1.921  53.791  1.00  0.00     0.219 HD
ENDBRANCH   8  10
ENDBRANCH   1   5
BRANCH   2  12
HETATM   12  C5  UNL     1      22.660   2.897  50.848  1.00  0.00    -0.035 A 
HETATM   13  C6  UNL     1      21.592   2.937  49.948  1.00  0.00     0.009 A 
HETATM   14  C7  UNL     1      20.384   3.529  50.263  1.00  0.00     0.001 A 
HETATM   15  C8  UNL     1      20.181   4.112  51.498  1.00  0.00     0.000 A 
HETATM   16  C9  UNL     1      21.241   4.071  52.386  1.00  0.00     0.001 A 
HETATM   17  C10 UNL     1      22.451   3.482  52.079  1.00  0.00     0.009 A 
ENDBRANCH   2  12
BRANCH   4  18
HETATM   18  C13 UNL     1      25.906   4.695  49.348  1.00  0.00    -0.035 A 
HETATM   19  C14 UNL     1      25.583   6.029  49.063  1.00  0.00     0.010 A 
HETATM   20  C15 UNL     1      26.450   6.936  48.499  1.00  0.00     0.019 A 
HETATM   21  C16 UNL     1      27.729   6.529  48.182  1.00  0.00     0.011 A 
HETATM   22 BR1  UNL     1      29.036   7.673  47.396  1.00  0.00    -0.051 Br
HETATM   23  C17 UNL     1      28.078   5.227  48.448  1.00  0.00     0.019 A 
HETATM   24  C18 UNL     1      27.195   4.341  49.013  1.00  0.00     0.010 A 
ENDBRANCH   4  18
TORSDOF 4
ENDMDL
MODEL 7
REMARK VINA RESULT:      -7.0      3.891      5.977
REMARK  4 active torsions:
REMARK  status: ('A' for Active; 'I' for Inactive)
REMARK    1  A    between atoms: O1_1  and  C1_2 
REMARK    2  A    between atoms: C3_5  and  N1_6 
REMARK    3  A    between atoms: C4_7  and  C5_8 
REMARK    4  A    between atoms: C12_15  and  C13_16 
ROOT
HETATM    1  N1  UNL     1      25.291   1.385  52.552  1.00  0.00    -0.342 N 
HETATM    2  C4  UNL     1      25.549   2.839  52.665  1.00  0.00     0.122 C 
HETATM    3  C11 UNL     1      24.153   2.893  53.301  1.00  0.00     0.060 C 
HETATM    4  C12 UNL     1      23.939   1.750  52.294  1.00  0.00     0.122 C 
ENDROOT
BRANCH   1   5
HETATM    5  C3  UNL     1      26.178   0.255  52.685  1.00  0.00     0.172 A 
HETATM    6  S1  UNL     1      27.728   0.595  53.594  1.00  0.00    -0.060 SA
HETATM    7  C2  UNL     1      28.300  -1.195  53.369  1.00  0.00     0.111 A 
HETATM    8  C1  UNL     1      27.192  -1.738  52.631  1.00  0.00     0.171 A 
HETATM    9  N2  UNL     1      26.234  -0.878  52.382  1.00  0.00    -0.200 NA
BRANCH   8  10
HETATM   10  O1  UNL     1      26.942  -3.031  52.122  1.00  0.00    -0.344 OA
HETATM   11  H1  UNL     1      25.977  -3.361  52.045  1.00  0.00     0.219 HD
ENDBRANCH   8  10
ENDBRANCH   1   5
BRANCH   2  12
HETATM   12  C5  UNL     1      25.509   3.525  51.357  1.00  0.00    -0.035 A 
HETATM   13  C6  UNL     1      26.602   3.273  50.525  1.00  0.00     0.009 A 
HETATM   14  C7  UNL     1      26.718   3.837  49.268  1.00  0.00     0.001 A 
HETATM   15  C8  UNL     1      25.744   4.683  48.779  1.00  0.00     0.000 A 
HETATM   16  C9  UNL     1      24.662   4.931  49.606  1.00  0.00     0.001 A 
HETATM   17  C10 UNL     1      24.540   4.372  50.862  1.00  0.00     0.009 A 
ENDBRANCH   2  12
BRANCH   4  18
HETATM   18  C13 UNL     1      22.850   0.856  52.709  1.00  0.00    -0.035 A 
HETATM   19  C14 UNL     1      21.658   1.019  51.989  1.00  0.00     0.010 A 
HETATM   20  C15 UNL     1      20.514   0.286  52.202  1.00  0.00     0.019 A 
HETATM   21  C16 UNL     1      20.514  -0.682  53.185  1.00  0.00     0.011 A 
HETATM   22 BR1  UNL     1      19.005  -1.772  53.593  1.00  0.00    -0.051 Br
HETATM   23  C17 UNL     1      21.667  -0.868  53.909  1.00  0.00     0.019 A 
HETATM   24  C18 UNL     1      22.797  -0.123  53.677  1.00  0.00     0.010 A 
ENDBRANCH   4  18
TORSDOF 4
ENDMDL
MODEL 8
REMARK VINA RESULT:      -7.0      4.604      7.230
REMARK  4 active torsions:
REMARK  status: ('A' for Active; 'I' for Inactive)
REMARK    1  A    between atoms: O1_1  and  C1_2 
REMARK    2  A    between atoms: C3_5  and  N1_6 
REMARK    3  A    between atoms: C4_7  and  C5_8 
REMARK    4  A    between atoms: C12_15  and  C13_16 
ROOT
HETATM    1  N1  UNL     1      22.806   1.561  52.026  1.00  0.00    -0.342 N 
HETATM    2  C4  UNL     1      23.833   1.880  53.045  1.00  0.00     0.122 C 
HETATM    3  C11 UNL     1      24.093   3.125  52.186  1.00  0.00     0.060 C 
HETATM    4  C12 UNL     1      23.715   2.120  51.084  1.00  0.00     0.122 C 
ENDROOT
BRANCH   1   5
HETATM    5  C3  UNL     1      21.507   0.945  52.155  1.00  0.00     0.172 A 
HETATM    6  S1  UNL     1      21.182   0.165  53.776  1.00  0.00    -0.060 SA
HETATM    7  C2  UNL     1      19.453  -0.367  53.219  1.00  0.00     0.111 A 
HETATM    8  C1  UNL     1      19.435   0.151  51.878  1.00  0.00     0.171 A 
HETATM    9  N2  UNL     1      20.534   0.771  51.522  1.00  0.00    -0.200 NA
BRANCH   8  10
HETATM   10  O1  UNL     1      18.447   0.120  50.869  1.00  0.00    -0.344 OA
HETATM   11  H1  UNL     1      17.460   0.159  51.131  1.00  0.00     0.219 HD
ENDBRANCH   8  10
ENDBRANCH   1   5
BRANCH   2  12
HETATM   12  C5  UNL     1      25.007   0.986  52.965  1.00  0.00    -0.035 A 
HETATM   13  C6  UNL     1      26.242   1.638  52.909  1.00  0.00     0.009 A 
HETATM   14  C7  UNL     1      27.437   0.948  52.831  1.00  0.00     0.001 A 
HETATM   15  C8  UNL     1      27.458  -0.432  52.807  1.00  0.00     0.000 A 
HETATM   16  C9  UNL     1      26.233  -1.074  52.862  1.00  0.00     0.001 A 
HETATM   17  C10 UNL     1      25.036  -0.392  52.939  1.00  0.00     0.009 A 
ENDBRANCH   2  12
BRANCH   4  18
HETATM   18  C13 UNL     1      23.200   2.795  49.885  1.00  0.00    -0.035 A 
HETATM   19  C14 UNL     1      22.751   1.929  48.878  1.00  0.00     0.010 A 
HETATM   20  C15 UNL     1      22.224   2.340  47.677  1.00  0.00     0.019 A 
HETATM   21  C16 UNL     1      22.118   3.691  47.420  1.00  0.00     0.011 A 
HETATM   22 BR1  UNL     1      21.411   4.406  45.802  1.00  0.00    -0.051 Br
HETATM   23  C17 UNL     1      22.549   4.568  48.387  1.00  0.00     0.019 A 
HETATM   24  C18 UNL     1      23.071   4.133  49.580  1.00  0.00     0.010 A 
ENDBRANCH   4  18
TORSDOF 4
ENDMDL
MODEL 9
REMARK VINA RESULT:      -6.7      5.993      9.685
REMARK  4 active torsions:
REMARK  status: ('A' for Active; 'I' for Inactive)
REMARK    1  A    between atoms: O1_1  and  C1_2 
REMARK    2  A    between atoms: C3_5  and  N1_6 
REMARK    3  A    between atoms: C4_7  and  C5_8 
REMARK    4  A    between atoms: C12_15  and  C13_16 
ROOT
HETATM    1  N1  UNL     1      30.707   8.579  47.454  1.00  0.00    -0.342 N 
HETATM    2  C4  UNL     1      31.712   8.161  46.451  1.00  0.00     0.122 C 
HETATM    3  C11 UNL     1      30.674   7.100  46.062  1.00  0.00     0.060 C 
HETATM    4  C12 UNL     1      30.400   7.194  47.572  1.00  0.00     0.122 C 
ENDROOT
BRANCH   1   5
HETATM    5  C3  UNL     1      30.354   9.888  47.949  1.00  0.00     0.172 A 
HETATM    6  S1  UNL     1      31.553  11.210  47.554  1.00  0.00    -0.060 SA
HETATM    7  C2  UNL     1      30.493  12.496  48.451  1.00  0.00     0.111 A 
HETATM    8  C1  UNL     1      29.401  11.675  48.898  1.00  0.00     0.171 A 
HETATM    9  N2  UNL     1      29.499  10.412  48.559  1.00  0.00    -0.200 NA
BRANCH   8  10
HETATM   10  O1  UNL     1      28.236  11.977  49.637  1.00  0.00    -0.344 OA
HETATM   11  H1  UNL     1      28.325  12.396  50.565  1.00  0.00     0.219 HD
ENDBRANCH   8  10
ENDBRANCH   1   5
BRANCH   2  12
HETATM   12  C5  UNL     1      32.879   7.491  47.062  1.00  0.00    -0.035 A 
HETATM   13  C6  UNL     1      33.716   8.327  47.806  1.00  0.00     0.009 A 
HETATM   14  C7  UNL     1      34.850   7.858  48.443  1.00  0.00     0.001 A 
HETATM   15  C8  UNL     1      35.204   6.526  48.369  1.00  0.00     0.000 A 
HETATM   16  C9  UNL     1      34.373   5.701  47.630  1.00  0.00     0.001 A 
HETATM   17  C10 UNL     1      33.240   6.163  46.991  1.00  0.00     0.009 A 
ENDBRANCH   2  12
BRANCH   4  18
HETATM   18  C13 UNL     1      29.032   6.776  47.904  1.00  0.00    -0.035 A 
HETATM   19  C14 UNL     1      28.923   5.455  48.361  1.00  0.00     0.010 A 
HETATM   20  C15 UNL     1      27.743   4.856  48.735  1.00  0.00     0.019 A 
HETATM   21  C16 UNL     1      26.572   5.583  48.665  1.00  0.00     0.011 A 
HETATM   22 BR1  UNL     1      24.866   4.886  49.148  1.00  0.00    -0.051 Br
HETATM   23  C17 UNL     1      26.644   6.882  48.221  1.00  0.00     0.019 A 
HETATM   24  C18 UNL     1      27.835   7.458  47.854  1.00  0.00     0.010 A 
ENDBRANCH   4  18
TORSDOF 4
ENDMDL
