MODEL 1
REMARK VINA RESULT:      -6.4      0.000      0.000
REMARK  7 active torsions:
REMARK  status: ('A' for Active; 'I' for Inactive)
REMARK    1  A    between atoms: C2_2  and  C4_5 
REMARK    2  A    between atoms: C4_5  and  O2_6 
REMARK    3  A    between atoms: C4_5  and  C6_8 
REMARK    4  A    between atoms: C9_13  and  N3_14 
REMARK    5  A    between atoms: N3_14  and  C10_15 
REMARK    6  A    between atoms: C10_15  and  C11_16 
REMARK    7  A    between atoms: C12_17  and  C13_19 
ROOT
HETATM    1  C6  UNL     1      27.097   1.321  52.878  1.00  0.00     0.038 A 
HETATM    2  C7  UNL     1      28.154   2.053  53.365  1.00  0.00     0.132 A 
HETATM    3  N1  UNL     1      28.867   1.563  54.409  1.00  0.00    -0.253 NA
HETATM    4  C8  UNL     1      28.524   0.359  54.955  1.00  0.00     0.234 A 
HETATM    5  N2  UNL     1      27.482  -0.326  54.450  1.00  0.00    -0.224 NA
HETATM    6  C9  UNL     1      26.741   0.105  53.421  1.00  0.00     0.135 A 
ENDROOT
BRANCH   6   7
HETATM    7  N3  UNL     1      25.659  -0.674  52.938  1.00  0.00    -0.371 N 
HETATM    8  H12 UNL     1      25.640  -1.248  52.072  1.00  0.00     0.161 HD
BRANCH   7   9
HETATM    9  C10 UNL     1      24.420  -0.713  53.694  1.00  0.00     0.150 C 
BRANCH   9  10
HETATM   10  C11 UNL     1      23.226  -0.406  52.869  1.00  0.00     0.014 C 
HETATM   11  C12 UNL     1      22.001  -0.289  53.354  1.00  0.00     0.038 C 
HETATM   12 CL1  UNL     1      21.560  -0.471  55.039  1.00  0.00    -0.087 Cl
BRANCH  11  13
HETATM   13  C13 UNL     1      20.860   0.021  52.450  1.00  0.00     0.273 C 
HETATM   14  F1  UNL     1      21.323  -0.087  51.165  1.00  0.00    -0.250 F 
ENDBRANCH  11  13
ENDBRANCH   9  10
ENDBRANCH   7   9
ENDBRANCH   6   7
BRANCH   1  15
HETATM   15  C4  UNL     1      26.378   1.913  51.760  1.00  0.00     0.188 C 
BRANCH  15  16
HETATM   16  C2  UNL     1      25.046   2.483  52.187  1.00  0.00    -0.041 A 
HETATM   17  C1  UNL     1      24.892   3.057  53.379  1.00  0.00     0.042 A 
HETATM   18  O1  UNL     1      23.724   2.906  52.290  1.00  0.00     0.000 OA
HETATM   19  C3  UNL     1      23.037   2.987  51.034  1.00  0.00     0.000 C 
ENDBRANCH  15  16
BRANCH  15  20
HETATM   20  O2  UNL     1      27.070   2.921  51.097  1.00  0.00    -0.381 OA
HETATM   21  C5  UNL     1      26.507   3.263  49.888  1.00  0.00     0.202 C 
ENDBRANCH  15  20
ENDBRANCH   1  15
TORSDOF 7
ENDMDL
MODEL 2
REMARK VINA RESULT:      -6.3      2.551      4.294
REMARK  7 active torsions:
REMARK  status: ('A' for Active; 'I' for Inactive)
REMARK    1  A    between atoms: C2_2  and  C4_5 
REMARK    2  A    between atoms: C4_5  and  O2_6 
REMARK    3  A    between atoms: C4_5  and  C6_8 
REMARK    4  A    between atoms: C9_13  and  N3_14 
REMARK    5  A    between atoms: N3_14  and  C10_15 
REMARK    6  A    between atoms: C10_15  and  C11_16 
REMARK    7  A    between atoms: C12_17  and  C13_19 
ROOT
HETATM    1  C6  UNL     1      25.851   0.704  52.584  1.00  0.00     0.038 A 
HETATM    2  C7  UNL     1      27.063   1.321  52.382  1.00  0.00     0.132 A 
HETATM    3  N1  UNL     1      27.115   2.428  51.600  1.00  0.00    -0.253 NA
HETATM    4  C8  UNL     1      25.969   2.904  51.029  1.00  0.00     0.234 A 
HETATM    5  N2  UNL     1      24.804   2.271  51.250  1.00  0.00    -0.224 NA
HETATM    6  C9  UNL     1      24.689   1.175  52.013  1.00  0.00     0.135 A 
ENDROOT
BRANCH   6   7
HETATM    7  N3  UNL     1      23.425   0.562  52.205  1.00  0.00    -0.371 N 
HETATM    8  H12 UNL     1      23.054  -0.272  51.708  1.00  0.00     0.161 HD
BRANCH   7   9
HETATM    9  C10 UNL     1      22.511   1.113  53.189  1.00  0.00     0.150 C 
BRANCH   9  10
HETATM   10  C11 UNL     1      21.100   0.714  52.959  1.00  0.00     0.014 C 
HETATM   11  C12 UNL     1      20.535  -0.351  53.500  1.00  0.00     0.038 C 
HETATM   12 CL1  UNL     1      21.331  -1.481  54.577  1.00  0.00    -0.087 Cl
BRANCH  11  13
HETATM   13  C13 UNL     1      19.111  -0.675  53.214  1.00  0.00     0.273 C 
HETATM   14  F1  UNL     1      18.891  -1.952  53.656  1.00  0.00    -0.250 F 
ENDBRANCH  11  13
ENDBRANCH   9  10
ENDBRANCH   7   9
ENDBRANCH   6   7
BRANCH   1  15
HETATM   15  C4  UNL     1      25.876  -0.479  53.431  1.00  0.00     0.188 C 
BRANCH  15  16
HETATM   16  C2  UNL     1      27.130  -1.296  53.220  1.00  0.00    -0.041 A 
HETATM   17  C1  UNL     1      27.128  -2.370  52.433  1.00  0.00     0.042 A 
HETATM   18  O1  UNL     1      28.414  -1.831  53.225  1.00  0.00     0.000 OA
HETATM   19  C3  UNL     1      29.422  -0.927  53.699  1.00  0.00     0.000 C 
ENDBRANCH  15  16
BRANCH  15  20
HETATM   20  O2  UNL     1      25.774  -0.216  54.793  1.00  0.00    -0.381 OA
HETATM   21  C5  UNL     1      24.850  -1.012  55.432  1.00  0.00     0.202 C 
ENDBRANCH  15  20
ENDBRANCH   1  15
TORSDOF 7
ENDMDL
MODEL 3
REMARK VINA RESULT:      -6.2      2.031      3.459
REMARK  7 active torsions:
REMARK  status: ('A' for Active; 'I' for Inactive)
REMARK    1  A    between atoms: C2_2  and  C4_5 
REMARK    2  A    between atoms: C4_5  and  O2_6 
REMARK    3  A    between atoms: C4_5  and  C6_8 
REMARK    4  A    between atoms: C9_13  and  N3_14 
REMARK    5  A    between atoms: N3_14  and  C10_15 
REMARK    6  A    between atoms: C10_15  and  C11_16 
REMARK    7  A    between atoms: C12_17  and  C13_19 
ROOT
HETATM    1  C6  UNL     1      25.802   0.541  53.769  1.00  0.00     0.038 A 
HETATM    2  C7  UNL     1      26.420   0.032  54.885  1.00  0.00     0.132 A 
HETATM    3  N1  UNL     1      25.739  -0.833  55.677  1.00  0.00    -0.253 NA
HETATM    4  C8  UNL     1      24.458  -1.178  55.353  1.00  0.00     0.234 A 
HETATM    5  N2  UNL     1      23.888  -0.657  54.251  1.00  0.00    -0.224 NA
HETATM    6  C9  UNL     1      24.511   0.200  53.431  1.00  0.00     0.135 A 
ENDROOT
BRANCH   6   7
HETATM    7  N3  UNL     1      23.848   0.706  52.284  1.00  0.00    -0.371 N 
HETATM    8  H12 UNL     1      24.068   0.494  51.291  1.00  0.00     0.161 HD
BRANCH   7   9
HETATM    9  C10 UNL     1      22.734   1.622  52.454  1.00  0.00     0.150 C 
BRANCH   9  10
HETATM   10  C11 UNL     1      21.443   1.060  51.987  1.00  0.00     0.014 C 
HETATM   11  C12 UNL     1      20.537   0.522  52.786  1.00  0.00     0.038 C 
HETATM   12 CL1  UNL     1      20.686   0.370  54.525  1.00  0.00    -0.087 Cl
BRANCH  11  13
HETATM   13  C13 UNL     1      19.267  -0.017  52.228  1.00  0.00     0.273 C 
HETATM   14  F1  UNL     1      18.646  -0.707  53.236  1.00  0.00    -0.250 F 
ENDBRANCH  11  13
ENDBRANCH   9  10
ENDBRANCH   7   9
ENDBRANCH   6   7
BRANCH   1  15
HETATM   15  C4  UNL     1      26.595   1.465  52.971  1.00  0.00     0.188 C 
BRANCH  15  16
HETATM   16  C2  UNL     1      28.069   1.359  53.287  1.00  0.00    -0.041 A 
HETATM   17  C1  UNL     1      28.757   2.412  53.725  1.00  0.00     0.042 A 
HETATM   18  O1  UNL     1      29.385   0.955  53.488  1.00  0.00     0.000 OA
HETATM   19  C3  UNL     1      29.554  -0.467  53.570  1.00  0.00     0.000 C 
ENDBRANCH  15  16
BRANCH  15  20
HETATM   20  O2  UNL     1      26.451   1.311  51.596  1.00  0.00    -0.381 OA
HETATM   21  C5  UNL     1      26.477   2.506  50.911  1.00  0.00     0.202 C 
ENDBRANCH  15  20
ENDBRANCH   1  15
TORSDOF 7
ENDMDL
MODEL 4
REMARK VINA RESULT:      -6.2      4.451      6.610
REMARK  7 active torsions:
REMARK  status: ('A' for Active; 'I' for Inactive)
REMARK    1  A    between atoms: C2_2  and  C4_5 
REMARK    2  A    between atoms: C4_5  and  O2_6 
REMARK    3  A    between atoms: C4_5  and  C6_8 
REMARK    4  A    between atoms: C9_13  and  N3_14 
REMARK    5  A    between atoms: N3_14  and  C10_15 
REMARK    6  A    between atoms: C10_15  and  C11_16 
REMARK    7  A    between atoms: C12_17  and  C13_19 
ROOT
HETATM    1  C6  UNL     1      25.374   1.927  52.243  1.00  0.00     0.038 A 
HETATM    2  C7  UNL     1      24.317   1.101  52.540  1.00  0.00     0.132 A 
HETATM    3  N1  UNL     1      23.212   1.138  51.754  1.00  0.00    -0.253 NA
HETATM    4  C8  UNL     1      23.171   1.992  50.690  1.00  0.00     0.234 A 
HETATM    5  N2  UNL     1      24.226   2.785  50.433  1.00  0.00    -0.224 NA
HETATM    6  C9  UNL     1      25.344   2.792  51.172  1.00  0.00     0.135 A 
ENDROOT
BRANCH   6   7
HETATM    7  N3  UNL     1      26.420   3.654  50.838  1.00  0.00    -0.371 N 
HETATM    8  H12 UNL     1      27.005   4.207  51.497  1.00  0.00     0.161 HD
BRANCH   7   9
HETATM    9  C10 UNL     1      26.791   3.820  49.445  1.00  0.00     0.150 C 
BRANCH   9  10
HETATM   10  C11 UNL     1      26.588   5.204  48.950  1.00  0.00     0.014 C 
HETATM   11  C12 UNL     1      27.535   5.935  48.387  1.00  0.00     0.038 C 
HETATM   12 CL1  UNL     1      29.188   5.418  48.122  1.00  0.00    -0.087 Cl
BRANCH  11  13
HETATM   13  C13 UNL     1      27.241   7.317  47.919  1.00  0.00     0.273 C 
HETATM   14  F1  UNL     1      28.349   7.758  47.245  1.00  0.00    -0.250 F 
ENDBRANCH  11  13
ENDBRANCH   9  10
ENDBRANCH   7   9
ENDBRANCH   6   7
BRANCH   1  15
HETATM   15  C4  UNL     1      26.522   1.832  53.133  1.00  0.00     0.188 C 
BRANCH  15  16
HETATM   16  C2  UNL     1      26.695   0.435  53.682  1.00  0.00    -0.041 A 
HETATM   17  C1  UNL     1      26.525   0.178  54.978  1.00  0.00     0.042 A 
HETATM   18  O1  UNL     1      26.920  -0.924  53.881  1.00  0.00     0.000 OA
HETATM   19  C3  UNL     1      26.866  -1.706  52.680  1.00  0.00     0.000 C 
ENDBRANCH  15  16
BRANCH  15  20
HETATM   20  O2  UNL     1      27.732   2.207  52.558  1.00  0.00    -0.381 OA
HETATM   21  C5  UNL     1      28.714   2.477  53.485  1.00  0.00     0.202 C 
ENDBRANCH  15  20
ENDBRANCH   1  15
TORSDOF 7
ENDMDL
MODEL 5
REMARK VINA RESULT:      -6.1      3.121      5.026
REMARK  7 active torsions:
REMARK  status: ('A' for Active; 'I' for Inactive)
REMARK    1  A    between atoms: C2_2  and  C4_5 
REMARK    2  A    between atoms: C4_5  and  O2_6 
REMARK    3  A    between atoms: C4_5  and  C6_8 
REMARK    4  A    between atoms: C9_13  and  N3_14 
REMARK    5  A    between atoms: N3_14  and  C10_15 
REMARK    6  A    between atoms: C10_15  and  C11_16 
REMARK    7  A    between atoms: C12_17  and  C13_19 
ROOT
HETATM    1  C6  UNL     1      23.725   1.647  52.630  1.00  0.00     0.038 A 
HETATM    2  C7  UNL     1      22.457   1.254  52.276  1.00  0.00     0.132 A 
HETATM    3  N1  UNL     1      22.047  -0.000  52.588  1.00  0.00    -0.253 NA
HETATM    4  C8  UNL     1      22.897  -0.844  53.243  1.00  0.00     0.234 A 
HETATM    5  N2  UNL     1      24.131  -0.421  53.571  1.00  0.00    -0.224 NA
HETATM    6  C9  UNL     1      24.592   0.805  53.291  1.00  0.00     0.135 A 
ENDROOT
BRANCH   6   7
HETATM    7  N3  UNL     1      25.904   1.183  53.672  1.00  0.00    -0.371 N 
HETATM    8  H12 UNL     1      26.485   1.935  53.249  1.00  0.00     0.161 HD
BRANCH   7   9
HETATM    9  C10 UNL     1      26.557   0.483  54.763  1.00  0.00     0.150 C 
BRANCH   9  10
HETATM   10  C11 UNL     1      27.960   0.110  54.459  1.00  0.00     0.014 C 
HETATM   11  C12 UNL     1      28.305  -0.849  53.616  1.00  0.00     0.038 C 
HETATM   12 CL1  UNL     1      27.188  -1.848  52.710  1.00  0.00    -0.087 Cl
BRANCH  11  13
HETATM   13  C13 UNL     1      29.741  -1.155  53.371  1.00  0.00     0.273 C 
HETATM   14  F1  UNL     1      30.411   0.039  53.365  1.00  0.00    -0.250 F 
ENDBRANCH  11  13
ENDBRANCH   9  10
ENDBRANCH   7   9
ENDBRANCH   6   7
BRANCH   1  15
HETATM   15  C4  UNL     1      24.094   3.006  52.257  1.00  0.00     0.188 C 
BRANCH  15  16
HETATM   16  C2  UNL     1      24.478   3.104  50.800  1.00  0.00    -0.041 A 
HETATM   17  C1  UNL     1      25.750   3.017  50.414  1.00  0.00     0.042 A 
HETATM   18  O1  UNL     1      24.514   3.231  49.414  1.00  0.00     0.000 OA
HETATM   19  C3  UNL     1      23.248   3.018  48.775  1.00  0.00     0.000 C 
ENDBRANCH  15  16
BRANCH  15  20
HETATM   20  O2  UNL     1      23.108   3.957  52.495  1.00  0.00    -0.381 OA
HETATM   21  C5  UNL     1      23.500   5.238  52.172  1.00  0.00     0.202 C 
ENDBRANCH  15  20
ENDBRANCH   1  15
TORSDOF 7
ENDMDL
MODEL 6
REMARK VINA RESULT:      -6.1      3.023      5.020
REMARK  7 active torsions:
REMARK  status: ('A' for Active; 'I' for Inactive)
REMARK    1  A    between atoms: C2_2  and  C4_5 
REMARK    2  A    between atoms: C4_5  and  O2_6 
REMARK    3  A    between atoms: C4_5  and  C6_8 
REMARK    4  A    between atoms: C9_13  and  N3_14 
REMARK    5  A    between atoms: N3_14  and  C10_15 
REMARK    6  A    between atoms: C10_15  and  C11_16 
REMARK    7  A    between atoms: C12_17  and  C13_19 
ROOT
HETATM    1  C6  UNL     1      23.070   0.704  52.841  1.00  0.00     0.038 A 
HETATM    2  C7  UNL     1      21.732   1.000  52.942  1.00  0.00     0.132 A 
HETATM    3  N1  UNL     1      20.984   0.356  53.872  1.00  0.00    -0.253 NA
HETATM    4  C8  UNL     1      21.571  -0.570  54.685  1.00  0.00     0.234 A 
HETATM    5  N2  UNL     1      22.884  -0.832  54.555  1.00  0.00    -0.224 NA
HETATM    6  C9  UNL     1      23.673  -0.228  53.656  1.00  0.00     0.135 A 
ENDROOT
BRANCH   6   7
HETATM    7  N3  UNL     1      25.051  -0.552  53.578  1.00  0.00    -0.371 N 
HETATM    8  H12 UNL     1      25.575  -0.858  52.734  1.00  0.00     0.161 HD
BRANCH   7   9
HETATM    9  C10 UNL     1      25.871  -0.464  54.774  1.00  0.00     0.150 C 
BRANCH   9  10
HETATM   10  C11 UNL     1      26.888   0.613  54.704  1.00  0.00     0.014 C 
HETATM   11  C12 UNL     1      28.047   0.497  54.079  1.00  0.00     0.038 C 
HETATM   12 CL1  UNL     1      28.597  -0.931  53.225  1.00  0.00    -0.087 Cl
BRANCH  11  13
HETATM   13  C13 UNL     1      29.010   1.632  54.060  1.00  0.00     0.273 C 
HETATM   14  F1  UNL     1      28.299   2.756  53.731  1.00  0.00    -0.250 F 
ENDBRANCH  11  13
ENDBRANCH   9  10
ENDBRANCH   7   9
ENDBRANCH   6   7
BRANCH   1  15
HETATM   15  C4  UNL     1      23.804   1.433  51.818  1.00  0.00     0.188 C 
BRANCH  15  16
HETATM   16  C2  UNL     1      22.899   2.332  51.008  1.00  0.00    -0.041 A 
HETATM   17  C1  UNL     1      22.499   1.987  49.785  1.00  0.00     0.042 A 
HETATM   18  O1  UNL     1      22.085   3.350  50.521  1.00  0.00     0.000 OA
HETATM   19  C3  UNL     1      21.587   4.235  51.535  1.00  0.00     0.000 C 
ENDBRANCH  15  16
BRANCH  15  20
HETATM   20  O2  UNL     1      24.846   2.217  52.303  1.00  0.00    -0.381 OA
HETATM   21  C5  UNL     1      25.910   2.305  51.433  1.00  0.00     0.202 C 
ENDBRANCH  15  20
ENDBRANCH   1  15
TORSDOF 7
ENDMDL
MODEL 7
REMARK VINA RESULT:      -6.1      3.614      5.328
REMARK  7 active torsions:
REMARK  status: ('A' for Active; 'I' for Inactive)
REMARK    1  A    between atoms: C2_2  and  C4_5 
REMARK    2  A    between atoms: C4_5  and  O2_6 
REMARK    3  A    between atoms: C4_5  and  C6_8 
REMARK    4  A    between atoms: C9_13  and  N3_14 
REMARK    5  A    between atoms: N3_14  and  C10_15 
REMARK    6  A    between atoms: C10_15  and  C11_16 
REMARK    7  A    between atoms: C12_17  and  C13_19 
ROOT
HETATM    1  C6  UNL     1      25.234   0.719  52.730  1.00  0.00     0.038 A 
HETATM    2  C7  UNL     1      25.205  -0.552  53.253  1.00  0.00     0.132 A 
HETATM    3  N1  UNL     1      26.377  -1.185  53.507  1.00  0.00    -0.253 NA
HETATM    4  C8  UNL     1      27.557  -0.553  53.239  1.00  0.00     0.234 A 
HETATM    5  N2  UNL     1      27.543   0.691  52.726  1.00  0.00    -0.224 NA
HETATM    6  C9  UNL     1      26.418   1.367  52.455  1.00  0.00     0.135 A 
ENDROOT
BRANCH   6   7
HETATM    7  N3  UNL     1      26.480   2.677  51.918  1.00  0.00    -0.371 N 
HETATM    8  H12 UNL     1      26.472   3.571  52.449  1.00  0.00     0.161 HD
BRANCH   7   9
HETATM    9  C10 UNL     1      26.567   2.853  50.479  1.00  0.00     0.150 C 
BRANCH   9  10
HETATM   10  C11 UNL     1      25.806   4.028  49.989  1.00  0.00     0.014 C 
HETATM   11  C12 UNL     1      26.302   4.944  49.175  1.00  0.00     0.038 C 
HETATM   12 CL1  UNL     1      27.930   4.946  48.528  1.00  0.00    -0.087 Cl
BRANCH  11  13
HETATM   13  C13 UNL     1      25.464   6.092  48.734  1.00  0.00     0.273 C 
HETATM   14  F1  UNL     1      26.275   6.930  48.016  1.00  0.00    -0.250 F 
ENDBRANCH  11  13
ENDBRANCH   9  10
ENDBRANCH   7   9
ENDBRANCH   6   7
BRANCH   1  15
HETATM   15  C4  UNL     1      23.937   1.331  52.481  1.00  0.00     0.188 C 
BRANCH  15  16
HETATM   16  C2  UNL     1      22.799   0.423  52.886  1.00  0.00    -0.041 A 
HETATM   17  C1  UNL     1      21.910  -0.007  51.992  1.00  0.00     0.042 A 
HETATM   18  O1  UNL     1      21.883  -0.385  53.551  1.00  0.00     0.000 OA
HETATM   19  C3  UNL     1      22.334  -0.848  54.831  1.00  0.00     0.000 C 
ENDBRANCH  15  16
BRANCH  15  20
HETATM   20  O2  UNL     1      23.744   2.553  53.118  1.00  0.00    -0.381 OA
HETATM   21  C5  UNL     1      23.000   3.441  52.373  1.00  0.00     0.202 C 
ENDBRANCH  15  20
ENDBRANCH   1  15
TORSDOF 7
ENDMDL
MODEL 8
REMARK VINA RESULT:      -6.1      2.754      4.571
REMARK  7 active torsions:
REMARK  status: ('A' for Active; 'I' for Inactive)
REMARK    1  A    between atoms: C2_2  and  C4_5 
REMARK    2  A    between atoms: C4_5  and  O2_6 
REMARK    3  A    between atoms: C4_5  and  C6_8 
REMARK    4  A    between atoms: C9_13  and  N3_14 
REMARK    5  A    between atoms: N3_14  and  C10_15 
REMARK    6  A    between atoms: C10_15  and  C11_16 
REMARK    7  A    between atoms: C12_17  and  C13_19 
ROOT
HETATM    1  C6  UNL     1      25.092  -0.175  54.188  1.00  0.00     0.038 A 
HETATM    2  C7  UNL     1      24.859  -0.946  55.302  1.00  0.00     0.132 A 
HETATM    3  N1  UNL     1      23.607  -1.414  55.528  1.00  0.00    -0.253 NA
HETATM    4  C8  UNL     1      22.605  -1.111  54.650  1.00  0.00     0.234 A 
HETATM    5  N2  UNL     1      22.874  -0.353  53.572  1.00  0.00    -0.224 NA
HETATM    6  C9  UNL     1      24.090   0.137  53.296  1.00  0.00     0.135 A 
ENDROOT
BRANCH   6   7
HETATM    7  N3  UNL     1      24.299   0.927  52.137  1.00  0.00    -0.371 N 
HETATM    8  H12 UNL     1      25.079   0.840  51.455  1.00  0.00     0.161 HD
BRANCH   7   9
HETATM    9  C10 UNL     1      23.357   1.985  51.819  1.00  0.00     0.150 C 
BRANCH   9  10
HETATM   10  C11 UNL     1      22.940   1.983  50.395  1.00  0.00     0.014 C 
HETATM   11  C12 UNL     1      21.904   1.308  49.928  1.00  0.00     0.038 C 
HETATM   12 CL1  UNL     1      20.838   0.302  50.887  1.00  0.00    -0.087 Cl
BRANCH  11  13
HETATM   13  C13 UNL     1      21.558   1.365  48.481  1.00  0.00     0.273 C 
HETATM   14  F1  UNL     1      22.695   1.730  47.810  1.00  0.00    -0.250 F 
ENDBRANCH  11  13
ENDBRANCH   9  10
ENDBRANCH   7   9
ENDBRANCH   6   7
BRANCH   1  15
HETATM   15  C4  UNL     1      26.459   0.293  54.016  1.00  0.00     0.188 C 
BRANCH  15  16
HETATM   16  C2  UNL     1      27.361  -0.791  53.474  1.00  0.00    -0.041 A 
HETATM   17  C1  UNL     1      26.941  -1.625  52.523  1.00  0.00     0.042 A 
HETATM   18  O1  UNL     1      28.402  -1.669  53.185  1.00  0.00     0.000 OA
HETATM   19  C3  UNL     1      29.686  -1.222  53.642  1.00  0.00     0.000 C 
ENDBRANCH  15  16
BRANCH  15  20
HETATM   20  O2  UNL     1      26.590   1.400  53.184  1.00  0.00    -0.381 OA
HETATM   21  C5  UNL     1      27.834   1.988  53.253  1.00  0.00     0.202 C 
ENDBRANCH  15  20
ENDBRANCH   1  15
TORSDOF 7
ENDMDL
MODEL 9
REMARK VINA RESULT:      -6.0      3.397      5.246
REMARK  7 active torsions:
REMARK  status: ('A' for Active; 'I' for Inactive)
REMARK    1  A    between atoms: C2_2  and  C4_5 
REMARK    2  A    between atoms: C4_5  and  O2_6 
REMARK    3  A    between atoms: C4_5  and  C6_8 
REMARK    4  A    between atoms: C9_13  and  N3_14 
REMARK    5  A    between atoms: N3_14  and  C10_15 
REMARK    6  A    between atoms: C10_15  and  C11_16 
REMARK    7  A    between atoms: C12_17  and  C13_19 
ROOT
HETATM    1  C6  UNL     1      24.300  -0.564  53.778  1.00  0.00     0.038 A 
HETATM    2  C7  UNL     1      24.092  -1.226  54.964  1.00  0.00     0.132 A 
HETATM    3  N1  UNL     1      22.848  -1.232  55.504  1.00  0.00    -0.253 NA
HETATM    4  C8  UNL     1      21.831  -0.583  54.863  1.00  0.00     0.234 A 
HETATM    5  N2  UNL     1      22.076   0.054  53.704  1.00  0.00    -0.224 NA
HETATM    6  C9  UNL     1      23.283   0.094  53.122  1.00  0.00     0.135 A 
ENDROOT
BRANCH   6   7
HETATM    7  N3  UNL     1      23.466   0.782  51.896  1.00  0.00    -0.371 N 
HETATM    8  H12 UNL     1      23.698   0.364  50.973  1.00  0.00     0.161 HD
BRANCH   7   9
HETATM    9  C10 UNL     1      23.327   2.227  51.865  1.00  0.00     0.150 C 
BRANCH   9  10
HETATM   10  C11 UNL     1      24.498   2.912  51.264  1.00  0.00     0.014 C 
HETATM   11  C12 UNL     1      24.584   3.249  49.988  1.00  0.00     0.038 C 
HETATM   12 CL1  UNL     1      23.349   2.956  48.780  1.00  0.00    -0.087 Cl
BRANCH  11  13
HETATM   13  C13 UNL     1      25.799   3.935  49.471  1.00  0.00     0.273 C 
HETATM   14  F1  UNL     1      26.732   2.964  49.217  1.00  0.00    -0.250 F 
ENDBRANCH  11  13
ENDBRANCH   9  10
ENDBRANCH   7   9
ENDBRANCH   6   7
BRANCH   1  15
HETATM   15  C4  UNL     1      25.661  -0.599  53.263  1.00  0.00     0.188 C 
BRANCH  15  16
HETATM   16  C2  UNL     1      26.538   0.441  53.921  1.00  0.00    -0.041 A 
HETATM   17  C1  UNL     1      26.061   1.645  54.235  1.00  0.00     0.042 A 
HETATM   18  O1  UNL     1      27.569   1.169  54.506  1.00  0.00     0.000 OA
HETATM   19  C3  UNL     1      28.664   0.365  54.966  1.00  0.00     0.000 C 
ENDBRANCH  15  16
BRANCH  15  20
HETATM   20  O2  UNL     1      26.298  -1.828  53.399  1.00  0.00    -0.381 OA
HETATM   21  C5  UNL     1      27.006  -2.200  52.277  1.00  0.00     0.202 C 
ENDBRANCH  15  20
ENDBRANCH   1  15
TORSDOF 7
ENDMDL
